MODEL 1
REMARK VINA RESULT:      -5.0      0.000      0.000
REMARK  9 active torsions:
REMARK  status: ('A' for Active; 'I' for Inactive)
REMARK    1  A    between atoms: S_1  and  C_14 
REMARK    2  A    between atoms: S_1  and  C_15 
REMARK    3  A    between atoms: S_2  and  N_6 
REMARK    4  A    between atoms: S_2  and  N_10 
REMARK    5  A    between atoms: N_8  and  C_16 
REMARK    6  A    between atoms: N_9  and  C_19 
REMARK       I    between atoms: N_11  and  C_20 
REMARK       I    between atoms: N_12  and  C_20 
REMARK    7  A    between atoms: C_13  and  C_14 
REMARK    8  A    between atoms: C_13  and  C_16 
REMARK    9  A    between atoms: C_15  and  C_17 
ROOT
HETATM    1  S   UNK     0       4.186  70.336  14.156  0.00  0.00    -0.163 SA
ENDROOT
BRANCH   1   2
HETATM    2  C   UNK     0       3.777  71.129  15.741  0.00  0.00     0.082 C 
BRANCH   2   3
HETATM    3  C   UNK     0       3.135  70.157  16.725  0.00  0.00     0.089 C 
BRANCH   3   4
HETATM    4  C   UNK     0       1.611  70.179  16.655  0.00  0.00     0.113 C 
HETATM    5  N   UNK     0       1.044  69.086  16.237  0.00  0.00    -0.133 NA
BRANCH   5   6
HETATM    6  S   UNK     0      -0.580  68.971  16.103  0.00  0.00     0.339 S 
HETATM    7  O   UNK     0      -1.041  69.961  15.143  0.00  0.00    -0.181 OA
HETATM    8  O   UNK     0      -1.160  68.951  17.435  0.00  0.00    -0.181 OA
BRANCH   6   9
HETATM    9  N   UNK     0      -0.913  67.431  15.406  0.00  0.00    -0.310 N 
HETATM   10  H   UNK     0      -0.120  66.952  14.960  0.00  0.00     0.170 HD
HETATM   11  H   UNK     0      -1.775  67.357  14.851  0.00  0.00     0.170 HD
ENDBRANCH   6   9
ENDBRANCH   5   6
BRANCH   4  12
HETATM   12  N   UNK     0       1.009  71.356  17.036  0.00  0.00    -0.387 N 
HETATM   13  H   UNK     0       0.990  71.655  18.006  0.00  0.00     0.157 HD
HETATM   14  H   UNK     0       0.557  71.965  16.362  0.00  0.00     0.157 HD
ENDBRANCH   4  12
ENDBRANCH   3   4
ENDBRANCH   2   3
ENDBRANCH   1   2
BRANCH   1  15
HETATM   15  C   UNK     0       4.848  68.786  14.805  0.00  0.00     0.133 C 
BRANCH  15  16
HETATM   16  C   UNK     0       6.236  68.534  14.313  0.00  0.00     0.053 A 
HETATM   17  N   UNK     0       7.275  68.785  15.175  0.00  0.00    -0.226 NA
HETATM   18  C   UNK     0       8.400  68.503  14.556  0.00  0.00     0.211 A 
HETATM   19  S   UNK     0       8.263  67.935  12.942  0.00  0.00    -0.059 SA
HETATM   20  C   UNK     0       6.558  68.072  13.065  0.00  0.00     0.081 A 
BRANCH  18  21
HETATM   21  N   UNK     0       9.646  68.622  15.080  0.00  0.00    -0.039 NA
HETATM   22  C   UNK     0      10.007  67.756  15.997  0.00  0.00     0.694 C 
HETATM   23  N   UNK     0      11.213  67.682  16.665  0.00  0.00    -0.233 N 
HETATM   24  N   UNK     0       9.140  66.766  16.400  0.00  0.00    -0.233 N 
HETATM   25  H   UNK     0      11.956  68.346  16.476  0.00  0.00     0.174 HD
HETATM   26  H   UNK     0      11.390  66.967  17.360  0.00  0.00     0.174 HD
HETATM   27  H   UNK     0       9.418  66.096  17.107  0.00  0.00     0.174 HD
HETATM   28  H   UNK     0       8.206  66.654  16.025  0.00  0.00     0.174 HD
ENDBRANCH  18  21
ENDBRANCH  15  16
ENDBRANCH   1  15
TORSDOF 9
ENDMDL
MODEL 2
REMARK VINA RESULT:      -4.8     25.447     27.613
REMARK  9 active torsions:
REMARK  status: ('A' for Active; 'I' for Inactive)
REMARK    1  A    between atoms: S_1  and  C_14 
REMARK    2  A    between atoms: S_1  and  C_15 
REMARK    3  A    between atoms: S_2  and  N_6 
REMARK    4  A    between atoms: S_2  and  N_10 
REMARK    5  A    between atoms: N_8  and  C_16 
REMARK    6  A    between atoms: N_9  and  C_19 
REMARK       I    between atoms: N_11  and  C_20 
REMARK       I    between atoms: N_12  and  C_20 
REMARK    7  A    between atoms: C_13  and  C_14 
REMARK    8  A    between atoms: C_13  and  C_16 
REMARK    9  A    between atoms: C_15  and  C_17 
ROOT
HETATM    1  S   UNK     0      25.535  49.546  25.687  0.00  0.00    -0.163 SA
ENDROOT
BRANCH   1   2
HETATM    2  C   UNK     0      25.942  51.254  26.161  0.00  0.00     0.082 C 
BRANCH   2   3
HETATM    3  C   UNK     0      25.093  51.749  27.327  0.00  0.00     0.089 C 
BRANCH   3   4
HETATM    4  C   UNK     0      23.800  52.416  26.864  0.00  0.00     0.113 C 
HETATM    5  N   UNK     0      22.930  52.679  27.794  0.00  0.00    -0.133 NA
BRANCH   5   6
HETATM    6  S   UNK     0      21.499  53.383  27.442  0.00  0.00     0.339 S 
HETATM    7  O   UNK     0      20.801  52.560  26.467  0.00  0.00    -0.181 OA
HETATM    8  O   UNK     0      21.728  54.789  27.150  0.00  0.00    -0.181 OA
BRANCH   6   9
HETATM    9  N   UNK     0      20.554  53.334  28.881  0.00  0.00    -0.310 N 
HETATM   10  H   UNK     0      20.387  54.235  29.347  0.00  0.00     0.170 HD
HETATM   11  H   UNK     0      20.776  52.584  29.548  0.00  0.00     0.170 HD
ENDBRANCH   6   9
ENDBRANCH   5   6
BRANCH   4  12
HETATM   12  N   UNK     0      23.700  52.659  25.513  0.00  0.00    -0.387 N 
HETATM   13  H   UNK     0      22.952  53.227  25.129  0.00  0.00     0.157 HD
HETATM   14  H   UNK     0      24.366  52.274  24.853  0.00  0.00     0.157 HD
ENDBRANCH   4  12
ENDBRANCH   3   4
ENDBRANCH   2   3
ENDBRANCH   1   2
BRANCH   1  15
HETATM   15  C   UNK     0      25.629  49.744  23.894  0.00  0.00     0.133 C 
BRANCH  15  16
HETATM   16  C   UNK     0      24.301  49.520  23.248  0.00  0.00     0.053 A 
HETATM   17  N   UNK     0      23.176  49.799  23.984  0.00  0.00    -0.226 NA
HETATM   18  C   UNK     0      22.123  49.537  23.242  0.00  0.00     0.211 A 
HETATM   19  S   UNK     0      22.430  48.955  21.657  0.00  0.00    -0.059 SA
HETATM   20  C   UNK     0      24.113  49.056  21.973  0.00  0.00     0.081 A 
BRANCH  18  21
HETATM   21  N   UNK     0      20.829  49.687  23.620  0.00  0.00    -0.039 NA
HETATM   22  C   UNK     0      20.329  50.901  23.620  0.00  0.00     0.694 C 
HETATM   23  N   UNK     0      19.051  51.290  23.962  0.00  0.00    -0.233 N 
HETATM   24  N   UNK     0      21.106  51.973  23.245  0.00  0.00    -0.233 N 
HETATM   25  H   UNK     0      18.359  50.610  24.261  0.00  0.00     0.174 HD
HETATM   26  H   UNK     0      18.766  52.262  23.926  0.00  0.00     0.174 HD
HETATM   27  H   UNK     0      20.721  52.910  23.243  0.00  0.00     0.174 HD
HETATM   28  H   UNK     0      22.074  51.889  22.958  0.00  0.00     0.174 HD
ENDBRANCH  18  21
ENDBRANCH  15  16
ENDBRANCH   1  15
TORSDOF 9
ENDMDL
MODEL 3
REMARK VINA RESULT:      -4.8     25.072     25.748
REMARK  9 active torsions:
REMARK  status: ('A' for Active; 'I' for Inactive)
REMARK    1  A    between atoms: S_1  and  C_14 
REMARK    2  A    between atoms: S_1  and  C_15 
REMARK    3  A    between atoms: S_2  and  N_6 
REMARK    4  A    between atoms: S_2  and  N_10 
REMARK    5  A    between atoms: N_8  and  C_16 
REMARK    6  A    between atoms: N_9  and  C_19 
REMARK       I    between atoms: N_11  and  C_20 
REMARK       I    between atoms: N_12  and  C_20 
REMARK    7  A    between atoms: C_13  and  C_14 
REMARK    8  A    between atoms: C_13  and  C_16 
REMARK    9  A    between atoms: C_15  and  C_17 
ROOT
HETATM    1  S   UNK     0      21.814  49.108  19.780  0.00  0.00    -0.163 SA
ENDROOT
BRANCH   1   2
HETATM    2  C   UNK     0      20.690  48.046  18.822  0.00  0.00     0.082 C 
BRANCH   2   3
HETATM    3  C   UNK     0      19.769  47.223  19.717  0.00  0.00     0.089 C 
BRANCH   3   4
HETATM    4  C   UNK     0      18.356  47.797  19.782  0.00  0.00     0.113 C 
HETATM    5  N   UNK     0      17.530  47.186  20.578  0.00  0.00    -0.133 NA
BRANCH   5   6
HETATM    6  S   UNK     0      15.982  47.685  20.740  0.00  0.00     0.339 S 
HETATM    7  O   UNK     0      15.340  47.644  19.436  0.00  0.00    -0.181 OA
HETATM    8  O   UNK     0      15.967  48.924  21.500  0.00  0.00    -0.181 OA
BRANCH   6   9
HETATM    9  N   UNK     0      15.181  46.510  21.711  0.00  0.00    -0.310 N 
HETATM   10  H   UNK     0      14.614  45.814  21.209  0.00  0.00     0.170 HD
HETATM   11  H   UNK     0      14.712  46.859  22.557  0.00  0.00     0.170 HD
ENDBRANCH   6   9
ENDBRANCH   5   6
BRANCH   4  12
HETATM   12  N   UNK     0      18.116  48.893  18.986  0.00  0.00    -0.387 N 
HETATM   13  H   UNK     0      17.173  49.166  18.727  0.00  0.00     0.157 HD
HETATM   14  H   UNK     0      18.871  49.465  18.625  0.00  0.00     0.157 HD
ENDBRANCH   4  12
ENDBRANCH   3   4
ENDBRANCH   2   3
ENDBRANCH   1   2
BRANCH   1  15
HETATM   15  C   UNK     0      21.931  50.482  18.614  0.00  0.00     0.133 C 
BRANCH  15  16
HETATM   16  C   UNK     0      23.214  51.230  18.775  0.00  0.00     0.053 A 
HETATM   17  N   UNK     0      23.619  52.034  17.739  0.00  0.00    -0.226 NA
HETATM   18  C   UNK     0      24.759  52.596  18.077  0.00  0.00     0.211 A 
HETATM   19  S   UNK     0      25.382  52.193  19.624  0.00  0.00    -0.059 SA
HETATM   20  C   UNK     0      24.023  51.178  19.879  0.00  0.00     0.081 A 
BRANCH  18  21
HETATM   21  N   UNK     0      25.475  53.459  17.313  0.00  0.00    -0.039 NA
HETATM   22  C   UNK     0      26.120  52.969  16.280  0.00  0.00     0.694 C 
HETATM   23  N   UNK     0      26.904  53.649  15.371  0.00  0.00    -0.233 N 
HETATM   24  N   UNK     0      26.061  51.624  15.997  0.00  0.00    -0.233 N 
HETATM   25  H   UNK     0      27.045  54.651  15.448  0.00  0.00     0.174 HD
HETATM   26  H   UNK     0      27.361  53.171  14.604  0.00  0.00     0.174 HD
HETATM   27  H   UNK     0      26.557  51.245  15.199  0.00  0.00     0.174 HD
HETATM   28  H   UNK     0      25.533  50.959  16.550  0.00  0.00     0.174 HD
ENDBRANCH  18  21
ENDBRANCH  15  16
ENDBRANCH   1  15
TORSDOF 9
ENDMDL
