MODEL 1
REMARK VINA RESULT:      -5.9      0.000      0.000
REMARK  9 active torsions:
REMARK  status: ('A' for Active; 'I' for Inactive)
REMARK    1  A    between atoms: S_1  and  C_14 
REMARK    2  A    between atoms: S_1  and  C_15 
REMARK    3  A    between atoms: S_2  and  N_6 
REMARK    4  A    between atoms: S_2  and  N_10 
REMARK    5  A    between atoms: N_8  and  C_16 
REMARK    6  A    between atoms: N_9  and  C_19 
REMARK       I    between atoms: N_11  and  C_20 
REMARK       I    between atoms: N_12  and  C_20 
REMARK    7  A    between atoms: C_13  and  C_14 
REMARK    8  A    between atoms: C_13  and  C_16 
REMARK    9  A    between atoms: C_15  and  C_17 
ROOT
HETATM    1  S   UNK     0       9.506  32.310  18.337  0.00  0.00    -0.163 SA
ENDROOT
BRANCH   1   2
HETATM    2  C   UNK     0       9.596  33.492  16.957  0.00  0.00     0.082 C 
BRANCH   2   3
HETATM    3  C   UNK     0      10.845  33.293  16.106  0.00  0.00     0.089 C 
BRANCH   3   4
HETATM    4  C   UNK     0      10.829  34.146  14.840  0.00  0.00     0.113 C 
HETATM    5  N   UNK     0      11.624  35.175  14.836  0.00  0.00    -0.133 NA
BRANCH   5   6
HETATM    6  S   UNK     0      11.703  36.181  13.551  0.00  0.00     0.339 S 
HETATM    7  O   UNK     0      10.460  36.932  13.469  0.00  0.00    -0.181 OA
HETATM    8  O   UNK     0      12.155  35.427  12.394  0.00  0.00    -0.181 OA
BRANCH   6   9
HETATM    9  N   UNK     0      12.940  37.329  13.896  0.00  0.00    -0.310 N 
HETATM   10  H   UNK     0      13.736  37.350  13.245  0.00  0.00     0.170 HD
HETATM   11  H   UNK     0      13.236  37.402  14.877  0.00  0.00     0.170 HD
ENDBRANCH   6   9
ENDBRANCH   5   6
BRANCH   4  12
HETATM   12  N   UNK     0       9.971  33.732  13.848  0.00  0.00    -0.387 N 
HETATM   13  H   UNK     0       9.303  32.983  14.000  0.00  0.00     0.157 HD
HETATM   14  H   UNK     0       9.978  34.155  12.926  0.00  0.00     0.157 HD
ENDBRANCH   4  12
ENDBRANCH   3   4
ENDBRANCH   2   3
ENDBRANCH   1   2
BRANCH   1  15
HETATM   15  C   UNK     0      10.423  30.952  17.575  0.00  0.00     0.133 C 
BRANCH  15  16
HETATM   16  C   UNK     0      11.112  30.113  18.601  0.00  0.00     0.053 A 
HETATM   17  N   UNK     0      12.034  29.196  18.162  0.00  0.00    -0.226 NA
HETATM   18  C   UNK     0      12.519  28.567  19.210  0.00  0.00     0.211 A 
HETATM   19  S   UNK     0      11.901  29.039  20.740  0.00  0.00    -0.059 SA
HETATM   20  C   UNK     0      10.896  30.184  19.952  0.00  0.00     0.081 A 
BRANCH  18  21
HETATM   21  N   UNK     0      13.457  27.586  19.183  0.00  0.00    -0.039 NA
HETATM   22  C   UNK     0      14.718  27.947  19.215  0.00  0.00     0.694 C 
HETATM   23  N   UNK     0      15.832  27.133  19.198  0.00  0.00    -0.233 N 
HETATM   24  N   UNK     0      15.060  29.278  19.274  0.00  0.00    -0.233 N 
HETATM   25  H   UNK     0      15.742  26.124  19.155  0.00  0.00     0.174 HD
HETATM   26  H   UNK     0      16.769  27.518  19.226  0.00  0.00     0.174 HD
HETATM   27  H   UNK     0      16.033  29.559  19.300  0.00  0.00     0.174 HD
HETATM   28  H   UNK     0      14.381  30.030  19.296  0.00  0.00     0.174 HD
ENDBRANCH  18  21
ENDBRANCH  15  16
ENDBRANCH   1  15
TORSDOF 9
ENDMDL
MODEL 2
REMARK VINA RESULT:      -5.8      1.569      1.865
REMARK  9 active torsions:
REMARK  status: ('A' for Active; 'I' for Inactive)
REMARK    1  A    between atoms: S_1  and  C_14 
REMARK    2  A    between atoms: S_1  and  C_15 
REMARK    3  A    between atoms: S_2  and  N_6 
REMARK    4  A    between atoms: S_2  and  N_10 
REMARK    5  A    between atoms: N_8  and  C_16 
REMARK    6  A    between atoms: N_9  and  C_19 
REMARK       I    between atoms: N_11  and  C_20 
REMARK       I    between atoms: N_12  and  C_20 
REMARK    7  A    between atoms: C_13  and  C_14 
REMARK    8  A    between atoms: C_13  and  C_16 
REMARK    9  A    between atoms: C_15  and  C_17 
ROOT
HETATM    1  S   UNK     0      11.057  31.985  18.928  0.00  0.00    -0.163 SA
ENDROOT
BRANCH   1   2
HETATM    2  C   UNK     0      10.700  32.259  17.165  0.00  0.00     0.082 C 
BRANCH   2   3
HETATM    3  C   UNK     0      11.427  33.480  16.611  0.00  0.00     0.089 C 
BRANCH   3   4
HETATM    4  C   UNK     0      11.021  33.796  15.174  0.00  0.00     0.113 C 
HETATM    5  N   UNK     0      11.732  34.699  14.567  0.00  0.00    -0.133 NA
BRANCH   5   6
HETATM    6  S   UNK     0      11.405  35.145  13.029  0.00  0.00     0.339 S 
HETATM    7  O   UNK     0      10.064  35.704  12.981  0.00  0.00    -0.181 OA
HETATM    8  O   UNK     0      11.749  34.047  12.141  0.00  0.00    -0.181 OA
BRANCH   6   9
HETATM    9  N   UNK     0      12.481  36.434  12.646  0.00  0.00    -0.310 N 
HETATM   10  H   UNK     0      12.353  37.306  13.175  0.00  0.00     0.170 HD
HETATM   11  H   UNK     0      12.653  36.605  11.647  0.00  0.00     0.170 HD
ENDBRANCH   6   9
ENDBRANCH   5   6
BRANCH   4  12
HETATM   12  N   UNK     0       9.943  33.094  14.686  0.00  0.00    -0.387 N 
HETATM   13  H   UNK     0       9.944  32.080  14.642  0.00  0.00     0.157 HD
HETATM   14  H   UNK     0       9.111  33.564  14.346  0.00  0.00     0.157 HD
ENDBRANCH   4  12
ENDBRANCH   3   4
ENDBRANCH   2   3
ENDBRANCH   1   2
BRANCH   1  15
HETATM   15  C   UNK     0      12.830  31.667  18.787  0.00  0.00     0.133 C 
BRANCH  15  16
HETATM   16  C   UNK     0      13.165  30.261  19.165  0.00  0.00     0.053 A 
HETATM   17  N   UNK     0      14.373  30.035  19.777  0.00  0.00    -0.226 NA
HETATM   18  C   UNK     0      14.474  28.747  20.024  0.00  0.00     0.211 A 
HETATM   19  S   UNK     0      13.148  27.770  19.543  0.00  0.00    -0.059 SA
HETATM   20  C   UNK     0      12.361  29.174  18.950  0.00  0.00     0.081 A 
BRANCH  18  21
HETATM   21  N   UNK     0      15.527  28.134  20.621  0.00  0.00    -0.039 NA
HETATM   22  C   UNK     0      16.500  27.705  19.851  0.00  0.00     0.694 C 
HETATM   23  N   UNK     0      17.658  27.060  20.231  0.00  0.00    -0.233 N 
HETATM   24  N   UNK     0      16.437  27.880  18.488  0.00  0.00    -0.233 N 
HETATM   25  H   UNK     0      17.848  26.858  21.207  0.00  0.00     0.174 HD
HETATM   26  H   UNK     0      18.350  26.769  19.550  0.00  0.00     0.174 HD
HETATM   27  H   UNK     0      17.188  27.551  17.892  0.00  0.00     0.174 HD
HETATM   28  H   UNK     0      15.664  28.335  18.017  0.00  0.00     0.174 HD
ENDBRANCH  18  21
ENDBRANCH  15  16
ENDBRANCH   1  15
TORSDOF 9
ENDMDL
MODEL 3
REMARK VINA RESULT:      -5.7      3.940      8.327
REMARK  9 active torsions:
REMARK  status: ('A' for Active; 'I' for Inactive)
REMARK    1  A    between atoms: S_1  and  C_14 
REMARK    2  A    between atoms: S_1  and  C_15 
REMARK    3  A    between atoms: S_2  and  N_6 
REMARK    4  A    between atoms: S_2  and  N_10 
REMARK    5  A    between atoms: N_8  and  C_16 
REMARK    6  A    between atoms: N_9  and  C_19 
REMARK       I    between atoms: N_11  and  C_20 
REMARK       I    between atoms: N_12  and  C_20 
REMARK    7  A    between atoms: C_13  and  C_14 
REMARK    8  A    between atoms: C_13  and  C_16 
REMARK    9  A    between atoms: C_15  and  C_17 
ROOT
HETATM    1  S   UNK     0      11.632  31.722  18.135  0.00  0.00    -0.163 SA
ENDROOT
BRANCH   1   2
HETATM    2  C   UNK     0      11.362  30.187  19.073  0.00  0.00     0.082 C 
BRANCH   2   3
HETATM    3  C   UNK     0      11.922  28.965  18.353  0.00  0.00     0.089 C 
BRANCH   3   4
HETATM    4  C   UNK     0      13.091  28.333  19.104  0.00  0.00     0.113 C 
HETATM    5  N   UNK     0      14.135  29.089  19.274  0.00  0.00    -0.133 NA
BRANCH   5   6
HETATM    6  S   UNK     0      15.463  28.540  20.052  0.00  0.00     0.339 S 
HETATM    7  O   UNK     0      15.052  27.938  21.310  0.00  0.00    -0.181 OA
HETATM    8  O   UNK     0      16.467  29.591  20.063  0.00  0.00    -0.181 OA
BRANCH   6   9
HETATM    9  N   UNK     0      16.108  27.263  19.092  0.00  0.00    -0.310 N 
HETATM   10  H   UNK     0      16.464  26.445  19.603  0.00  0.00     0.170 HD
HETATM   11  H   UNK     0      16.725  27.540  18.319  0.00  0.00     0.170 HD
ENDBRANCH   6   9
ENDBRANCH   5   6
BRANCH   4  12
HETATM   12  N   UNK     0      12.911  27.030  19.510  0.00  0.00    -0.387 N 
HETATM   13  H   UNK     0      13.333  26.675  20.362  0.00  0.00     0.157 HD
HETATM   14  H   UNK     0      12.355  26.376  18.969  0.00  0.00     0.157 HD
ENDBRANCH   4  12
ENDBRANCH   3   4
ENDBRANCH   2   3
ENDBRANCH   1   2
BRANCH   1  15
HETATM   15  C   UNK     0      10.138  31.673  17.121  0.00  0.00     0.133 C 
BRANCH  15  16
HETATM   16  C   UNK     0       9.939  32.953  16.377  0.00  0.00     0.053 A 
HETATM   17  N   UNK     0      10.998  33.445  15.656  0.00  0.00    -0.226 NA
HETATM   18  C   UNK     0      10.620  34.566  15.083  0.00  0.00     0.211 A 
HETATM   19  S   UNK     0       9.007  35.070  15.378  0.00  0.00    -0.059 SA
HETATM   20  C   UNK     0       8.778  33.680  16.356  0.00  0.00     0.081 A 
BRANCH  18  21
HETATM   21  N   UNK     0      11.391  35.350  14.286  0.00  0.00    -0.039 NA
HETATM   22  C   UNK     0      11.551  34.979  13.037  0.00  0.00     0.694 C 
HETATM   23  N   UNK     0      12.283  35.612  12.054  0.00  0.00    -0.233 N 
HETATM   24  N   UNK     0      10.950  33.834  12.569  0.00  0.00    -0.233 N 
HETATM   25  H   UNK     0      12.785  36.472  12.247  0.00  0.00     0.174 HD
HETATM   26  H   UNK     0      12.340  35.238  11.113  0.00  0.00     0.174 HD
HETATM   27  H   UNK     0      11.071  33.548  11.604  0.00  0.00     0.174 HD
HETATM   28  H   UNK     0      10.370  33.232  13.141  0.00  0.00     0.174 HD
ENDBRANCH  18  21
ENDBRANCH  15  16
ENDBRANCH   1  15
TORSDOF 9
ENDMDL
