MODEL 1
REMARK VINA RESULT:      -6.2      0.000      0.000
REMARK  9 active torsions:
REMARK  status: ('A' for Active; 'I' for Inactive)
REMARK    1  A    between atoms: S_1  and  C_14 
REMARK    2  A    between atoms: S_1  and  C_15 
REMARK    3  A    between atoms: S_2  and  N_6 
REMARK    4  A    between atoms: S_2  and  N_10 
REMARK    5  A    between atoms: N_8  and  C_16 
REMARK    6  A    between atoms: N_9  and  C_19 
REMARK       I    between atoms: N_11  and  C_20 
REMARK       I    between atoms: N_12  and  C_20 
REMARK    7  A    between atoms: C_13  and  C_14 
REMARK    8  A    between atoms: C_13  and  C_16 
REMARK    9  A    between atoms: C_15  and  C_17 
ROOT
HETATM    1  S   UNK     0      55.561 -12.250  33.781  0.00  0.00    -0.163 SA
ENDROOT
BRANCH   1   2
HETATM    2  C   UNK     0      55.223 -11.529  35.417  0.00  0.00     0.082 C 
BRANCH   2   3
HETATM    3  C   UNK     0      55.628 -10.061  35.497  0.00  0.00     0.089 C 
BRANCH   3   4
HETATM    4  C   UNK     0      54.736  -9.262  36.443  0.00  0.00     0.113 C 
HETATM    5  N   UNK     0      55.131  -8.054  36.715  0.00  0.00    -0.133 NA
BRANCH   5   6
HETATM    6  S   UNK     0      54.280  -7.088  37.721  0.00  0.00     0.339 S 
HETATM    7  O   UNK     0      54.349  -7.638  39.065  0.00  0.00    -0.181 OA
HETATM    8  O   UNK     0      52.980  -6.825  37.127  0.00  0.00    -0.181 OA
BRANCH   6   9
HETATM    9  N   UNK     0      55.104  -5.577  37.774  0.00  0.00    -0.310 N 
HETATM   10  H   UNK     0      54.658  -4.797  37.275  0.00  0.00     0.170 HD
HETATM   11  H   UNK     0      56.121  -5.606  37.625  0.00  0.00     0.170 HD
ENDBRANCH   6   9
ENDBRANCH   5   6
BRANCH   4  12
HETATM   12  N   UNK     0      53.616  -9.914  36.907  0.00  0.00    -0.387 N 
HETATM   13  H   UNK     0      53.059 -10.510  36.303  0.00  0.00     0.157 HD
HETATM   14  H   UNK     0      53.303  -9.818  37.867  0.00  0.00     0.157 HD
ENDBRANCH   4  12
ENDBRANCH   3   4
ENDBRANCH   2   3
ENDBRANCH   1   2
BRANCH   1  15
HETATM   15  C   UNK     0      54.162 -11.535  32.889  0.00  0.00     0.133 C 
BRANCH  15  16
HETATM   16  C   UNK     0      53.879 -12.282  31.627  0.00  0.00     0.053 A 
HETATM   17  N   UNK     0      54.060 -13.643  31.635  0.00  0.00    -0.226 NA
HETATM   18  C   UNK     0      53.760 -14.104  30.441  0.00  0.00     0.211 A 
HETATM   19  S   UNK     0      53.256 -12.948  29.278  0.00  0.00    -0.059 SA
HETATM   20  C   UNK     0      53.450 -11.716  30.455  0.00  0.00     0.081 A 
BRANCH  18  21
HETATM   21  N   UNK     0      53.815 -15.405  30.056  0.00  0.00    -0.039 NA
HETATM   22  C   UNK     0      55.001 -15.941  29.886  0.00  0.00     0.694 C 
HETATM   23  N   UNK     0      55.299 -17.232  29.502  0.00  0.00    -0.233 N 
HETATM   24  N   UNK     0      56.138 -15.196  30.095  0.00  0.00    -0.233 N 
HETATM   25  H   UNK     0      54.563 -17.904  29.310  0.00  0.00     0.174 HD
HETATM   26  H   UNK     0      56.257 -17.546  29.400  0.00  0.00     0.174 HD
HETATM   27  H   UNK     0      57.054 -15.609  29.966  0.00  0.00     0.174 HD
HETATM   28  H   UNK     0      56.125 -14.225  30.383  0.00  0.00     0.174 HD
ENDBRANCH  18  21
ENDBRANCH  15  16
ENDBRANCH   1  15
TORSDOF 9
ENDMDL
MODEL 2
REMARK VINA RESULT:      -5.9      8.608     11.198
REMARK  9 active torsions:
REMARK  status: ('A' for Active; 'I' for Inactive)
REMARK    1  A    between atoms: S_1  and  C_14 
REMARK    2  A    between atoms: S_1  and  C_15 
REMARK    3  A    between atoms: S_2  and  N_6 
REMARK    4  A    between atoms: S_2  and  N_10 
REMARK    5  A    between atoms: N_8  and  C_16 
REMARK    6  A    between atoms: N_9  and  C_19 
REMARK       I    between atoms: N_11  and  C_20 
REMARK       I    between atoms: N_12  and  C_20 
REMARK    7  A    between atoms: C_13  and  C_14 
REMARK    8  A    between atoms: C_13  and  C_16 
REMARK    9  A    between atoms: C_15  and  C_17 
ROOT
HETATM    1  S   UNK     0      50.277  -5.966  33.383  0.00  0.00    -0.163 SA
ENDROOT
BRANCH   1   2
HETATM    2  C   UNK     0      50.099  -5.428  35.111  0.00  0.00     0.082 C 
BRANCH   2   3
HETATM    3  C   UNK     0      48.680  -4.967  35.430  0.00  0.00     0.089 C 
BRANCH   3   4
HETATM    4  C   UNK     0      47.978  -5.889  36.423  0.00  0.00     0.113 C 
HETATM    5  N   UNK     0      48.497  -7.071  36.569  0.00  0.00    -0.133 NA
BRANCH   5   6
HETATM    6  S   UNK     0      47.843  -8.165  37.592  0.00  0.00     0.339 S 
HETATM    7  O   UNK     0      46.465  -8.407  37.198  0.00  0.00    -0.181 OA
HETATM    8  O   UNK     0      48.130  -7.758  38.958  0.00  0.00    -0.181 OA
BRANCH   6   9
HETATM    9  N   UNK     0      48.685  -9.646  37.340  0.00  0.00    -0.310 N 
HETATM   10  H   UNK     0      49.603  -9.576  36.881  0.00  0.00     0.170 HD
HETATM   11  H   UNK     0      48.129 -10.433  36.982  0.00  0.00     0.170 HD
ENDBRANCH   6   9
ENDBRANCH   5   6
BRANCH   4  12
HETATM   12  N   UNK     0      46.870  -5.364  37.049  0.00  0.00    -0.387 N 
HETATM   13  H   UNK     0      46.828  -5.260  38.058  0.00  0.00     0.157 HD
HETATM   14  H   UNK     0      46.053  -5.068  36.526  0.00  0.00     0.157 HD
ENDBRANCH   4  12
ENDBRANCH   3   4
ENDBRANCH   2   3
ENDBRANCH   1   2
BRANCH   1  15
HETATM   15  C   UNK     0      49.123  -4.799  32.628  0.00  0.00     0.133 C 
BRANCH  15  16
HETATM   16  C   UNK     0      49.833  -3.610  32.069  0.00  0.00     0.053 A 
HETATM   17  N   UNK     0      49.134  -2.432  31.979  0.00  0.00    -0.226 NA
HETATM   18  C   UNK     0      49.930  -1.520  31.467  0.00  0.00     0.211 A 
HETATM   19  S   UNK     0      51.524  -2.025  31.079  0.00  0.00    -0.059 SA
HETATM   20  C   UNK     0      51.133  -3.599  31.637  0.00  0.00     0.081 A 
BRANCH  18  21
HETATM   21  N   UNK     0      49.601  -0.226  31.222  0.00  0.00    -0.039 NA
HETATM   22  C   UNK     0      49.639   0.614  32.230  0.00  0.00     0.694 C 
HETATM   23  N   UNK     0      49.348   1.963  32.219  0.00  0.00    -0.233 N 
HETATM   24  N   UNK     0      50.003   0.181  33.484  0.00  0.00    -0.233 N 
HETATM   25  H   UNK     0      49.063   2.430  31.364  0.00  0.00     0.174 HD
HETATM   26  H   UNK     0      49.410   2.525  33.060  0.00  0.00     0.174 HD
HETATM   27  H   UNK     0      50.034   0.829  34.262  0.00  0.00     0.174 HD
HETATM   28  H   UNK     0      50.254  -0.777  33.693  0.00  0.00     0.174 HD
ENDBRANCH  18  21
ENDBRANCH  15  16
ENDBRANCH   1  15
TORSDOF 9
ENDMDL
MODEL 3
REMARK VINA RESULT:      -5.9      8.865     11.220
REMARK  9 active torsions:
REMARK  status: ('A' for Active; 'I' for Inactive)
REMARK    1  A    between atoms: S_1  and  C_14 
REMARK    2  A    between atoms: S_1  and  C_15 
REMARK    3  A    between atoms: S_2  and  N_6 
REMARK    4  A    between atoms: S_2  and  N_10 
REMARK    5  A    between atoms: N_8  and  C_16 
REMARK    6  A    between atoms: N_9  and  C_19 
REMARK       I    between atoms: N_11  and  C_20 
REMARK       I    between atoms: N_12  and  C_20 
REMARK    7  A    between atoms: C_13  and  C_14 
REMARK    8  A    between atoms: C_13  and  C_16 
REMARK    9  A    between atoms: C_15  and  C_17 
ROOT
HETATM    1  S   UNK     0      50.452  -5.820  33.337  0.00  0.00    -0.163 SA
ENDROOT
BRANCH   1   2
HETATM    2  C   UNK     0      50.235  -4.029  33.571  0.00  0.00     0.082 C 
BRANCH   2   3
HETATM    3  C   UNK     0      48.865  -3.547  33.105  0.00  0.00     0.089 C 
BRANCH   3   4
HETATM    4  C   UNK     0      48.957  -2.334  32.183  0.00  0.00     0.113 C 
HETATM    5  N   UNK     0      49.280  -1.210  32.751  0.00  0.00    -0.133 NA
BRANCH   5   6
HETATM    6  S   UNK     0      49.406   0.171  31.887  0.00  0.00     0.339 S 
HETATM    7  O   UNK     0      48.133   0.430  31.232  0.00  0.00    -0.181 OA
HETATM    8  O   UNK     0      50.618   0.114  31.086  0.00  0.00    -0.181 OA
BRANCH   6   9
HETATM    9  N   UNK     0      49.634   1.447  33.022  0.00  0.00    -0.310 N 
HETATM   10  H   UNK     0      48.931   2.197  33.010  0.00  0.00     0.170 HD
HETATM   11  H   UNK     0      50.591   1.810  33.115  0.00  0.00     0.170 HD
ENDBRANCH   6   9
ENDBRANCH   5   6
BRANCH   4  12
HETATM   12  N   UNK     0      48.681  -2.567  30.855  0.00  0.00    -0.387 N 
HETATM   13  H   UNK     0      49.080  -1.992  30.120  0.00  0.00     0.157 HD
HETATM   14  H   UNK     0      48.064  -3.317  30.563  0.00  0.00     0.157 HD
ENDBRANCH   4  12
ENDBRANCH   3   4
ENDBRANCH   2   3
ENDBRANCH   1   2
BRANCH   1  15
HETATM   15  C   UNK     0      51.285  -6.186  34.898  0.00  0.00     0.133 C 
BRANCH  15  16
HETATM   16  C   UNK     0      50.337  -6.126  36.051  0.00  0.00     0.053 A 
HETATM   17  N   UNK     0      49.035  -6.498  35.828  0.00  0.00    -0.226 NA
HETATM   18  C   UNK     0      48.373  -6.375  36.958  0.00  0.00     0.211 A 
HETATM   19  S   UNK     0      49.268  -5.818  38.312  0.00  0.00    -0.059 SA
HETATM   20  C   UNK     0      50.665  -5.729  37.321  0.00  0.00     0.081 A 
BRANCH  18  21
HETATM   21  N   UNK     0      47.056  -6.648  37.140  0.00  0.00    -0.039 NA
HETATM   22  C   UNK     0      46.183  -5.849  36.571  0.00  0.00     0.694 C 
HETATM   23  N   UNK     0      44.807  -5.930  36.616  0.00  0.00    -0.233 N 
HETATM   24  N   UNK     0      46.607  -4.778  35.819  0.00  0.00    -0.233 N 
HETATM   25  H   UNK     0      44.343  -6.669  37.134  0.00  0.00     0.174 HD
HETATM   26  H   UNK     0      44.221  -5.256  36.137  0.00  0.00     0.174 HD
HETATM   27  H   UNK     0      45.934  -4.161  35.378  0.00  0.00     0.174 HD
HETATM   28  H   UNK     0      47.583  -4.552  35.667  0.00  0.00     0.174 HD
ENDBRANCH  18  21
ENDBRANCH  15  16
ENDBRANCH   1  15
TORSDOF 9
ENDMDL
