MODEL 1
REMARK VINA RESULT:      -5.6      0.000      0.000
REMARK  9 active torsions:
REMARK  status: ('A' for Active; 'I' for Inactive)
REMARK    1  A    between atoms: S_1  and  C_14 
REMARK    2  A    between atoms: S_1  and  C_15 
REMARK    3  A    between atoms: S_2  and  N_6 
REMARK    4  A    between atoms: S_2  and  N_10 
REMARK    5  A    between atoms: N_8  and  C_16 
REMARK    6  A    between atoms: N_9  and  C_19 
REMARK       I    between atoms: N_11  and  C_20 
REMARK       I    between atoms: N_12  and  C_20 
REMARK    7  A    between atoms: C_13  and  C_14 
REMARK    8  A    between atoms: C_13  and  C_16 
REMARK    9  A    between atoms: C_15  and  C_17 
ROOT
HETATM    1  S   UNK     0     -23.087 -16.701  38.779  0.00  0.00    -0.163 SA
ENDROOT
BRANCH   1   2
HETATM    2  C   UNK     0     -21.678 -16.497  37.647  0.00  0.00     0.082 C 
BRANCH   2   3
HETATM    3  C   UNK     0     -21.866 -15.321  36.695  0.00  0.00     0.089 C 
BRANCH   3   4
HETATM    4  C   UNK     0     -21.856 -15.750  35.230  0.00  0.00     0.113 C 
HETATM    5  N   UNK     0     -22.797 -15.253  34.484  0.00  0.00    -0.133 NA
BRANCH   5   6
HETATM    6  S   UNK     0     -22.913 -15.633  32.899  0.00  0.00     0.339 S 
HETATM    7  O   UNK     0     -21.651 -15.318  32.250  0.00  0.00    -0.181 OA
HETATM    8  O   UNK     0     -24.144 -15.068  32.371  0.00  0.00    -0.181 OA
BRANCH   6   9
HETATM    9  N   UNK     0     -23.089 -17.345  32.810  0.00  0.00    -0.310 N 
HETATM   10  H   UNK     0     -22.952 -17.863  33.688  0.00  0.00     0.170 HD
HETATM   11  H   UNK     0     -22.642 -17.808  32.009  0.00  0.00     0.170 HD
ENDBRANCH   6   9
ENDBRANCH   5   6
BRANCH   4  12
HETATM   12  N   UNK     0     -20.853 -16.619  34.866  0.00  0.00    -0.387 N 
HETATM   13  H   UNK     0     -20.685 -17.481  35.375  0.00  0.00     0.157 HD
HETATM   14  H   UNK     0     -20.241 -16.427  34.081  0.00  0.00     0.157 HD
ENDBRANCH   4  12
ENDBRANCH   3   4
ENDBRANCH   2   3
ENDBRANCH   1   2
BRANCH   1  15
HETATM   15  C   UNK     0     -23.991 -17.955  37.844  0.00  0.00     0.133 C 
BRANCH  15  16
HETATM   16  C   UNK     0     -24.883 -17.337  36.818  0.00  0.00     0.053 A 
HETATM   17  N   UNK     0     -24.935 -17.924  35.579  0.00  0.00    -0.226 NA
HETATM   18  C   UNK     0     -25.768 -17.234  34.831  0.00  0.00     0.211 A 
HETATM   19  S   UNK     0     -26.513 -15.876  35.569  0.00  0.00    -0.059 SA
HETATM   20  C   UNK     0     -25.659 -16.225  37.015  0.00  0.00     0.081 A 
BRANCH  18  21
HETATM   21  N   UNK     0     -26.084 -17.504  33.539  0.00  0.00    -0.039 NA
HETATM   22  C   UNK     0     -26.807 -18.573  33.299  0.00  0.00     0.694 C 
HETATM   23  N   UNK     0     -27.246 -19.040  32.077  0.00  0.00    -0.233 N 
HETATM   24  N   UNK     0     -27.222 -19.380  34.332  0.00  0.00    -0.233 N 
HETATM   25  H   UNK     0     -27.019 -18.551  31.218  0.00  0.00     0.174 HD
HETATM   26  H   UNK     0     -27.804 -19.883  32.002  0.00  0.00     0.174 HD
HETATM   27  H   UNK     0     -27.782 -20.205  34.148  0.00  0.00     0.174 HD
HETATM   28  H   UNK     0     -27.001 -19.201  35.305  0.00  0.00     0.174 HD
ENDBRANCH  18  21
ENDBRANCH  15  16
ENDBRANCH   1  15
TORSDOF 9
ENDMDL
MODEL 2
REMARK VINA RESULT:      -5.4      2.149      2.721
REMARK  9 active torsions:
REMARK  status: ('A' for Active; 'I' for Inactive)
REMARK    1  A    between atoms: S_1  and  C_14 
REMARK    2  A    between atoms: S_1  and  C_15 
REMARK    3  A    between atoms: S_2  and  N_6 
REMARK    4  A    between atoms: S_2  and  N_10 
REMARK    5  A    between atoms: N_8  and  C_16 
REMARK    6  A    between atoms: N_9  and  C_19 
REMARK       I    between atoms: N_11  and  C_20 
REMARK       I    between atoms: N_12  and  C_20 
REMARK    7  A    between atoms: C_13  and  C_14 
REMARK    8  A    between atoms: C_13  and  C_16 
REMARK    9  A    between atoms: C_15  and  C_17 
ROOT
HETATM    1  S   UNK     0     -22.181 -17.159  38.604  0.00  0.00    -0.163 SA
ENDROOT
BRANCH   1   2
HETATM    2  C   UNK     0     -21.145 -16.904  37.131  0.00  0.00     0.082 C 
BRANCH   2   3
HETATM    3  C   UNK     0     -21.042 -15.432  36.744  0.00  0.00     0.089 C 
BRANCH   3   4
HETATM    4  C   UNK     0     -21.846 -15.102  35.489  0.00  0.00     0.113 C 
HETATM    5  N   UNK     0     -22.108 -16.102  34.701  0.00  0.00    -0.133 NA
BRANCH   5   6
HETATM    6  S   UNK     0     -22.952 -15.894  33.317  0.00  0.00     0.339 S 
HETATM    7  O   UNK     0     -24.019 -14.937  33.561  0.00  0.00    -0.181 OA
HETATM    8  O   UNK     0     -23.281 -17.199  32.768  0.00  0.00    -0.181 OA
BRANCH   6   9
HETATM    9  N   UNK     0     -21.882 -15.149  32.191  0.00  0.00    -0.310 N 
HETATM   10  H   UNK     0     -21.408 -15.777  31.530  0.00  0.00     0.170 HD
HETATM   11  H   UNK     0     -21.253 -14.429  32.567  0.00  0.00     0.170 HD
ENDBRANCH   6   9
ENDBRANCH   5   6
BRANCH   4  12
HETATM   12  N   UNK     0     -22.197 -13.781  35.331  0.00  0.00    -0.387 N 
HETATM   13  H   UNK     0     -22.030 -13.095  36.060  0.00  0.00     0.157 HD
HETATM   14  H   UNK     0     -22.642 -13.446  34.483  0.00  0.00     0.157 HD
ENDBRANCH   4  12
ENDBRANCH   3   4
ENDBRANCH   2   3
ENDBRANCH   1   2
BRANCH   1  15
HETATM   15  C   UNK     0     -22.851 -18.780  38.172  0.00  0.00     0.133 C 
BRANCH  15  16
HETATM   16  C   UNK     0     -23.938 -18.670  37.154  0.00  0.00     0.053 A 
HETATM   17  N   UNK     0     -24.994 -17.837  37.433  0.00  0.00    -0.226 NA
HETATM   18  C   UNK     0     -25.832 -17.883  36.421  0.00  0.00     0.211 A 
HETATM   19  S   UNK     0     -25.398 -18.906  35.114  0.00  0.00    -0.059 SA
HETATM   20  C   UNK     0     -23.968 -19.335  35.957  0.00  0.00     0.081 A 
BRANCH  18  21
HETATM   21  N   UNK     0     -26.998 -17.195  36.325  0.00  0.00    -0.039 NA
HETATM   22  C   UNK     0     -26.927 -15.897  36.140  0.00  0.00     0.694 C 
HETATM   23  N   UNK     0     -27.970 -15.003  36.014  0.00  0.00    -0.233 N 
HETATM   24  N   UNK     0     -25.705 -15.272  36.050  0.00  0.00    -0.233 N 
HETATM   25  H   UNK     0     -28.935 -15.314  36.060  0.00  0.00     0.174 HD
HETATM   26  H   UNK     0     -27.804 -14.013  35.873  0.00  0.00     0.174 HD
HETATM   27  H   UNK     0     -25.650 -14.271  35.906  0.00  0.00     0.174 HD
HETATM   28  H   UNK     0     -24.821 -15.762  36.117  0.00  0.00     0.174 HD
ENDBRANCH  18  21
ENDBRANCH  15  16
ENDBRANCH   1  15
TORSDOF 9
ENDMDL
MODEL 3
REMARK VINA RESULT:      -5.3      3.586      5.118
REMARK  9 active torsions:
REMARK  status: ('A' for Active; 'I' for Inactive)
REMARK    1  A    between atoms: S_1  and  C_14 
REMARK    2  A    between atoms: S_1  and  C_15 
REMARK    3  A    between atoms: S_2  and  N_6 
REMARK    4  A    between atoms: S_2  and  N_10 
REMARK    5  A    between atoms: N_8  and  C_16 
REMARK    6  A    between atoms: N_9  and  C_19 
REMARK       I    between atoms: N_11  and  C_20 
REMARK       I    between atoms: N_12  and  C_20 
REMARK    7  A    between atoms: C_13  and  C_14 
REMARK    8  A    between atoms: C_13  and  C_16 
REMARK    9  A    between atoms: C_15  and  C_17 
ROOT
HETATM    1  S   UNK     0     -27.038 -16.627  34.246  0.00  0.00    -0.163 SA
ENDROOT
BRANCH   1   2
HETATM    2  C   UNK     0     -25.998 -17.763  35.214  0.00  0.00     0.082 C 
BRANCH   2   3
HETATM    3  C   UNK     0     -24.862 -18.354  34.386  0.00  0.00     0.089 C 
BRANCH   3   4
HETATM    4  C   UNK     0     -23.644 -17.436  34.329  0.00  0.00     0.113 C 
HETATM    5  N   UNK     0     -23.362 -16.795  35.424  0.00  0.00    -0.133 NA
BRANCH   5   6
HETATM    6  S   UNK     0     -22.091 -15.771  35.506  0.00  0.00     0.339 S 
HETATM    7  O   UNK     0     -22.080 -15.145  36.818  0.00  0.00    -0.181 OA
HETATM    8  O   UNK     0     -22.089 -14.932  34.319  0.00  0.00    -0.181 OA
BRANCH   6   9
HETATM    9  N   UNK     0     -20.668 -16.738  35.419  0.00  0.00    -0.310 N 
HETATM   10  H   UNK     0     -20.158 -16.719  34.526  0.00  0.00     0.170 HD
HETATM   11  H   UNK     0     -20.735 -17.686  35.812  0.00  0.00     0.170 HD
ENDBRANCH   6   9
ENDBRANCH   5   6
BRANCH   4  12
HETATM   12  N   UNK     0     -22.985 -17.386  33.122  0.00  0.00    -0.387 N 
HETATM   13  H   UNK     0     -22.615 -16.515  32.753  0.00  0.00     0.157 HD
HETATM   14  H   UNK     0     -22.850 -18.215  32.554  0.00  0.00     0.157 HD
ENDBRANCH   4  12
ENDBRANCH   3   4
ENDBRANCH   2   3
ENDBRANCH   1   2
BRANCH   1  15
HETATM   15  C   UNK     0     -26.934 -17.474  32.654  0.00  0.00     0.133 C 
BRANCH  15  16
HETATM   16  C   UNK     0     -26.726 -16.509  31.533  0.00  0.00     0.053 A 
HETATM   17  N   UNK     0     -27.734 -16.372  30.611  0.00  0.00    -0.226 NA
HETATM   18  C   UNK     0     -27.356 -15.485  29.717  0.00  0.00     0.211 A 
HETATM   19  S   UNK     0     -25.803 -14.789  29.939  0.00  0.00    -0.059 SA
HETATM   20  C   UNK     0     -25.604 -15.745  31.349  0.00  0.00     0.081 A 
BRANCH  18  21
HETATM   21  N   UNK     0     -28.083 -15.079  28.645  0.00  0.00    -0.039 NA
HETATM   22  C   UNK     0     -28.201 -15.912  27.638  0.00  0.00     0.694 C 
HETATM   23  N   UNK     0     -28.885 -15.718  26.455  0.00  0.00    -0.233 N 
HETATM   24  N   UNK     0     -27.602 -17.149  27.683  0.00  0.00    -0.233 N 
HETATM   25  H   UNK     0     -29.380 -14.851  26.273  0.00  0.00     0.174 HD
HETATM   26  H   UNK     0     -28.913 -16.432  25.737  0.00  0.00     0.174 HD
HETATM   27  H   UNK     0     -27.693 -17.794  26.907  0.00  0.00     0.174 HD
HETATM   28  H   UNK     0     -27.055 -17.477  28.471  0.00  0.00     0.174 HD
ENDBRANCH  18  21
ENDBRANCH  15  16
ENDBRANCH   1  15
TORSDOF 9
ENDMDL
