MODEL 1
REMARK VINA RESULT:      -6.2      0.000      0.000
REMARK  9 active torsions:
REMARK  status: ('A' for Active; 'I' for Inactive)
REMARK    1  A    between atoms: S_1  and  C_14 
REMARK    2  A    between atoms: S_1  and  C_15 
REMARK    3  A    between atoms: S_2  and  N_6 
REMARK    4  A    between atoms: S_2  and  N_10 
REMARK    5  A    between atoms: N_8  and  C_16 
REMARK    6  A    between atoms: N_9  and  C_19 
REMARK       I    between atoms: N_11  and  C_20 
REMARK       I    between atoms: N_12  and  C_20 
REMARK    7  A    between atoms: C_13  and  C_14 
REMARK    8  A    between atoms: C_13  and  C_16 
REMARK    9  A    between atoms: C_15  and  C_17 
ROOT
HETATM    1  S   UNK     0     -38.295  48.353  16.982  0.00  0.00    -0.163 SA
ENDROOT
BRANCH   1   2
HETATM    2  C   UNK     0     -39.815  47.497  16.466  0.00  0.00     0.082 C 
BRANCH   2   3
HETATM    3  C   UNK     0     -40.970  48.464  16.227  0.00  0.00     0.089 C 
BRANCH   3   4
HETATM    4  C   UNK     0     -41.438  48.464  14.774  0.00  0.00     0.113 C 
HETATM    5  N   UNK     0     -41.151  49.527  14.083  0.00  0.00    -0.133 NA
BRANCH   5   6
HETATM    6  S   UNK     0     -41.598  49.669  12.518  0.00  0.00     0.339 S 
HETATM    7  O   UNK     0     -41.403  48.387  11.859  0.00  0.00    -0.181 OA
HETATM    8  O   UNK     0     -40.975  50.856  11.958  0.00  0.00    -0.181 OA
BRANCH   6   9
HETATM    9  N   UNK     0     -43.295  49.962  12.511  0.00  0.00    -0.310 N 
HETATM   10  H   UNK     0     -43.864  49.358  13.118  0.00  0.00     0.170 HD
HETATM   11  H   UNK     0     -43.730  50.112  11.592  0.00  0.00     0.170 HD
ENDBRANCH   6   9
ENDBRANCH   5   6
BRANCH   4  12
HETATM   12  N   UNK     0     -42.118  47.341  14.362  0.00  0.00    -0.387 N 
HETATM   13  H   UNK     0     -42.711  46.815  14.996  0.00  0.00     0.157 HD
HETATM   14  H   UNK     0     -42.045  46.993  13.412  0.00  0.00     0.157 HD
ENDBRANCH   4  12
ENDBRANCH   3   4
ENDBRANCH   2   3
ENDBRANCH   1   2
BRANCH   1  15
HETATM   15  C   UNK     0     -37.829  49.044  15.379  0.00  0.00     0.133 C 
BRANCH  15  16
HETATM   16  C   UNK     0     -37.357  50.455  15.508  0.00  0.00     0.053 A 
HETATM   17  N   UNK     0     -36.065  50.662  15.922  0.00  0.00    -0.226 NA
HETATM   18  C   UNK     0     -35.851  51.958  15.970  0.00  0.00     0.211 A 
HETATM   19  S   UNK     0     -37.166  52.968  15.527  0.00  0.00    -0.059 SA
HETATM   20  C   UNK     0     -38.113  51.567  15.244  0.00  0.00     0.081 A 
BRANCH  18  21
HETATM   21  N   UNK     0     -34.689  52.558  16.336  0.00  0.00    -0.039 NA
HETATM   22  C   UNK     0     -33.677  52.486  15.503  0.00  0.00     0.694 C 
HETATM   23  N   UNK     0     -32.413  53.016  15.660  0.00  0.00    -0.233 N 
HETATM   24  N   UNK     0     -33.807  51.824  14.305  0.00  0.00    -0.233 N 
HETATM   25  H   UNK     0     -32.163  53.534  16.496  0.00  0.00     0.174 HD
HETATM   26  H   UNK     0     -31.699  52.902  14.950  0.00  0.00     0.174 HD
HETATM   27  H   UNK     0     -33.027  51.769  13.660  0.00  0.00     0.174 HD
HETATM   28  H   UNK     0     -34.662  51.369  14.007  0.00  0.00     0.174 HD
ENDBRANCH  18  21
ENDBRANCH  15  16
ENDBRANCH   1  15
TORSDOF 9
ENDMDL
MODEL 2
REMARK VINA RESULT:      -6.1      4.262      5.223
REMARK  9 active torsions:
REMARK  status: ('A' for Active; 'I' for Inactive)
REMARK    1  A    between atoms: S_1  and  C_14 
REMARK    2  A    between atoms: S_1  and  C_15 
REMARK    3  A    between atoms: S_2  and  N_6 
REMARK    4  A    between atoms: S_2  and  N_10 
REMARK    5  A    between atoms: N_8  and  C_16 
REMARK    6  A    between atoms: N_9  and  C_19 
REMARK       I    between atoms: N_11  and  C_20 
REMARK       I    between atoms: N_12  and  C_20 
REMARK    7  A    between atoms: C_13  and  C_14 
REMARK    8  A    between atoms: C_13  and  C_16 
REMARK    9  A    between atoms: C_15  and  C_17 
ROOT
HETATM    1  S   UNK     0     -41.303  48.173  15.365  0.00  0.00    -0.163 SA
ENDROOT
BRANCH   1   2
HETATM    2  C   UNK     0     -42.791  48.698  16.270  0.00  0.00     0.082 C 
BRANCH   2   3
HETATM    3  C   UNK     0     -42.453  49.384  17.589  0.00  0.00     0.089 C 
BRANCH   3   4
HETATM    4  C   UNK     0     -42.040  48.392  18.673  0.00  0.00     0.113 C 
HETATM    5  N   UNK     0     -41.118  48.797  19.495  0.00  0.00    -0.133 NA
BRANCH   5   6
HETATM    6  S   UNK     0     -40.572  47.836  20.698  0.00  0.00     0.339 S 
HETATM    7  O   UNK     0     -39.782  46.763  20.116  0.00  0.00    -0.181 OA
HETATM    8  O   UNK     0     -41.683  47.505  21.574  0.00  0.00    -0.181 OA
BRANCH   6   9
HETATM    9  N   UNK     0     -39.481  48.785  21.635  0.00  0.00    -0.310 N 
HETATM   10  H   UNK     0     -38.600  48.331  21.907  0.00  0.00     0.170 HD
HETATM   11  H   UNK     0     -39.894  49.329  22.404  0.00  0.00     0.170 HD
ENDBRANCH   6   9
ENDBRANCH   5   6
BRANCH   4  12
HETATM   12  N   UNK     0     -42.686  47.177  18.653  0.00  0.00    -0.387 N 
HETATM   13  H   UNK     0     -43.696  47.110  18.729  0.00  0.00     0.157 HD
HETATM   14  H   UNK     0     -42.176  46.305  18.567  0.00  0.00     0.157 HD
ENDBRANCH   4  12
ENDBRANCH   3   4
ENDBRANCH   2   3
ENDBRANCH   1   2
BRANCH   1  15
HETATM   15  C   UNK     0     -40.806  49.787  14.724  0.00  0.00     0.133 C 
BRANCH  15  16
HETATM   16  C   UNK     0     -39.440  50.166  15.195  0.00  0.00     0.053 A 
HETATM   17  N   UNK     0     -38.866  51.289  14.653  0.00  0.00    -0.226 NA
HETATM   18  C   UNK     0     -37.678  51.446  15.194  0.00  0.00     0.211 A 
HETATM   19  S   UNK     0     -37.206  50.275  16.357  0.00  0.00    -0.059 SA
HETATM   20  C   UNK     0     -38.709  49.481  16.129  0.00  0.00     0.081 A 
BRANCH  18  21
HETATM   21  N   UNK     0     -36.803  52.446  14.914  0.00  0.00    -0.039 NA
HETATM   22  C   UNK     0     -37.056  53.634  15.410  0.00  0.00     0.694 C 
HETATM   23  N   UNK     0     -36.316  54.789  15.260  0.00  0.00    -0.233 N 
HETATM   24  N   UNK     0     -38.173  53.842  16.186  0.00  0.00    -0.233 N 
HETATM   25  H   UNK     0     -35.462  54.795  14.712  0.00  0.00     0.174 HD
HETATM   26  H   UNK     0     -36.602  55.661  15.689  0.00  0.00     0.174 HD
HETATM   27  H   UNK     0     -38.368  54.758  16.571  0.00  0.00     0.174 HD
HETATM   28  H   UNK     0     -38.840  53.114  16.411  0.00  0.00     0.174 HD
ENDBRANCH  18  21
ENDBRANCH  15  16
ENDBRANCH   1  15
TORSDOF 9
ENDMDL
MODEL 3
REMARK VINA RESULT:      -6.0      4.509      7.348
REMARK  9 active torsions:
REMARK  status: ('A' for Active; 'I' for Inactive)
REMARK    1  A    between atoms: S_1  and  C_14 
REMARK    2  A    between atoms: S_1  and  C_15 
REMARK    3  A    between atoms: S_2  and  N_6 
REMARK    4  A    between atoms: S_2  and  N_10 
REMARK    5  A    between atoms: N_8  and  C_16 
REMARK    6  A    between atoms: N_9  and  C_19 
REMARK       I    between atoms: N_11  and  C_20 
REMARK       I    between atoms: N_12  and  C_20 
REMARK    7  A    between atoms: C_13  and  C_14 
REMARK    8  A    between atoms: C_13  and  C_16 
REMARK    9  A    between atoms: C_15  and  C_17 
ROOT
HETATM    1  S   UNK     0     -39.151  49.883  15.227  0.00  0.00    -0.163 SA
ENDROOT
BRANCH   1   2
HETATM    2  C   UNK     0     -38.343  51.512  15.251  0.00  0.00     0.082 C 
BRANCH   2   3
HETATM    3  C   UNK     0     -37.094  51.551  14.375  0.00  0.00     0.089 C 
BRANCH   3   4
HETATM    4  C   UNK     0     -35.922  52.246  15.062  0.00  0.00     0.113 C 
HETATM    5  N   UNK     0     -34.835  51.544  15.184  0.00  0.00    -0.133 NA
BRANCH   5   6
HETATM    6  S   UNK     0     -33.505  52.157  15.907  0.00  0.00     0.339 S 
HETATM    7  O   UNK     0     -33.808  52.406  17.308  0.00  0.00    -0.181 OA
HETATM    8  O   UNK     0     -32.985  53.242  15.090  0.00  0.00    -0.181 OA
BRANCH   6   9
HETATM    9  N   UNK     0     -32.310  50.917  15.884  0.00  0.00    -0.310 N 
HETATM   10  H   UNK     0     -31.430  51.141  15.401  0.00  0.00     0.170 HD
HETATM   11  H   UNK     0     -32.642  49.967  15.671  0.00  0.00     0.170 HD
ENDBRANCH   6   9
ENDBRANCH   5   6
BRANCH   4  12
HETATM   12  N   UNK     0     -36.152  53.536  15.482  0.00  0.00    -0.387 N 
HETATM   13  H   UNK     0     -35.536  54.299  15.218  0.00  0.00     0.157 HD
HETATM   14  H   UNK     0     -36.940  53.771  16.075  0.00  0.00     0.157 HD
ENDBRANCH   4  12
ENDBRANCH   3   4
ENDBRANCH   2   3
ENDBRANCH   1   2
BRANCH   1  15
HETATM   15  C   UNK     0     -38.027  49.020  16.348  0.00  0.00     0.133 C 
BRANCH  15  16
HETATM   16  C   UNK     0     -38.742  48.516  17.559  0.00  0.00     0.053 A 
HETATM   17  N   UNK     0     -38.092  48.600  18.766  0.00  0.00    -0.226 NA
HETATM   18  C   UNK     0     -38.884  48.108  19.694  0.00  0.00     0.211 A 
HETATM   19  S   UNK     0     -40.413  47.534  19.169  0.00  0.00    -0.059 SA
HETATM   20  C   UNK     0     -39.999  47.973  17.564  0.00  0.00     0.081 A 
BRANCH  18  21
HETATM   21  N   UNK     0     -38.595  48.017  21.017  0.00  0.00    -0.039 NA
HETATM   22  C   UNK     0     -37.645  47.186  21.378  0.00  0.00     0.694 C 
HETATM   23  N   UNK     0     -37.184  46.930  22.653  0.00  0.00    -0.233 N 
HETATM   24  N   UNK     0     -36.977  46.441  20.435  0.00  0.00    -0.233 N 
HETATM   25  H   UNK     0     -37.581  47.405  23.457  0.00  0.00     0.174 HD
HETATM   26  H   UNK     0     -36.440  46.264  22.823  0.00  0.00     0.174 HD
HETATM   27  H   UNK     0     -36.242  45.800  20.712  0.00  0.00     0.174 HD
HETATM   28  H   UNK     0     -37.172  46.490  19.442  0.00  0.00     0.174 HD
ENDBRANCH  18  21
ENDBRANCH  15  16
ENDBRANCH   1  15
TORSDOF 9
ENDMDL
