MODEL 1
REMARK VINA RESULT:      -5.7      0.000      0.000
REMARK  9 active torsions:
REMARK  status: ('A' for Active; 'I' for Inactive)
REMARK    1  A    between atoms: S_1  and  C_14 
REMARK    2  A    between atoms: S_1  and  C_15 
REMARK    3  A    between atoms: S_2  and  N_6 
REMARK    4  A    between atoms: S_2  and  N_10 
REMARK    5  A    between atoms: N_8  and  C_16 
REMARK    6  A    between atoms: N_9  and  C_19 
REMARK       I    between atoms: N_11  and  C_20 
REMARK       I    between atoms: N_12  and  C_20 
REMARK    7  A    between atoms: C_13  and  C_14 
REMARK    8  A    between atoms: C_13  and  C_16 
REMARK    9  A    between atoms: C_15  and  C_17 
ROOT
HETATM    1  S   UNK     0     -34.839 -55.617   7.362  0.00  0.00    -0.163 SA
ENDROOT
BRANCH   1   2
HETATM    2  C   UNK     0     -34.110 -54.996   5.815  0.00  0.00     0.082 C 
BRANCH   2   3
HETATM    3  C   UNK     0     -33.193 -56.021   5.157  0.00  0.00     0.089 C 
BRANCH   3   4
HETATM    4  C   UNK     0     -31.800 -55.462   4.877  0.00  0.00     0.113 C 
HETATM    5  N   UNK     0     -31.660 -54.814   3.759  0.00  0.00    -0.133 NA
BRANCH   5   6
HETATM    6  S   UNK     0     -30.223 -54.169   3.326  0.00  0.00     0.339 S 
HETATM    7  O   UNK     0     -29.335 -55.244   2.911  0.00  0.00    -0.181 OA
HETATM    8  O   UNK     0     -29.789 -53.252   4.367  0.00  0.00    -0.181 OA
BRANCH   6   9
HETATM    9  N   UNK     0     -30.510 -53.212   1.924  0.00  0.00    -0.310 N 
HETATM   10  H   UNK     0     -29.929 -52.370   1.820  0.00  0.00     0.170 HD
HETATM   11  H   UNK     0     -31.495 -53.038   1.683  0.00  0.00     0.170 HD
ENDBRANCH   6   9
ENDBRANCH   5   6
BRANCH   4  12
HETATM   12  N   UNK     0     -30.848 -55.713   5.839  0.00  0.00    -0.387 N 
HETATM   13  H   UNK     0     -31.104 -56.011   6.775  0.00  0.00     0.157 HD
HETATM   14  H   UNK     0     -29.858 -55.603   5.649  0.00  0.00     0.157 HD
ENDBRANCH   4  12
ENDBRANCH   3   4
ENDBRANCH   2   3
ENDBRANCH   1   2
BRANCH   1  15
HETATM   15  C   UNK     0     -33.416 -55.353   8.443  0.00  0.00     0.133 C 
BRANCH  15  16
HETATM   16  C   UNK     0     -32.721 -56.637   8.757  0.00  0.00     0.053 A 
HETATM   17  N   UNK     0     -31.349 -56.640   8.743  0.00  0.00    -0.226 NA
HETATM   18  C   UNK     0     -30.938 -57.853   9.042  0.00  0.00     0.211 A 
HETATM   19  S   UNK     0     -32.157 -59.021   9.348  0.00  0.00    -0.059 SA
HETATM   20  C   UNK     0     -33.345 -57.818   9.060  0.00  0.00     0.081 A 
BRANCH  18  21
HETATM   21  N   UNK     0     -29.644 -58.254   9.128  0.00  0.00    -0.039 NA
HETATM   22  C   UNK     0     -28.895 -57.703  10.054  0.00  0.00     0.694 C 
HETATM   23  N   UNK     0     -27.565 -57.951  10.326  0.00  0.00    -0.233 N 
HETATM   24  N   UNK     0     -29.419 -56.754  10.901  0.00  0.00    -0.233 N 
HETATM   25  H   UNK     0     -27.038 -58.629   9.785  0.00  0.00     0.174 HD
HETATM   26  H   UNK     0     -27.077 -57.467  11.071  0.00  0.00     0.174 HD
HETATM   27  H   UNK     0     -28.843 -56.329  11.618  0.00  0.00     0.174 HD
HETATM   28  H   UNK     0     -30.381 -56.438  10.859  0.00  0.00     0.174 HD
ENDBRANCH  18  21
ENDBRANCH  15  16
ENDBRANCH   1  15
TORSDOF 9
ENDMDL
MODEL 2
REMARK VINA RESULT:      -5.7      3.158      5.720
REMARK  9 active torsions:
REMARK  status: ('A' for Active; 'I' for Inactive)
REMARK    1  A    between atoms: S_1  and  C_14 
REMARK    2  A    between atoms: S_1  and  C_15 
REMARK    3  A    between atoms: S_2  and  N_6 
REMARK    4  A    between atoms: S_2  and  N_10 
REMARK    5  A    between atoms: N_8  and  C_16 
REMARK    6  A    between atoms: N_9  and  C_19 
REMARK       I    between atoms: N_11  and  C_20 
REMARK       I    between atoms: N_12  and  C_20 
REMARK    7  A    between atoms: C_13  and  C_14 
REMARK    8  A    between atoms: C_13  and  C_16 
REMARK    9  A    between atoms: C_15  and  C_17 
ROOT
HETATM    1  S   UNK     0     -35.471 -57.499   6.611  0.00  0.00    -0.163 SA
ENDROOT
BRANCH   1   2
HETATM    2  C   UNK     0     -35.042 -57.495   8.378  0.00  0.00     0.082 C 
BRANCH   2   3
HETATM    3  C   UNK     0     -33.926 -58.482   8.705  0.00  0.00     0.089 C 
BRANCH   3   4
HETATM    4  C   UNK     0     -32.741 -57.812   9.395  0.00  0.00     0.113 C 
HETATM    5  N   UNK     0     -31.839 -58.612   9.882  0.00  0.00    -0.133 NA
BRANCH   5   6
HETATM    6  S   UNK     0     -30.521 -58.034  10.655  0.00  0.00     0.339 S 
HETATM    7  O   UNK     0     -29.929 -56.981   9.845  0.00  0.00    -0.181 OA
HETATM    8  O   UNK     0     -29.696 -59.154  11.076  0.00  0.00    -0.181 OA
BRANCH   6   9
HETATM    9  N   UNK     0     -31.082 -57.276  12.096  0.00  0.00    -0.310 N 
HETATM   10  H   UNK     0     -31.998 -57.586  12.447  0.00  0.00     0.170 HD
HETATM   11  H   UNK     0     -30.968 -56.256  12.151  0.00  0.00     0.170 HD
ENDBRANCH   6   9
ENDBRANCH   5   6
BRANCH   4  12
HETATM   12  N   UNK     0     -32.764 -56.436   9.428  0.00  0.00    -0.387 N 
HETATM   13  H   UNK     0     -32.152 -55.909  10.042  0.00  0.00     0.157 HD
HETATM   14  H   UNK     0     -33.397 -55.900   8.845  0.00  0.00     0.157 HD
ENDBRANCH   4  12
ENDBRANCH   3   4
ENDBRANCH   2   3
ENDBRANCH   1   2
BRANCH   1  15
HETATM   15  C   UNK     0     -35.339 -55.723   6.308  0.00  0.00     0.133 C 
BRANCH  15  16
HETATM   16  C   UNK     0     -34.023 -55.368   5.697  0.00  0.00     0.053 A 
HETATM   17  N   UNK     0     -32.998 -55.023   6.543  0.00  0.00    -0.226 NA
HETATM   18  C   UNK     0     -31.939 -54.749   5.814  0.00  0.00     0.211 A 
HETATM   19  S   UNK     0     -32.121 -54.891   4.114  0.00  0.00    -0.059 SA
HETATM   20  C   UNK     0     -33.754 -55.359   4.354  0.00  0.00     0.081 A 
BRANCH  18  21
HETATM   21  N   UNK     0     -30.726 -54.367   6.290  0.00  0.00    -0.039 NA
HETATM   22  C   UNK     0     -29.981 -55.281   6.866  0.00  0.00     0.694 C 
HETATM   23  N   UNK     0     -28.726 -55.126   7.417  0.00  0.00    -0.233 N 
HETATM   24  N   UNK     0     -30.430 -56.577   6.975  0.00  0.00    -0.233 N 
HETATM   25  H   UNK     0     -28.261 -54.225   7.413  0.00  0.00     0.174 HD
HETATM   26  H   UNK     0     -28.234 -55.904   7.840  0.00  0.00     0.174 HD
HETATM   27  H   UNK     0     -29.855 -57.284   7.418  0.00  0.00     0.174 HD
HETATM   28  H   UNK     0     -31.329 -56.888   6.628  0.00  0.00     0.174 HD
ENDBRANCH  18  21
ENDBRANCH  15  16
ENDBRANCH   1  15
TORSDOF 9
ENDMDL
MODEL 3
REMARK VINA RESULT:      -5.5      2.327      2.853
REMARK  9 active torsions:
REMARK  status: ('A' for Active; 'I' for Inactive)
REMARK    1  A    between atoms: S_1  and  C_14 
REMARK    2  A    between atoms: S_1  and  C_15 
REMARK    3  A    between atoms: S_2  and  N_6 
REMARK    4  A    between atoms: S_2  and  N_10 
REMARK    5  A    between atoms: N_8  and  C_16 
REMARK    6  A    between atoms: N_9  and  C_19 
REMARK       I    between atoms: N_11  and  C_20 
REMARK       I    between atoms: N_12  and  C_20 
REMARK    7  A    between atoms: C_13  and  C_14 
REMARK    8  A    between atoms: C_13  and  C_16 
REMARK    9  A    between atoms: C_15  and  C_17 
ROOT
HETATM    1  S   UNK     0     -35.190 -58.065   7.904  0.00  0.00    -0.163 SA
ENDROOT
BRANCH   1   2
HETATM    2  C   UNK     0     -34.836 -57.143   6.377  0.00  0.00     0.082 C 
BRANCH   2   3
HETATM    3  C   UNK     0     -34.663 -55.649   6.630  0.00  0.00     0.089 C 
BRANCH   3   4
HETATM    4  C   UNK     0     -33.200 -55.256   6.817  0.00  0.00     0.113 C 
HETATM    5  N   UNK     0     -32.513 -55.083   5.728  0.00  0.00    -0.133 NA
BRANCH   5   6
HETATM    6  S   UNK     0     -30.933 -54.670   5.778  0.00  0.00     0.339 S 
HETATM    7  O   UNK     0     -30.254 -55.535   6.729  0.00  0.00    -0.181 OA
HETATM    8  O   UNK     0     -30.831 -53.228   5.932  0.00  0.00    -0.181 OA
BRANCH   6   9
HETATM    9  N   UNK     0     -30.273 -55.041   4.231  0.00  0.00    -0.310 N 
HETATM   10  H   UNK     0     -29.544 -55.764   4.208  0.00  0.00     0.170 HD
HETATM   11  H   UNK     0     -30.048 -54.240   3.626  0.00  0.00     0.170 HD
ENDBRANCH   6   9
ENDBRANCH   5   6
BRANCH   4  12
HETATM   12  N   UNK     0     -32.773 -55.134   8.120  0.00  0.00    -0.387 N 
HETATM   13  H   UNK     0     -33.301 -54.605   8.806  0.00  0.00     0.157 HD
HETATM   14  H   UNK     0     -31.912 -55.564   8.440  0.00  0.00     0.157 HD
ENDBRANCH   4  12
ENDBRANCH   3   4
ENDBRANCH   2   3
ENDBRANCH   1   2
BRANCH   1  15
HETATM   15  C   UNK     0     -33.938 -59.355   7.724  0.00  0.00     0.133 C 
BRANCH  15  16
HETATM   16  C   UNK     0     -32.638 -58.947   8.337  0.00  0.00     0.053 A 
HETATM   17  N   UNK     0     -32.566 -58.898   9.707  0.00  0.00    -0.226 NA
HETATM   18  C   UNK     0     -31.351 -58.520  10.041  0.00  0.00     0.211 A 
HETATM   19  S   UNK     0     -30.263 -58.214   8.749  0.00  0.00    -0.059 SA
HETATM   20  C   UNK     0     -31.507 -58.616   7.639  0.00  0.00     0.081 A 
BRANCH  18  21
HETATM   21  N   UNK     0     -30.891 -58.355  11.307  0.00  0.00    -0.039 NA
HETATM   22  C   UNK     0     -31.479 -57.450  12.055  0.00  0.00     0.694 C 
HETATM   23  N   UNK     0     -31.185 -57.111  13.360  0.00  0.00    -0.233 N 
HETATM   24  N   UNK     0     -32.523 -56.706  11.558  0.00  0.00    -0.233 N 
HETATM   25  H   UNK     0     -30.437 -57.574  13.865  0.00  0.00     0.174 HD
HETATM   26  H   UNK     0     -31.705 -56.393  13.850  0.00  0.00     0.174 HD
HETATM   27  H   UNK     0     -32.978 -56.009  12.135  0.00  0.00     0.174 HD
HETATM   28  H   UNK     0     -32.886 -56.810  10.618  0.00  0.00     0.174 HD
ENDBRANCH  18  21
ENDBRANCH  15  16
ENDBRANCH   1  15
TORSDOF 9
ENDMDL
