MODEL 1
REMARK VINA RESULT:      -5.7      0.000      0.000
REMARK  9 active torsions:
REMARK  status: ('A' for Active; 'I' for Inactive)
REMARK    1  A    between atoms: S_1  and  C_14 
REMARK    2  A    between atoms: S_1  and  C_15 
REMARK    3  A    between atoms: S_2  and  N_6 
REMARK    4  A    between atoms: S_2  and  N_10 
REMARK    5  A    between atoms: N_8  and  C_16 
REMARK    6  A    between atoms: N_9  and  C_19 
REMARK       I    between atoms: N_11  and  C_20 
REMARK       I    between atoms: N_12  and  C_20 
REMARK    7  A    between atoms: C_13  and  C_14 
REMARK    8  A    between atoms: C_13  and  C_16 
REMARK    9  A    between atoms: C_15  and  C_17 
ROOT
HETATM    1  S   UNK     0      40.990  11.012  11.117  0.00  0.00    -0.163 SA
ENDROOT
BRANCH   1   2
HETATM    2  C   UNK     0      39.487  10.000  10.958  0.00  0.00     0.082 C 
BRANCH   2   3
HETATM    3  C   UNK     0      39.786   8.506  11.030  0.00  0.00     0.089 C 
BRANCH   3   4
HETATM    4  C   UNK     0      39.319   7.759   9.784  0.00  0.00     0.113 C 
HETATM    5  N   UNK     0      39.943   8.045   8.681  0.00  0.00    -0.133 NA
BRANCH   5   6
HETATM    6  S   UNK     0      39.543   7.328   7.268  0.00  0.00     0.339 S 
HETATM    7  O   UNK     0      38.228   7.798   6.862  0.00  0.00    -0.181 OA
HETATM    8  O   UNK     0      39.781   5.899   7.385  0.00  0.00    -0.181 OA
BRANCH   6   9
HETATM    9  N   UNK     0      40.651   7.909   6.084  0.00  0.00    -0.310 N 
HETATM   10  H   UNK     0      40.604   8.914   5.871  0.00  0.00     0.170 HD
HETATM   11  H   UNK     0      40.759   7.335   5.239  0.00  0.00     0.170 HD
ENDBRANCH   6   9
ENDBRANCH   5   6
BRANCH   4  12
HETATM   12  N   UNK     0      38.285   6.869   9.969  0.00  0.00    -0.387 N 
HETATM   13  H   UNK     0      37.827   6.416   9.185  0.00  0.00     0.157 HD
HETATM   14  H   UNK     0      37.940   6.640  10.894  0.00  0.00     0.157 HD
ENDBRANCH   4  12
ENDBRANCH   3   4
ENDBRANCH   2   3
ENDBRANCH   1   2
BRANCH   1  15
HETATM   15  C   UNK     0      40.253  12.626  10.773  0.00  0.00     0.133 C 
BRANCH  15  16
HETATM   16  C   UNK     0      40.219  13.484  11.996  0.00  0.00     0.053 A 
HETATM   17  N   UNK     0      39.024  14.070  12.332  0.00  0.00    -0.226 NA
HETATM   18  C   UNK     0      39.206  14.775  13.426  0.00  0.00     0.211 A 
HETATM   19  S   UNK     0      40.790  14.767  14.087  0.00  0.00    -0.059 SA
HETATM   20  C   UNK     0      41.290  13.735  12.812  0.00  0.00     0.081 A 
BRANCH  18  21
HETATM   21  N   UNK     0      38.257  15.502  14.069  0.00  0.00    -0.039 NA
HETATM   22  C   UNK     0      37.367  14.849  14.780  0.00  0.00     0.694 C 
HETATM   23  N   UNK     0      36.321  15.372  15.512  0.00  0.00    -0.233 N 
HETATM   24  N   UNK     0      37.410  13.477  14.860  0.00  0.00    -0.233 N 
HETATM   25  H   UNK     0      36.157  16.372  15.551  0.00  0.00     0.174 HD
HETATM   26  H   UNK     0      35.687  14.774  16.030  0.00  0.00     0.174 HD
HETATM   27  H   UNK     0      36.725  12.972  15.410  0.00  0.00     0.174 HD
HETATM   28  H   UNK     0      38.108  12.911  14.391  0.00  0.00     0.174 HD
ENDBRANCH  18  21
ENDBRANCH  15  16
ENDBRANCH   1  15
TORSDOF 9
ENDMDL
MODEL 2
REMARK VINA RESULT:      -5.4     15.636     17.904
REMARK  9 active torsions:
REMARK  status: ('A' for Active; 'I' for Inactive)
REMARK    1  A    between atoms: S_1  and  C_14 
REMARK    2  A    between atoms: S_1  and  C_15 
REMARK    3  A    between atoms: S_2  and  N_6 
REMARK    4  A    between atoms: S_2  and  N_10 
REMARK    5  A    between atoms: N_8  and  C_16 
REMARK    6  A    between atoms: N_9  and  C_19 
REMARK       I    between atoms: N_11  and  C_20 
REMARK       I    between atoms: N_12  and  C_20 
REMARK    7  A    between atoms: C_13  and  C_14 
REMARK    8  A    between atoms: C_13  and  C_16 
REMARK    9  A    between atoms: C_15  and  C_17 
ROOT
HETATM    1  S   UNK     0      31.967  15.412  -0.093  0.00  0.00    -0.163 SA
ENDROOT
BRANCH   1   2
HETATM    2  C   UNK     0      32.672  17.085   0.011  0.00  0.00     0.082 C 
BRANCH   2   3
HETATM    3  C   UNK     0      31.705  18.082   0.642  0.00  0.00     0.089 C 
BRANCH   3   4
HETATM    4  C   UNK     0      32.323  18.826   1.822  0.00  0.00     0.113 C 
HETATM    5  N   UNK     0      31.495  19.231   2.738  0.00  0.00    -0.133 NA
BRANCH   5   6
HETATM    6  S   UNK     0      32.017  20.049   4.053  0.00  0.00     0.339 S 
HETATM    7  O   UNK     0      30.866  20.414   4.863  0.00  0.00    -0.181 OA
HETATM    8  O   UNK     0      32.939  21.087   3.622  0.00  0.00    -0.181 OA
BRANCH   6   9
HETATM    9  N   UNK     0      32.939  18.941   4.994  0.00  0.00    -0.310 N 
HETATM   10  H   UNK     0      33.376  19.319   5.845  0.00  0.00     0.170 HD
HETATM   11  H   UNK     0      33.570  18.315   4.476  0.00  0.00     0.170 HD
ENDBRANCH   6   9
ENDBRANCH   5   6
BRANCH   4  12
HETATM   12  N   UNK     0      33.689  18.991   1.779  0.00  0.00    -0.387 N 
HETATM   13  H   UNK     0      34.272  18.821   2.593  0.00  0.00     0.157 HD
HETATM   14  H   UNK     0      34.163  19.294   0.935  0.00  0.00     0.157 HD
ENDBRANCH   4  12
ENDBRANCH   3   4
ENDBRANCH   2   3
ENDBRANCH   1   2
BRANCH   1  15
HETATM   15  C   UNK     0      30.459  15.821  -0.999  0.00  0.00     0.133 C 
BRANCH  15  16
HETATM   16  C   UNK     0      30.476  15.248  -2.378  0.00  0.00     0.053 A 
HETATM   17  N   UNK     0      31.089  15.977  -3.365  0.00  0.00    -0.226 NA
HETATM   18  C   UNK     0      30.995  15.305  -4.492  0.00  0.00     0.211 A 
HETATM   19  S   UNK     0      30.182  13.796  -4.416  0.00  0.00    -0.059 SA
HETATM   20  C   UNK     0      29.926  14.047  -2.739  0.00  0.00     0.081 A 
BRANCH  18  21
HETATM   21  N   UNK     0      31.483  15.701  -5.695  0.00  0.00    -0.039 NA
HETATM   22  C   UNK     0      30.763  16.545  -6.397  0.00  0.00     0.694 C 
HETATM   23  N   UNK     0      31.054  17.081  -7.634  0.00  0.00    -0.233 N 
HETATM   24  N   UNK     0      29.559  17.002  -5.914  0.00  0.00    -0.233 N 
HETATM   25  H   UNK     0      31.910  16.837  -8.121  0.00  0.00     0.174 HD
HETATM   26  H   UNK     0      30.424  17.729  -8.092  0.00  0.00     0.174 HD
HETATM   27  H   UNK     0      29.003  17.655  -6.454  0.00  0.00     0.174 HD
HETATM   28  H   UNK     0      29.173  16.724  -5.019  0.00  0.00     0.174 HD
ENDBRANCH  18  21
ENDBRANCH  15  16
ENDBRANCH   1  15
TORSDOF 9
ENDMDL
MODEL 3
REMARK VINA RESULT:      -5.4     15.223     17.173
REMARK  9 active torsions:
REMARK  status: ('A' for Active; 'I' for Inactive)
REMARK    1  A    between atoms: S_1  and  C_14 
REMARK    2  A    between atoms: S_1  and  C_15 
REMARK    3  A    between atoms: S_2  and  N_6 
REMARK    4  A    between atoms: S_2  and  N_10 
REMARK    5  A    between atoms: N_8  and  C_16 
REMARK    6  A    between atoms: N_9  and  C_19 
REMARK       I    between atoms: N_11  and  C_20 
REMARK       I    between atoms: N_12  and  C_20 
REMARK    7  A    between atoms: C_13  and  C_14 
REMARK    8  A    between atoms: C_13  and  C_16 
REMARK    9  A    between atoms: C_15  and  C_17 
ROOT
HETATM    1  S   UNK     0      32.304  15.903   0.070  0.00  0.00    -0.163 SA
ENDROOT
BRANCH   1   2
HETATM    2  C   UNK     0      33.472  17.241   0.464  0.00  0.00     0.082 C 
BRANCH   2   3
HETATM    3  C   UNK     0      32.777  18.591   0.608  0.00  0.00     0.089 C 
BRANCH   3   4
HETATM    4  C   UNK     0      32.963  19.196   1.997  0.00  0.00     0.113 C 
HETATM    5  N   UNK     0      31.883  19.336   2.707  0.00  0.00    -0.133 NA
BRANCH   5   6
HETATM    6  S   UNK     0      31.932  19.979   4.208  0.00  0.00     0.339 S 
HETATM    7  O   UNK     0      30.590  19.962   4.767  0.00  0.00    -0.181 OA
HETATM    8  O   UNK     0      32.664  21.234   4.157  0.00  0.00    -0.181 OA
BRANCH   6   9
HETATM    9  N   UNK     0      32.872  18.909   5.177  0.00  0.00    -0.310 N 
HETATM   10  H   UNK     0      32.417  18.031   5.458  0.00  0.00     0.170 HD
HETATM   11  H   UNK     0      33.405  19.337   5.945  0.00  0.00     0.170 HD
ENDBRANCH   6   9
ENDBRANCH   5   6
BRANCH   4  12
HETATM   12  N   UNK     0      34.254  19.531   2.338  0.00  0.00    -0.387 N 
HETATM   13  H   UNK     0      34.633  19.322   3.256  0.00  0.00     0.157 HD
HETATM   14  H   UNK     0      34.871  20.005   1.687  0.00  0.00     0.157 HD
ENDBRANCH   4  12
ENDBRANCH   3   4
ENDBRANCH   2   3
ENDBRANCH   1   2
BRANCH   1  15
HETATM   15  C   UNK     0      33.112  15.285  -1.423  0.00  0.00     0.133 C 
BRANCH  15  16
HETATM   16  C   UNK     0      32.132  15.079  -2.531  0.00  0.00     0.053 A 
HETATM   17  N   UNK     0      31.169  16.039  -2.719  0.00  0.00    -0.226 NA
HETATM   18  C   UNK     0      30.415  15.672  -3.732  0.00  0.00     0.211 A 
HETATM   19  S   UNK     0      30.822  14.188  -4.490  0.00  0.00    -0.059 SA
HETATM   20  C   UNK     0      32.116  14.004  -3.380  0.00  0.00     0.081 A 
BRANCH  18  21
HETATM   21  N   UNK     0      29.354  16.363  -4.222  0.00  0.00    -0.039 NA
HETATM   22  C   UNK     0      28.325  16.544  -3.428  0.00  0.00     0.694 C 
HETATM   23  N   UNK     0      27.148  17.208  -3.707  0.00  0.00    -0.233 N 
HETATM   24  N   UNK     0      28.338  16.046  -2.146  0.00  0.00    -0.233 N 
HETATM   25  H   UNK     0      26.989  17.632  -4.615  0.00  0.00     0.174 HD
HETATM   26  H   UNK     0      26.411  17.292  -3.016  0.00  0.00     0.174 HD
HETATM   27  H   UNK     0      27.545  16.186  -1.532  0.00  0.00     0.174 HD
HETATM   28  H   UNK     0      29.116  15.528  -1.756  0.00  0.00     0.174 HD
ENDBRANCH  18  21
ENDBRANCH  15  16
ENDBRANCH   1  15
TORSDOF 9
ENDMDL
