MODEL 1
REMARK VINA RESULT:      -4.8      0.000      0.000
REMARK  9 active torsions:
REMARK  status: ('A' for Active; 'I' for Inactive)
REMARK    1  A    between atoms: S_1  and  C_14 
REMARK    2  A    between atoms: S_1  and  C_15 
REMARK    3  A    between atoms: S_2  and  N_6 
REMARK    4  A    between atoms: S_2  and  N_10 
REMARK    5  A    between atoms: N_8  and  C_16 
REMARK    6  A    between atoms: N_9  and  C_19 
REMARK       I    between atoms: N_11  and  C_20 
REMARK       I    between atoms: N_12  and  C_20 
REMARK    7  A    between atoms: C_13  and  C_14 
REMARK    8  A    between atoms: C_13  and  C_16 
REMARK    9  A    between atoms: C_15  and  C_17 
ROOT
HETATM    1  S   UNK     0      20.831  28.119  36.710  0.00  0.00    -0.163 SA
ENDROOT
BRANCH   1   2
HETATM    2  C   UNK     0      19.405  27.841  35.616  0.00  0.00     0.082 C 
BRANCH   2   3
HETATM    3  C   UNK     0      19.672  26.751  34.583  0.00  0.00     0.089 C 
BRANCH   3   4
HETATM    4  C   UNK     0      20.690  27.183  33.531  0.00  0.00     0.113 C 
HETATM    5  N   UNK     0      21.508  26.260  33.118  0.00  0.00    -0.133 NA
BRANCH   5   6
HETATM    6  S   UNK     0      22.656  26.583  32.000  0.00  0.00     0.339 S 
HETATM    7  O   UNK     0      22.090  27.462  30.990  0.00  0.00    -0.181 OA
HETATM    8  O   UNK     0      23.273  25.333  31.589  0.00  0.00    -0.181 OA
BRANCH   6   9
HETATM    9  N   UNK     0      23.884  27.490  32.798  0.00  0.00    -0.310 N 
HETATM   10  H   UNK     0      23.596  28.393  33.196  0.00  0.00     0.170 HD
HETATM   11  H   UNK     0      24.793  27.545  32.322  0.00  0.00     0.170 HD
ENDBRANCH   6   9
ENDBRANCH   5   6
BRANCH   4  12
HETATM   12  N   UNK     0      20.632  28.502  33.144  0.00  0.00    -0.387 N 
HETATM   13  H   UNK     0      20.963  29.249  33.747  0.00  0.00     0.157 HD
HETATM   14  H   UNK     0      20.250  28.777  32.246  0.00  0.00     0.157 HD
ENDBRANCH   4  12
ENDBRANCH   3   4
ENDBRANCH   2   3
ENDBRANCH   1   2
BRANCH   1  15
HETATM   15  C   UNK     0      20.740  26.579  37.650  0.00  0.00     0.133 C 
BRANCH  15  16
HETATM   16  C   UNK     0      22.014  25.804  37.556  0.00  0.00     0.053 A 
HETATM   17  N   UNK     0      22.800  25.999  36.448  0.00  0.00    -0.226 NA
HETATM   18  C   UNK     0      23.862  25.232  36.558  0.00  0.00     0.211 A 
HETATM   19  S   UNK     0      23.962  24.261  37.969  0.00  0.00    -0.059 SA
HETATM   20  C   UNK     0      22.463  24.910  38.491  0.00  0.00     0.081 A 
BRANCH  18  21
HETATM   21  N   UNK     0      24.874  25.144  35.657  0.00  0.00    -0.039 NA
HETATM   22  C   UNK     0      24.663  24.442  34.569  0.00  0.00     0.694 C 
HETATM   23  N   UNK     0      25.536  24.216  33.525  0.00  0.00    -0.233 N 
HETATM   24  N   UNK     0      23.452  23.823  34.364  0.00  0.00    -0.233 N 
HETATM   25  H   UNK     0      26.472  24.608  33.531  0.00  0.00     0.174 HD
HETATM   26  H   UNK     0      25.271  23.653  32.725  0.00  0.00     0.174 HD
HETATM   27  H   UNK     0      23.287  23.281  33.523  0.00  0.00     0.174 HD
HETATM   28  H   UNK     0      22.680  23.873  35.018  0.00  0.00     0.174 HD
ENDBRANCH  18  21
ENDBRANCH  15  16
ENDBRANCH   1  15
TORSDOF 9
ENDMDL
MODEL 2
REMARK VINA RESULT:      -4.8     22.478     24.511
REMARK  9 active torsions:
REMARK  status: ('A' for Active; 'I' for Inactive)
REMARK    1  A    between atoms: S_1  and  C_14 
REMARK    2  A    between atoms: S_1  and  C_15 
REMARK    3  A    between atoms: S_2  and  N_6 
REMARK    4  A    between atoms: S_2  and  N_10 
REMARK    5  A    between atoms: N_8  and  C_16 
REMARK    6  A    between atoms: N_9  and  C_19 
REMARK       I    between atoms: N_11  and  C_20 
REMARK       I    between atoms: N_12  and  C_20 
REMARK    7  A    between atoms: C_13  and  C_14 
REMARK    8  A    between atoms: C_13  and  C_16 
REMARK    9  A    between atoms: C_15  and  C_17 
ROOT
HETATM    1  S   UNK     0      41.980  22.500  42.718  0.00  0.00    -0.163 SA
ENDROOT
BRANCH   1   2
HETATM    2  C   UNK     0      43.172  21.820  43.911  0.00  0.00     0.082 C 
BRANCH   2   3
HETATM    3  C   UNK     0      44.172  22.867  44.390  0.00  0.00     0.089 C 
BRANCH   3   4
HETATM    4  C   UNK     0      45.591  22.583  43.904  0.00  0.00     0.113 C 
HETATM    5  N   UNK     0      46.466  23.519  44.121  0.00  0.00    -0.133 NA
BRANCH   5   6
HETATM    6  S   UNK     0      48.021  23.354  43.646  0.00  0.00     0.339 S 
HETATM    7  O   UNK     0      48.078  23.442  42.196  0.00  0.00    -0.181 OA
HETATM    8  O   UNK     0      48.593  22.194  44.310  0.00  0.00    -0.181 OA
BRANCH   6   9
HETATM    9  N   UNK     0      48.872  24.726  44.248  0.00  0.00    -0.310 N 
HETATM   10  H   UNK     0      48.982  25.515  43.598  0.00  0.00     0.170 HD
HETATM   11  H   UNK     0      49.731  24.534  44.778  0.00  0.00     0.170 HD
ENDBRANCH   6   9
ENDBRANCH   5   6
BRANCH   4  12
HETATM   12  N   UNK     0      45.782  21.368  43.285  0.00  0.00    -0.387 N 
HETATM   13  H   UNK     0      46.126  20.560  43.794  0.00  0.00     0.157 HD
HETATM   14  H   UNK     0      45.592  21.239  42.297  0.00  0.00     0.157 HD
ENDBRANCH   4  12
ENDBRANCH   3   4
ENDBRANCH   2   3
ENDBRANCH   1   2
BRANCH   1  15
HETATM   15  C   UNK     0      42.878  22.108  41.201  0.00  0.00     0.133 C 
BRANCH  15  16
HETATM   16  C   UNK     0      43.235  23.343  40.441  0.00  0.00     0.053 A 
HETATM   17  N   UNK     0      43.635  24.442  41.159  0.00  0.00    -0.226 NA
HETATM   18  C   UNK     0      43.900  25.412  40.312  0.00  0.00     0.211 A 
HETATM   19  S   UNK     0      43.685  25.055  38.648  0.00  0.00    -0.059 SA
HETATM   20  C   UNK     0      43.195  23.469  39.077  0.00  0.00     0.081 A 
BRANCH  18  21
HETATM   21  N   UNK     0      44.324  26.659  40.641  0.00  0.00    -0.039 NA
HETATM   22  C   UNK     0      45.494  26.771  41.225  0.00  0.00     0.694 C 
HETATM   23  N   UNK     0      46.124  27.925  41.645  0.00  0.00    -0.233 N 
HETATM   24  N   UNK     0      46.252  25.653  41.487  0.00  0.00    -0.233 N 
HETATM   25  H   UNK     0      45.689  28.833  41.521  0.00  0.00     0.174 HD
HETATM   26  H   UNK     0      47.035  27.899  42.088  0.00  0.00     0.174 HD
HETATM   27  H   UNK     0      47.156  25.737  41.936  0.00  0.00     0.174 HD
HETATM   28  H   UNK     0      45.959  24.712  41.251  0.00  0.00     0.174 HD
ENDBRANCH  18  21
ENDBRANCH  15  16
ENDBRANCH   1  15
TORSDOF 9
ENDMDL
MODEL 3
REMARK VINA RESULT:      -4.8      2.371      4.355
REMARK  9 active torsions:
REMARK  status: ('A' for Active; 'I' for Inactive)
REMARK    1  A    between atoms: S_1  and  C_14 
REMARK    2  A    between atoms: S_1  and  C_15 
REMARK    3  A    between atoms: S_2  and  N_6 
REMARK    4  A    between atoms: S_2  and  N_10 
REMARK    5  A    between atoms: N_8  and  C_16 
REMARK    6  A    between atoms: N_9  and  C_19 
REMARK       I    between atoms: N_11  and  C_20 
REMARK       I    between atoms: N_12  and  C_20 
REMARK    7  A    between atoms: C_13  and  C_14 
REMARK    8  A    between atoms: C_13  and  C_16 
REMARK    9  A    between atoms: C_15  and  C_17 
ROOT
HETATM    1  S   UNK     0      22.444  28.437  38.524  0.00  0.00    -0.163 SA
ENDROOT
BRANCH   1   2
HETATM    2  C   UNK     0      23.765  28.693  37.299  0.00  0.00     0.082 C 
BRANCH   2   3
HETATM    3  C   UNK     0      24.444  27.387  36.901  0.00  0.00     0.089 C 
BRANCH   3   4
HETATM    4  C   UNK     0      24.140  26.988  35.459  0.00  0.00     0.113 C 
HETATM    5  N   UNK     0      24.943  27.465  34.555  0.00  0.00    -0.133 NA
BRANCH   5   6
HETATM    6  S   UNK     0      24.731  27.128  32.970  0.00  0.00     0.339 S 
HETATM    7  O   UNK     0      23.455  27.679  32.542  0.00  0.00    -0.181 OA
HETATM    8  O   UNK     0      25.005  25.718  32.750  0.00  0.00    -0.181 OA
BRANCH   6   9
HETATM    9  N   UNK     0      25.945  27.998  32.111  0.00  0.00    -0.310 N 
HETATM   10  H   UNK     0      26.919  27.791  32.366  0.00  0.00     0.170 HD
HETATM   11  H   UNK     0      25.780  29.004  31.981  0.00  0.00     0.170 HD
ENDBRANCH   6   9
ENDBRANCH   5   6
BRANCH   4  12
HETATM   12  N   UNK     0      23.045  26.174  35.280  0.00  0.00    -0.387 N 
HETATM   13  H   UNK     0      22.549  26.136  34.394  0.00  0.00     0.157 HD
HETATM   14  H   UNK     0      22.690  25.587  36.026  0.00  0.00     0.157 HD
ENDBRANCH   4  12
ENDBRANCH   3   4
ENDBRANCH   2   3
ENDBRANCH   1   2
BRANCH   1  15
HETATM   15  C   UNK     0      21.209  29.545  37.809  0.00  0.00     0.133 C 
BRANCH  15  16
HETATM   16  C   UNK     0      20.234  28.802  36.957  0.00  0.00     0.053 A 
HETATM   17  N   UNK     0      20.735  28.004  35.958  0.00  0.00    -0.226 NA
HETATM   18  C   UNK     0      19.724  27.445  35.332  0.00  0.00     0.211 A 
HETATM   19  S   UNK     0      18.155  27.843  35.903  0.00  0.00    -0.059 SA
HETATM   20  C   UNK     0      18.872  28.851  37.092  0.00  0.00     0.081 A 
BRANCH  18  21
HETATM   21  N   UNK     0      19.816  26.588  34.283  0.00  0.00    -0.039 NA
HETATM   22  C   UNK     0      20.268  27.063  33.146  0.00  0.00     0.694 C 
HETATM   23  N   UNK     0      20.446  26.386  31.957  0.00  0.00    -0.233 N 
HETATM   24  N   UNK     0      20.633  28.385  33.039  0.00  0.00    -0.233 N 
HETATM   25  H   UNK     0      20.221  25.400  31.878  0.00  0.00     0.174 HD
HETATM   26  H   UNK     0      20.805  26.851  31.131  0.00  0.00     0.174 HD
HETATM   27  H   UNK     0      20.984  28.752  32.162  0.00  0.00     0.174 HD
HETATM   28  H   UNK     0      20.575  29.045  33.806  0.00  0.00     0.174 HD
ENDBRANCH  18  21
ENDBRANCH  15  16
ENDBRANCH   1  15
TORSDOF 9
ENDMDL
