MODEL 1
REMARK VINA RESULT:      -7.3      0.000      0.000
REMARK  9 active torsions:
REMARK  status: ('A' for Active; 'I' for Inactive)
REMARK    1  A    between atoms: S_1  and  C_14 
REMARK    2  A    between atoms: S_1  and  C_15 
REMARK    3  A    between atoms: S_2  and  N_6 
REMARK    4  A    between atoms: S_2  and  N_10 
REMARK    5  A    between atoms: N_8  and  C_16 
REMARK    6  A    between atoms: N_9  and  C_19 
REMARK       I    between atoms: N_11  and  C_20 
REMARK       I    between atoms: N_12  and  C_20 
REMARK    7  A    between atoms: C_13  and  C_14 
REMARK    8  A    between atoms: C_13  and  C_16 
REMARK    9  A    between atoms: C_15  and  C_17 
ROOT
HETATM    1  S   UNK     0     165.813  -7.072 340.988  0.00  0.00    -0.163 SA
ENDROOT
BRANCH   1   2
HETATM    2  C   UNK     0     167.462  -7.739 341.369  0.00  0.00     0.082 C 
BRANCH   2   3
HETATM    3  C   UNK     0     168.445  -6.649 341.781  0.00  0.00     0.089 C 
BRANCH   3   4
HETATM    4  C   UNK     0     168.157  -6.102 343.176  0.00  0.00     0.113 C 
HETATM    5  N   UNK     0     168.053  -4.810 343.271  0.00  0.00    -0.133 NA
BRANCH   5   6
HETATM    6  S   UNK     0     167.755  -4.086 344.706  0.00  0.00     0.339 S 
HETATM    7  O   UNK     0     166.776  -4.876 345.433  0.00  0.00    -0.181 OA
HETATM    8  O   UNK     0     167.497  -2.674 344.473  0.00  0.00    -0.181 OA
BRANCH   6   9
HETATM    9  N   UNK     0     169.216  -4.168 345.616  0.00  0.00    -0.310 N 
HETATM   10  H   UNK     0     169.122  -4.439 346.603  0.00  0.00     0.170 HD
HETATM   11  H   UNK     0     169.880  -3.394 345.484  0.00  0.00     0.170 HD
ENDBRANCH   6   9
ENDBRANCH   5   6
BRANCH   4  12
HETATM   12  N   UNK     0     168.045  -7.039 344.178  0.00  0.00    -0.387 N 
HETATM   13  H   UNK     0     167.148  -7.436 344.438  0.00  0.00     0.157 HD
HETATM   14  H   UNK     0     168.854  -7.363 344.696  0.00  0.00     0.157 HD
ENDBRANCH   4  12
ENDBRANCH   3   4
ENDBRANCH   2   3
ENDBRANCH   1   2
BRANCH   1  15
HETATM   15  C   UNK     0     166.332  -5.553 340.160  0.00  0.00     0.133 C 
BRANCH  15  16
HETATM   16  C   UNK     0     165.532  -4.378 340.619  0.00  0.00     0.053 A 
HETATM   17  N   UNK     0     164.247  -4.607 341.043  0.00  0.00    -0.226 NA
HETATM   18  C   UNK     0     163.721  -3.456 341.400  0.00  0.00     0.211 A 
HETATM   19  S   UNK     0     164.726  -2.074 341.245  0.00  0.00    -0.059 SA
HETATM   20  C   UNK     0     165.979  -3.084 340.650  0.00  0.00     0.081 A 
BRANCH  18  21
HETATM   21  N   UNK     0     162.463  -3.272 341.875  0.00  0.00    -0.039 NA
HETATM   22  C   UNK     0     161.497  -3.116 341.000  0.00  0.00     0.694 C 
HETATM   23  N   UNK     0     160.154  -2.917 341.248  0.00  0.00    -0.233 N 
HETATM   24  N   UNK     0     161.768  -3.143 339.652  0.00  0.00    -0.233 N 
HETATM   25  H   UNK     0     159.798  -2.874 342.197  0.00  0.00     0.174 HD
HETATM   26  H   UNK     0     159.487  -2.809 340.493  0.00  0.00     0.174 HD
HETATM   27  H   UNK     0     161.023  -3.025 338.975  0.00  0.00     0.174 HD
HETATM   28  H   UNK     0     162.697  -3.279 339.271  0.00  0.00     0.174 HD
ENDBRANCH  18  21
ENDBRANCH  15  16
ENDBRANCH   1  15
TORSDOF 9
ENDMDL
MODEL 2
REMARK VINA RESULT:      -6.9      3.253      4.544
REMARK  9 active torsions:
REMARK  status: ('A' for Active; 'I' for Inactive)
REMARK    1  A    between atoms: S_1  and  C_14 
REMARK    2  A    between atoms: S_1  and  C_15 
REMARK    3  A    between atoms: S_2  and  N_6 
REMARK    4  A    between atoms: S_2  and  N_10 
REMARK    5  A    between atoms: N_8  and  C_16 
REMARK    6  A    between atoms: N_9  and  C_19 
REMARK       I    between atoms: N_11  and  C_20 
REMARK       I    between atoms: N_12  and  C_20 
REMARK    7  A    between atoms: C_13  and  C_14 
REMARK    8  A    between atoms: C_13  and  C_16 
REMARK    9  A    between atoms: C_15  and  C_17 
ROOT
HETATM    1  S   UNK     0     166.308  -6.125 339.901  0.00  0.00    -0.163 SA
ENDROOT
BRANCH   1   2
HETATM    2  C   UNK     0     167.525  -7.313 340.546  0.00  0.00     0.082 C 
BRANCH   2   3
HETATM    3  C   UNK     0     168.471  -6.678 341.559  0.00  0.00     0.089 C 
BRANCH   3   4
HETATM    4  C   UNK     0     168.406  -7.359 342.924  0.00  0.00     0.113 C 
HETATM    5  N   UNK     0     168.180  -8.639 342.911  0.00  0.00    -0.133 NA
BRANCH   5   6
HETATM    6  S   UNK     0     168.074  -9.496 344.299  0.00  0.00     0.339 S 
HETATM    7  O   UNK     0     166.959  -8.985 345.079  0.00  0.00    -0.181 OA
HETATM    8  O   UNK     0     169.393  -9.567 344.907  0.00  0.00    -0.181 OA
BRANCH   6   9
HETATM    9  N   UNK     0     167.656 -11.107 343.857  0.00  0.00    -0.310 N 
HETATM   10  H   UNK     0     168.439 -11.736 343.633  0.00  0.00     0.170 HD
HETATM   11  H   UNK     0     166.872 -11.212 343.201  0.00  0.00     0.170 HD
ENDBRANCH   6   9
ENDBRANCH   5   6
BRANCH   4  12
HETATM   12  N   UNK     0     168.588  -6.539 344.014  0.00  0.00    -0.387 N 
HETATM   13  H   UNK     0     168.709  -5.536 343.911  0.00  0.00     0.157 HD
HETATM   14  H   UNK     0     168.614  -6.907 344.958  0.00  0.00     0.157 HD
ENDBRANCH   4  12
ENDBRANCH   3   4
ENDBRANCH   2   3
ENDBRANCH   1   2
BRANCH   1  15
HETATM   15  C   UNK     0     164.972  -6.463 341.068  0.00  0.00     0.133 C 
BRANCH  15  16
HETATM   16  C   UNK     0     164.809  -5.350 342.052  0.00  0.00     0.053 A 
HETATM   17  N   UNK     0     165.809  -5.160 342.973  0.00  0.00    -0.226 NA
HETATM   18  C   UNK     0     165.476  -4.143 343.737  0.00  0.00     0.211 A 
HETATM   19  S   UNK     0     163.976  -3.384 343.390  0.00  0.00    -0.059 SA
HETATM   20  C   UNK     0     163.737  -4.499 342.109  0.00  0.00     0.081 A 
BRANCH  18  21
HETATM   21  N   UNK     0     166.211  -3.649 344.766  0.00  0.00    -0.039 NA
HETATM   22  C   UNK     0     167.393  -3.152 344.487  0.00  0.00     0.694 C 
HETATM   23  N   UNK     0     168.307  -2.600 345.362  0.00  0.00    -0.233 N 
HETATM   24  N   UNK     0     167.856  -3.140 343.192  0.00  0.00    -0.233 N 
HETATM   25  H   UNK     0     168.109  -2.539 346.355  0.00  0.00     0.174 HD
HETATM   26  H   UNK     0     169.199  -2.243 345.040  0.00  0.00     0.174 HD
HETATM   27  H   UNK     0     168.768  -2.755 342.975  0.00  0.00     0.174 HD
HETATM   28  H   UNK     0     167.328  -3.501 342.406  0.00  0.00     0.174 HD
ENDBRANCH  18  21
ENDBRANCH  15  16
ENDBRANCH   1  15
TORSDOF 9
ENDMDL
MODEL 3
REMARK VINA RESULT:      -6.7      2.360      2.983
REMARK  9 active torsions:
REMARK  status: ('A' for Active; 'I' for Inactive)
REMARK    1  A    between atoms: S_1  and  C_14 
REMARK    2  A    between atoms: S_1  and  C_15 
REMARK    3  A    between atoms: S_2  and  N_6 
REMARK    4  A    between atoms: S_2  and  N_10 
REMARK    5  A    between atoms: N_8  and  C_16 
REMARK    6  A    between atoms: N_9  and  C_19 
REMARK       I    between atoms: N_11  and  C_20 
REMARK       I    between atoms: N_12  and  C_20 
REMARK    7  A    between atoms: C_13  and  C_14 
REMARK    8  A    between atoms: C_13  and  C_16 
REMARK    9  A    between atoms: C_15  and  C_17 
ROOT
HETATM    1  S   UNK     0     166.380  -6.243 339.846  0.00  0.00    -0.163 SA
ENDROOT
BRANCH   1   2
HETATM    2  C   UNK     0     167.696  -7.223 340.631  0.00  0.00     0.082 C 
BRANCH   2   3
HETATM    3  C   UNK     0     168.392  -6.461 341.754  0.00  0.00     0.089 C 
BRANCH   3   4
HETATM    4  C   UNK     0     168.395  -7.234 343.069  0.00  0.00     0.113 C 
HETATM    5  N   UNK     0     168.162  -8.510 342.980  0.00  0.00    -0.133 NA
BRANCH   5   6
HETATM    6  S   UNK     0     168.125  -9.461 344.309  0.00  0.00     0.339 S 
HETATM    7  O   UNK     0     167.033  -9.025 345.164  0.00  0.00    -0.181 OA
HETATM    8  O   UNK     0     169.468  -9.547 344.860  0.00  0.00    -0.181 OA
BRANCH   6   9
HETATM    9  N   UNK     0     167.717 -11.046 343.774  0.00  0.00    -0.310 N 
HETATM   10  H   UNK     0     168.287 -11.815 344.150  0.00  0.00     0.170 HD
HETATM   11  H   UNK     0     167.529 -11.155 342.769  0.00  0.00     0.170 HD
ENDBRANCH   6   9
ENDBRANCH   5   6
BRANCH   4  12
HETATM   12  N   UNK     0     168.638  -6.492 344.202  0.00  0.00    -0.387 N 
HETATM   13  H   UNK     0     168.653  -5.477 344.180  0.00  0.00     0.157 HD
HETATM   14  H   UNK     0     168.817  -6.931 345.098  0.00  0.00     0.157 HD
ENDBRANCH   4  12
ENDBRANCH   3   4
ENDBRANCH   2   3
ENDBRANCH   1   2
BRANCH   1  15
HETATM   15  C   UNK     0     165.489  -5.760 341.342  0.00  0.00     0.133 C 
BRANCH  15  16
HETATM   16  C   UNK     0     165.026  -4.341 341.268  0.00  0.00     0.053 A 
HETATM   17  N   UNK     0     163.743  -4.066 341.673  0.00  0.00    -0.226 NA
HETATM   18  C   UNK     0     163.535  -2.776 341.531  0.00  0.00     0.211 A 
HETATM   19  S   UNK     0     164.845  -1.853 340.917  0.00  0.00    -0.059 SA
HETATM   20  C   UNK     0     165.781  -3.287 340.827  0.00  0.00     0.081 A 
BRANCH  18  21
HETATM   21  N   UNK     0     162.384  -2.121 341.826  0.00  0.00    -0.039 NA
HETATM   22  C   UNK     0     161.365  -2.281 341.014  0.00  0.00     0.694 C 
HETATM   23  N   UNK     0     160.108  -1.720 341.111  0.00  0.00    -0.233 N 
HETATM   24  N   UNK     0     161.479  -3.089 339.906  0.00  0.00    -0.233 N 
HETATM   25  H   UNK     0     159.871  -1.099 341.877  0.00  0.00     0.174 HD
HETATM   26  H   UNK     0     159.389  -1.912 340.424  0.00  0.00     0.174 HD
HETATM   27  H   UNK     0     160.693  -3.214 339.279  0.00  0.00     0.174 HD
HETATM   28  H   UNK     0     162.325  -3.589 339.664  0.00  0.00     0.174 HD
ENDBRANCH  18  21
ENDBRANCH  15  16
ENDBRANCH   1  15
TORSDOF 9
ENDMDL
