MODEL 1
REMARK VINA RESULT:      -6.5      0.000      0.000
REMARK  9 active torsions:
REMARK  status: ('A' for Active; 'I' for Inactive)
REMARK    1  A    between atoms: S_1  and  C_14 
REMARK    2  A    between atoms: S_1  and  C_15 
REMARK    3  A    between atoms: S_2  and  N_6 
REMARK    4  A    between atoms: S_2  and  N_10 
REMARK    5  A    between atoms: N_8  and  C_16 
REMARK    6  A    between atoms: N_9  and  C_19 
REMARK       I    between atoms: N_11  and  C_20 
REMARK       I    between atoms: N_12  and  C_20 
REMARK    7  A    between atoms: C_13  and  C_14 
REMARK    8  A    between atoms: C_13  and  C_16 
REMARK    9  A    between atoms: C_15  and  C_17 
ROOT
HETATM    1  S   UNK     0      -9.561  27.511  -7.764  0.00  0.00    -0.163 SA
ENDROOT
BRANCH   1   2
HETATM    2  C   UNK     0     -10.039  25.777  -8.034  0.00  0.00     0.082 C 
BRANCH   2   3
HETATM    3  C   UNK     0     -10.554  25.114  -6.761  0.00  0.00     0.089 C 
BRANCH   3   4
HETATM    4  C   UNK     0     -12.053  24.832  -6.817  0.00  0.00     0.113 C 
HETATM    5  N   UNK     0     -12.409  23.774  -7.482  0.00  0.00    -0.133 NA
BRANCH   5   6
HETATM    6  S   UNK     0     -13.981  23.355  -7.634  0.00  0.00     0.339 S 
HETATM    7  O   UNK     0     -14.594  24.200  -8.646  0.00  0.00    -0.181 OA
HETATM    8  O   UNK     0     -14.577  23.287  -6.310  0.00  0.00    -0.181 OA
BRANCH   6   9
HETATM    9  N   UNK     0     -14.010  21.751  -8.261  0.00  0.00    -0.310 N 
HETATM   10  H   UNK     0     -14.884  21.226  -8.130  0.00  0.00     0.170 HD
HETATM   11  H   UNK     0     -13.177  21.175  -8.081  0.00  0.00     0.170 HD
ENDBRANCH   6   9
ENDBRANCH   5   6
BRANCH   4  12
HETATM   12  N   UNK     0     -12.859  25.735  -6.161  0.00  0.00    -0.387 N 
HETATM   13  H   UNK     0     -12.591  26.708  -6.054  0.00  0.00     0.157 HD
HETATM   14  H   UNK     0     -13.747  25.459  -5.756  0.00  0.00     0.157 HD
ENDBRANCH   4  12
ENDBRANCH   3   4
ENDBRANCH   2   3
ENDBRANCH   1   2
BRANCH   1  15
HETATM   15  C   UNK     0      -9.622  27.519  -5.958  0.00  0.00     0.133 C 
BRANCH  15  16
HETATM   16  C   UNK     0     -10.525  28.593  -5.446  0.00  0.00     0.053 A 
HETATM   17  N   UNK     0     -11.822  28.251  -5.150  0.00  0.00    -0.226 NA
HETATM   18  C   UNK     0     -12.442  29.327  -4.719  0.00  0.00     0.211 A 
HETATM   19  S   UNK     0     -11.515  30.769  -4.650  0.00  0.00    -0.059 SA
HETATM   20  C   UNK     0     -10.163  29.898  -5.245  0.00  0.00     0.081 A 
BRANCH  18  21
HETATM   21  N   UNK     0     -13.741  29.391  -4.329  0.00  0.00    -0.039 NA
HETATM   22  C   UNK     0     -13.994  29.342  -3.042  0.00  0.00     0.694 C 
HETATM   23  N   UNK     0     -15.224  29.391  -2.419  0.00  0.00    -0.233 N 
HETATM   24  N   UNK     0     -12.967  29.230  -2.134  0.00  0.00    -0.233 N 
HETATM   25  H   UNK     0     -16.080  29.473  -2.958  0.00  0.00     0.174 HD
HETATM   26  H   UNK     0     -15.309  29.345  -1.410  0.00  0.00     0.174 HD
HETATM   27  H   UNK     0     -13.161  29.193  -1.140  0.00  0.00     0.174 HD
HETATM   28  H   UNK     0     -11.990  29.181  -2.398  0.00  0.00     0.174 HD
ENDBRANCH  18  21
ENDBRANCH  15  16
ENDBRANCH   1  15
TORSDOF 9
ENDMDL
MODEL 2
REMARK VINA RESULT:      -5.7     11.377     12.456
REMARK  9 active torsions:
REMARK  status: ('A' for Active; 'I' for Inactive)
REMARK    1  A    between atoms: S_1  and  C_14 
REMARK    2  A    between atoms: S_1  and  C_15 
REMARK    3  A    between atoms: S_2  and  N_6 
REMARK    4  A    between atoms: S_2  and  N_10 
REMARK    5  A    between atoms: N_8  and  C_16 
REMARK    6  A    between atoms: N_9  and  C_19 
REMARK       I    between atoms: N_11  and  C_20 
REMARK       I    between atoms: N_12  and  C_20 
REMARK    7  A    between atoms: C_13  and  C_14 
REMARK    8  A    between atoms: C_13  and  C_16 
REMARK    9  A    between atoms: C_15  and  C_17 
ROOT
HETATM    1  S   UNK     0     -16.473  16.680 -11.201  0.00  0.00    -0.163 SA
ENDROOT
BRANCH   1   2
HETATM    2  C   UNK     0     -15.057  17.556 -11.933  0.00  0.00     0.082 C 
BRANCH   2   3
HETATM    3  C   UNK     0     -14.386  16.747 -13.038  0.00  0.00     0.089 C 
BRANCH   3   4
HETATM    4  C   UNK     0     -13.887  15.391 -12.547  0.00  0.00     0.113 C 
HETATM    5  N   UNK     0     -13.024  15.419 -11.575  0.00  0.00    -0.133 NA
BRANCH   5   6
HETATM    6  S   UNK     0     -12.398  14.043 -10.956  0.00  0.00     0.339 S 
HETATM    7  O   UNK     0     -11.930  13.209 -12.052  0.00  0.00    -0.181 OA
HETATM    8  O   UNK     0     -13.338  13.491  -9.996  0.00  0.00    -0.181 OA
BRANCH   6   9
HETATM    9  N   UNK     0     -10.997  14.494 -10.060  0.00  0.00    -0.310 N 
HETATM   10  H   UNK     0     -11.159  14.833  -9.103  0.00  0.00     0.170 HD
HETATM   11  H   UNK     0     -10.296  15.055 -10.560  0.00  0.00     0.170 HD
ENDBRANCH   6   9
ENDBRANCH   5   6
BRANCH   4  12
HETATM   12  N   UNK     0     -14.402  14.291 -13.194  0.00  0.00    -0.387 N 
HETATM   13  H   UNK     0     -14.057  13.998 -14.102  0.00  0.00     0.157 HD
HETATM   14  H   UNK     0     -15.149  13.738 -12.790  0.00  0.00     0.157 HD
ENDBRANCH   4  12
ENDBRANCH   3   4
ENDBRANCH   2   3
ENDBRANCH   1   2
BRANCH   1  15
HETATM   15  C   UNK     0     -16.926  17.911  -9.959  0.00  0.00     0.133 C 
BRANCH  15  16
HETATM   16  C   UNK     0     -16.676  17.410  -8.574  0.00  0.00     0.053 A 
HETATM   17  N   UNK     0     -15.393  17.477  -8.091  0.00  0.00    -0.226 NA
HETATM   18  C   UNK     0     -15.387  16.991  -6.870  0.00  0.00     0.211 A 
HETATM   19  S   UNK     0     -16.893  16.442  -6.257  0.00  0.00    -0.059 SA
HETATM   20  C   UNK     0     -17.629  16.885  -7.742  0.00  0.00     0.081 A 
BRANCH  18  21
HETATM   21  N   UNK     0     -14.301  16.889  -6.062  0.00  0.00    -0.039 NA
HETATM   22  C   UNK     0     -13.357  16.047  -6.413  0.00  0.00     0.694 C 
HETATM   23  N   UNK     0     -12.175  15.778  -5.754  0.00  0.00    -0.233 N 
HETATM   24  N   UNK     0     -13.480  15.302  -7.563  0.00  0.00    -0.233 N 
HETATM   25  H   UNK     0     -11.940  16.250  -4.887  0.00  0.00     0.174 HD
HETATM   26  H   UNK     0     -11.509  15.104  -6.114  0.00  0.00     0.174 HD
HETATM   27  H   UNK     0     -12.752  14.653  -7.836  0.00  0.00     0.174 HD
HETATM   28  H   UNK     0     -14.279  15.360  -8.184  0.00  0.00     0.174 HD
ENDBRANCH  18  21
ENDBRANCH  15  16
ENDBRANCH   1  15
TORSDOF 9
ENDMDL
MODEL 3
REMARK VINA RESULT:      -5.5      8.001     12.805
REMARK  9 active torsions:
REMARK  status: ('A' for Active; 'I' for Inactive)
REMARK    1  A    between atoms: S_1  and  C_14 
REMARK    2  A    between atoms: S_1  and  C_15 
REMARK    3  A    between atoms: S_2  and  N_6 
REMARK    4  A    between atoms: S_2  and  N_10 
REMARK    5  A    between atoms: N_8  and  C_16 
REMARK    6  A    between atoms: N_9  and  C_19 
REMARK       I    between atoms: N_11  and  C_20 
REMARK       I    between atoms: N_12  and  C_20 
REMARK    7  A    between atoms: C_13  and  C_14 
REMARK    8  A    between atoms: C_13  and  C_16 
REMARK    9  A    between atoms: C_15  and  C_17 
ROOT
HETATM    1  S   UNK     0     -16.412  17.517 -10.770  0.00  0.00    -0.163 SA
ENDROOT
BRANCH   1   2
HETATM    2  C   UNK     0     -15.151  18.768 -10.377  0.00  0.00     0.082 C 
BRANCH   2   3
HETATM    3  C   UNK     0     -15.540  20.156 -10.875  0.00  0.00     0.089 C 
BRANCH   3   4
HETATM    4  C   UNK     0     -14.360  21.125 -10.878  0.00  0.00     0.113 C 
HETATM    5  N   UNK     0     -13.667  21.182  -9.780  0.00  0.00    -0.133 NA
BRANCH   5   6
HETATM    6  S   UNK     0     -12.383  22.183  -9.638  0.00  0.00     0.339 S 
HETATM    7  O   UNK     0     -12.856  23.557  -9.677  0.00  0.00    -0.181 OA
HETATM    8  O   UNK     0     -11.354  21.759 -10.574  0.00  0.00    -0.181 OA
BRANCH   6   9
HETATM    9  N   UNK     0     -11.735  21.939  -8.061  0.00  0.00    -0.310 N 
HETATM   10  H   UNK     0     -12.368  22.130  -7.274  0.00  0.00     0.170 HD
HETATM   11  H   UNK     0     -10.787  22.299  -7.896  0.00  0.00     0.170 HD
ENDBRANCH   6   9
ENDBRANCH   5   6
BRANCH   4  12
HETATM   12  N   UNK     0     -14.167  21.832 -12.043  0.00  0.00    -0.387 N 
HETATM   13  H   UNK     0     -14.925  22.339 -12.489  0.00  0.00     0.157 HD
HETATM   14  H   UNK     0     -13.263  21.867 -12.501  0.00  0.00     0.157 HD
ENDBRANCH   4  12
ENDBRANCH   3   4
ENDBRANCH   2   3
ENDBRANCH   1   2
BRANCH   1  15
HETATM   15  C   UNK     0     -15.428  16.500 -11.893  0.00  0.00     0.133 C 
BRANCH  15  16
HETATM   16  C   UNK     0     -14.491  15.609 -11.146  0.00  0.00     0.053 A 
HETATM   17  N   UNK     0     -13.190  15.543 -11.580  0.00  0.00    -0.226 NA
HETATM   18  C   UNK     0     -12.537  14.713 -10.797  0.00  0.00     0.211 A 
HETATM   19  S   UNK     0     -13.438  13.989  -9.529  0.00  0.00    -0.059 SA
HETATM   20  C   UNK     0     -14.825  14.848 -10.058  0.00  0.00     0.081 A 
BRANCH  18  21
HETATM   21  N   UNK     0     -11.224  14.385 -10.907  0.00  0.00    -0.039 NA
HETATM   22  C   UNK     0     -10.897  13.464 -11.782  0.00  0.00     0.694 C 
HETATM   23  N   UNK     0      -9.639  12.974 -12.065  0.00  0.00    -0.233 N 
HETATM   24  N   UNK     0     -11.864  12.863 -12.555  0.00  0.00    -0.233 N 
HETATM   25  H   UNK     0      -8.820  13.321 -11.576  0.00  0.00     0.174 HD
HETATM   26  H   UNK     0      -9.495  12.257 -12.767  0.00  0.00     0.174 HD
HETATM   27  H   UNK     0     -11.612  12.152 -13.232  0.00  0.00     0.174 HD
HETATM   28  H   UNK     0     -12.849  13.089 -12.494  0.00  0.00     0.174 HD
ENDBRANCH  18  21
ENDBRANCH  15  16
ENDBRANCH   1  15
TORSDOF 9
ENDMDL
