MODEL 1
REMARK VINA RESULT:      -5.4      0.000      0.000
REMARK  9 active torsions:
REMARK  status: ('A' for Active; 'I' for Inactive)
REMARK    1  A    between atoms: S_1  and  C_14 
REMARK    2  A    between atoms: S_1  and  C_15 
REMARK    3  A    between atoms: S_2  and  N_6 
REMARK    4  A    between atoms: S_2  and  N_10 
REMARK    5  A    between atoms: N_8  and  C_16 
REMARK    6  A    between atoms: N_9  and  C_19 
REMARK       I    between atoms: N_11  and  C_20 
REMARK       I    between atoms: N_12  and  C_20 
REMARK    7  A    between atoms: C_13  and  C_14 
REMARK    8  A    between atoms: C_13  and  C_16 
REMARK    9  A    between atoms: C_15  and  C_17 
ROOT
HETATM    1  S   UNK     0      41.667   3.705  33.203  0.00  0.00    -0.163 SA
ENDROOT
BRANCH   1   2
HETATM    2  C   UNK     0      40.194   3.795  34.266  0.00  0.00     0.082 C 
BRANCH   2   3
HETATM    3  C   UNK     0      40.439   3.192  35.646  0.00  0.00     0.089 C 
BRANCH   3   4
HETATM    4  C   UNK     0      39.478   3.737  36.699  0.00  0.00     0.113 C 
HETATM    5  N   UNK     0      38.563   4.553  36.267  0.00  0.00    -0.133 NA
BRANCH   5   6
HETATM    6  S   UNK     0      37.473   5.221  37.285  0.00  0.00     0.339 S 
HETATM    7  O   UNK     0      38.181   6.040  38.255  0.00  0.00    -0.181 OA
HETATM    8  O   UNK     0      36.573   4.181  37.756  0.00  0.00    -0.181 OA
BRANCH   6   9
HETATM    9  N   UNK     0      36.515   6.302  36.346  0.00  0.00    -0.310 N 
HETATM   10  H   UNK     0      36.905   6.587  35.439  0.00  0.00     0.170 HD
HETATM   11  H   UNK     0      36.086   7.088  36.851  0.00  0.00     0.170 HD
ENDBRANCH   6   9
ENDBRANCH   5   6
BRANCH   4  12
HETATM   12  N   UNK     0      39.694   3.308  37.988  0.00  0.00    -0.387 N 
HETATM   13  H   UNK     0      38.977   2.817  38.513  0.00  0.00     0.157 HD
HETATM   14  H   UNK     0      40.574   3.472  38.464  0.00  0.00     0.157 HD
ENDBRANCH   4  12
ENDBRANCH   3   4
ENDBRANCH   2   3
ENDBRANCH   1   2
BRANCH   1  15
HETATM   15  C   UNK     0      41.067   2.467  32.033  0.00  0.00     0.133 C 
BRANCH  15  16
HETATM   16  C   UNK     0      41.286   2.898  30.619  0.00  0.00     0.053 A 
HETATM   17  N   UNK     0      40.270   2.686  29.721  0.00  0.00    -0.226 NA
HETATM   18  C   UNK     0      40.659   3.131  28.547  0.00  0.00     0.211 A 
HETATM   19  S   UNK     0      42.232   3.812  28.470  0.00  0.00    -0.059 SA
HETATM   20  C   UNK     0      42.425   3.492  30.144  0.00  0.00     0.081 A 
BRANCH  18  21
HETATM   21  N   UNK     0      39.929   3.096  27.404  0.00  0.00    -0.039 NA
HETATM   22  C   UNK     0      38.892   3.897  27.318  0.00  0.00     0.694 C 
HETATM   23  N   UNK     0      38.014   4.034  26.263  0.00  0.00    -0.233 N 
HETATM   24  N   UNK     0      38.572   4.736  28.360  0.00  0.00    -0.233 N 
HETATM   25  H   UNK     0      38.119   3.481  25.419  0.00  0.00     0.174 HD
HETATM   26  H   UNK     0      37.240   4.688  26.299  0.00  0.00     0.174 HD
HETATM   27  H   UNK     0      37.774   5.356  28.294  0.00  0.00     0.174 HD
HETATM   28  H   UNK     0      39.101   4.782  29.223  0.00  0.00     0.174 HD
ENDBRANCH  18  21
ENDBRANCH  15  16
ENDBRANCH   1  15
TORSDOF 9
ENDMDL
MODEL 2
REMARK VINA RESULT:      -5.0      3.891      6.956
REMARK  9 active torsions:
REMARK  status: ('A' for Active; 'I' for Inactive)
REMARK    1  A    between atoms: S_1  and  C_14 
REMARK    2  A    between atoms: S_1  and  C_15 
REMARK    3  A    between atoms: S_2  and  N_6 
REMARK    4  A    between atoms: S_2  and  N_10 
REMARK    5  A    between atoms: N_8  and  C_16 
REMARK    6  A    between atoms: N_9  and  C_19 
REMARK       I    between atoms: N_11  and  C_20 
REMARK       I    between atoms: N_12  and  C_20 
REMARK    7  A    between atoms: C_13  and  C_14 
REMARK    8  A    between atoms: C_13  and  C_16 
REMARK    9  A    between atoms: C_15  and  C_17 
ROOT
HETATM    1  S   UNK     0      45.792   2.515  29.906  0.00  0.00    -0.163 SA
ENDROOT
BRANCH   1   2
HETATM    2  C   UNK     0      44.331   2.925  28.903  0.00  0.00     0.082 C 
BRANCH   2   3
HETATM    3  C   UNK     0      43.496   4.038  29.526  0.00  0.00     0.089 C 
BRANCH   3   4
HETATM    4  C   UNK     0      42.005   3.876  29.243  0.00  0.00     0.113 C 
HETATM    5  N   UNK     0      41.240   3.729  30.284  0.00  0.00    -0.133 NA
BRANCH   5   6
HETATM    6  S   UNK     0      39.625   3.536  30.130  0.00  0.00     0.339 S 
HETATM    7  O   UNK     0      39.072   3.184  31.428  0.00  0.00    -0.181 OA
HETATM    8  O   UNK     0      39.364   2.673  28.989  0.00  0.00    -0.181 OA
BRANCH   6   9
HETATM    9  N   UNK     0      38.976   5.080  29.729  0.00  0.00    -0.310 N 
HETATM   10  H   UNK     0      38.155   5.083  29.110  0.00  0.00     0.170 HD
HETATM   11  H   UNK     0      39.655   5.811  29.481  0.00  0.00     0.170 HD
ENDBRANCH   6   9
ENDBRANCH   5   6
BRANCH   4  12
HETATM   12  N   UNK     0      41.640   3.898  27.916  0.00  0.00    -0.387 N 
HETATM   13  H   UNK     0      41.057   4.637  27.537  0.00  0.00     0.157 HD
HETATM   14  H   UNK     0      41.934   3.173  27.271  0.00  0.00     0.157 HD
ENDBRANCH   4  12
ENDBRANCH   3   4
ENDBRANCH   2   3
ENDBRANCH   1   2
BRANCH   1  15
HETATM   15  C   UNK     0      45.024   1.297  30.997  0.00  0.00     0.133 C 
BRANCH  15  16
HETATM   16  C   UNK     0      44.703   1.884  32.333  0.00  0.00     0.053 A 
HETATM   17  N   UNK     0      43.400   1.822  32.762  0.00  0.00    -0.226 NA
HETATM   18  C   UNK     0      43.330   2.388  33.946  0.00  0.00     0.211 A 
HETATM   19  S   UNK     0      44.797   3.007  34.586  0.00  0.00    -0.059 SA
HETATM   20  C   UNK     0      45.608   2.482  33.169  0.00  0.00     0.081 A 
BRANCH  18  21
HETATM   21  N   UNK     0      42.207   2.521  34.697  0.00  0.00    -0.039 NA
HETATM   22  C   UNK     0      41.315   3.401  34.308  0.00  0.00     0.694 C 
HETATM   23  N   UNK     0      40.110   3.706  34.907  0.00  0.00    -0.233 N 
HETATM   24  N   UNK     0      41.526   4.153  33.175  0.00  0.00    -0.233 N 
HETATM   25  H   UNK     0      39.812   3.234  35.754  0.00  0.00     0.174 HD
HETATM   26  H   UNK     0      39.489   4.408  34.520  0.00  0.00     0.174 HD
HETATM   27  H   UNK     0      40.837   4.832  32.873  0.00  0.00     0.174 HD
HETATM   28  H   UNK     0      42.354   4.073  32.597  0.00  0.00     0.174 HD
ENDBRANCH  18  21
ENDBRANCH  15  16
ENDBRANCH   1  15
TORSDOF 9
ENDMDL
MODEL 3
REMARK VINA RESULT:      -4.9     20.373     21.995
REMARK  9 active torsions:
REMARK  status: ('A' for Active; 'I' for Inactive)
REMARK    1  A    between atoms: S_1  and  C_14 
REMARK    2  A    between atoms: S_1  and  C_15 
REMARK    3  A    between atoms: S_2  and  N_6 
REMARK    4  A    between atoms: S_2  and  N_10 
REMARK    5  A    between atoms: N_8  and  C_16 
REMARK    6  A    between atoms: N_9  and  C_19 
REMARK       I    between atoms: N_11  and  C_20 
REMARK       I    between atoms: N_12  and  C_20 
REMARK    7  A    between atoms: C_13  and  C_14 
REMARK    8  A    between atoms: C_13  and  C_16 
REMARK    9  A    between atoms: C_15  and  C_17 
ROOT
HETATM    1  S   UNK     0      39.492  24.967  22.722  0.00  0.00    -0.163 SA
ENDROOT
BRANCH   1   2
HETATM    2  C   UNK     0      40.435  26.405  23.314  0.00  0.00     0.082 C 
BRANCH   2   3
HETATM    3  C   UNK     0      40.087  26.771  24.753  0.00  0.00     0.089 C 
BRANCH   3   4
HETATM    4  C   UNK     0      41.182  26.370  25.737  0.00  0.00     0.113 C 
HETATM    5  N   UNK     0      40.780  25.981  26.910  0.00  0.00    -0.133 NA
BRANCH   5   6
HETATM    6  S   UNK     0      41.844  25.532  28.066  0.00  0.00     0.339 S 
HETATM    7  O   UNK     0      41.118  25.308  29.306  0.00  0.00    -0.181 OA
HETATM    8  O   UNK     0      42.964  26.457  28.057  0.00  0.00    -0.181 OA
BRANCH   6   9
HETATM    9  N   UNK     0      42.475  24.001  27.592  0.00  0.00    -0.310 N 
HETATM   10  H   UNK     0      43.138  23.560  28.243  0.00  0.00     0.170 HD
HETATM   11  H   UNK     0      42.772  23.913  26.612  0.00  0.00     0.170 HD
ENDBRANCH   6   9
ENDBRANCH   5   6
BRANCH   4  12
HETATM   12  N   UNK     0      42.474  26.473  25.272  0.00  0.00    -0.387 N 
HETATM   13  H   UNK     0      42.944  25.689  24.830  0.00  0.00     0.157 HD
HETATM   14  H   UNK     0      43.005  27.332  25.361  0.00  0.00     0.157 HD
ENDBRANCH   4  12
ENDBRANCH   3   4
ENDBRANCH   2   3
ENDBRANCH   1   2
BRANCH   1  15
HETATM   15  C   UNK     0      40.716  23.688  23.079  0.00  0.00     0.133 C 
BRANCH  15  16
HETATM   16  C   UNK     0      40.199  22.695  24.068  0.00  0.00     0.053 A 
HETATM   17  N   UNK     0      40.426  22.940  25.399  0.00  0.00    -0.226 NA
HETATM   18  C   UNK     0      39.897  21.958  26.094  0.00  0.00     0.211 A 
HETATM   19  S   UNK     0      39.117  20.720  25.198  0.00  0.00    -0.059 SA
HETATM   20  C   UNK     0      39.512  21.553  23.752  0.00  0.00     0.081 A 
BRANCH  18  21
HETATM   21  N   UNK     0      39.915  21.843  27.447  0.00  0.00    -0.039 NA
HETATM   22  C   UNK     0      39.293  22.763  28.146  0.00  0.00     0.694 C 
HETATM   23  N   UNK     0      39.179  22.851  29.518  0.00  0.00    -0.233 N 
HETATM   24  N   UNK     0      38.648  23.801  27.513  0.00  0.00    -0.233 N 
HETATM   25  H   UNK     0      39.603  22.156  30.123  0.00  0.00     0.174 HD
HETATM   26  H   UNK     0      38.671  23.609  29.960  0.00  0.00     0.174 HD
HETATM   27  H   UNK     0      38.165  24.511  28.051  0.00  0.00     0.174 HD
HETATM   28  H   UNK     0      38.618  23.910  26.506  0.00  0.00     0.174 HD
ENDBRANCH  18  21
ENDBRANCH  15  16
ENDBRANCH   1  15
TORSDOF 9
ENDMDL
