MODEL 1
REMARK VINA RESULT:      -5.2      0.000      0.000
REMARK  9 active torsions:
REMARK  status: ('A' for Active; 'I' for Inactive)
REMARK    1  A    between atoms: S_1  and  C_14 
REMARK    2  A    between atoms: S_1  and  C_15 
REMARK    3  A    between atoms: S_2  and  N_6 
REMARK    4  A    between atoms: S_2  and  N_10 
REMARK    5  A    between atoms: N_8  and  C_16 
REMARK    6  A    between atoms: N_9  and  C_19 
REMARK       I    between atoms: N_11  and  C_20 
REMARK       I    between atoms: N_12  and  C_20 
REMARK    7  A    between atoms: C_13  and  C_14 
REMARK    8  A    between atoms: C_13  and  C_16 
REMARK    9  A    between atoms: C_15  and  C_17 
ROOT
HETATM    1  S   UNK     0     -12.360  16.445  24.945  0.00  0.00    -0.163 SA
ENDROOT
BRANCH   1   2
HETATM    2  C   UNK     0     -12.885  15.368  26.313  0.00  0.00     0.082 C 
BRANCH   2   3
HETATM    3  C   UNK     0     -13.542  14.084  25.818  0.00  0.00     0.089 C 
BRANCH   3   4
HETATM    4  C   UNK     0     -15.030  14.025  26.152  0.00  0.00     0.113 C 
HETATM    5  N   UNK     0     -15.812  14.741  25.400  0.00  0.00    -0.133 NA
BRANCH   5   6
HETATM    6  S   UNK     0     -17.427  14.780  25.649  0.00  0.00     0.339 S 
HETATM    7  O   UNK     0     -18.004  15.813  24.804  0.00  0.00    -0.181 OA
HETATM    8  O   UNK     0     -17.679  14.812  27.080  0.00  0.00    -0.181 OA
BRANCH   6   9
HETATM    9  N   UNK     0     -18.054  13.281  25.079  0.00  0.00    -0.310 N 
HETATM   10  H   UNK     0     -17.598  12.883  24.248  0.00  0.00     0.170 HD
HETATM   11  H   UNK     0     -19.078  13.201  25.038  0.00  0.00     0.170 HD
ENDBRANCH   6   9
ENDBRANCH   5   6
BRANCH   4  12
HETATM   12  N   UNK     0     -15.376  13.224  27.217  0.00  0.00    -0.387 N 
HETATM   13  H   UNK     0     -15.322  13.559  28.174  0.00  0.00     0.157 HD
HETATM   14  H   UNK     0     -15.689  12.269  27.085  0.00  0.00     0.157 HD
ENDBRANCH   4  12
ENDBRANCH   3   4
ENDBRANCH   2   3
ENDBRANCH   1   2
BRANCH   1  15
HETATM   15  C   UNK     0     -12.647  15.293  23.583  0.00  0.00     0.133 C 
BRANCH  15  16
HETATM   16  C   UNK     0     -13.479  15.912  22.508  0.00  0.00     0.053 A 
HETATM   17  N   UNK     0     -14.775  16.243  22.815  0.00  0.00    -0.226 NA
HETATM   18  C   UNK     0     -15.330  16.768  21.744  0.00  0.00     0.211 A 
HETATM   19  S   UNK     0     -14.338  16.885  20.349  0.00  0.00    -0.059 SA
HETATM   20  C   UNK     0     -13.052  16.177  21.234  0.00  0.00     0.081 A 
BRANCH  18  21
HETATM   21  N   UNK     0     -16.607  17.219  21.652  0.00  0.00    -0.039 NA
HETATM   22  C   UNK     0     -17.572  16.331  21.692  0.00  0.00     0.694 C 
HETATM   23  N   UNK     0     -18.932  16.555  21.618  0.00  0.00    -0.233 N 
HETATM   24  N   UNK     0     -17.282  14.993  21.825  0.00  0.00    -0.233 N 
HETATM   25  H   UNK     0     -19.302  17.494  21.518  0.00  0.00     0.174 HD
HETATM   26  H   UNK     0     -19.597  15.791  21.660  0.00  0.00     0.174 HD
HETATM   27  H   UNK     0     -18.026  14.306  21.858  0.00  0.00     0.174 HD
HETATM   28  H   UNK     0     -16.339  14.630  21.897  0.00  0.00     0.174 HD
ENDBRANCH  18  21
ENDBRANCH  15  16
ENDBRANCH   1  15
TORSDOF 9
ENDMDL
MODEL 2
REMARK VINA RESULT:      -5.1      1.911      5.010
REMARK  9 active torsions:
REMARK  status: ('A' for Active; 'I' for Inactive)
REMARK    1  A    between atoms: S_1  and  C_14 
REMARK    2  A    between atoms: S_1  and  C_15 
REMARK    3  A    between atoms: S_2  and  N_6 
REMARK    4  A    between atoms: S_2  and  N_10 
REMARK    5  A    between atoms: N_8  and  C_16 
REMARK    6  A    between atoms: N_9  and  C_19 
REMARK       I    between atoms: N_11  and  C_20 
REMARK       I    between atoms: N_12  and  C_20 
REMARK    7  A    between atoms: C_13  and  C_14 
REMARK    8  A    between atoms: C_13  and  C_16 
REMARK    9  A    between atoms: C_15  and  C_17 
ROOT
HETATM    1  S   UNK     0     -12.653  15.845  22.982  0.00  0.00    -0.163 SA
ENDROOT
BRANCH   1   2
HETATM    2  C   UNK     0     -14.343  16.506  22.851  0.00  0.00     0.082 C 
BRANCH   2   3
HETATM    3  C   UNK     0     -15.314  15.495  22.252  0.00  0.00     0.089 C 
BRANCH   3   4
HETATM    4  C   UNK     0     -16.456  15.149  23.204  0.00  0.00     0.113 C 
HETATM    5  N   UNK     0     -16.359  15.629  24.408  0.00  0.00    -0.133 NA
BRANCH   5   6
HETATM    6  S   UNK     0     -17.504  15.331  25.535  0.00  0.00     0.339 S 
HETATM    7  O   UNK     0     -17.482  13.914  25.859  0.00  0.00    -0.181 OA
HETATM    8  O   UNK     0     -18.751  15.943  25.108  0.00  0.00    -0.181 OA
BRANCH   6   9
HETATM    9  N   UNK     0     -17.021  16.161  26.965  0.00  0.00    -0.310 N 
HETATM   10  H   UNK     0     -17.441  15.836  27.845  0.00  0.00     0.170 HD
HETATM   11  H   UNK     0     -16.982  17.187  26.906  0.00  0.00     0.170 HD
ENDBRANCH   6   9
ENDBRANCH   5   6
BRANCH   4  12
HETATM   12  N   UNK     0     -17.458  14.364  22.680  0.00  0.00    -0.387 N 
HETATM   13  H   UNK     0     -18.393  14.727  22.525  0.00  0.00     0.157 HD
HETATM   14  H   UNK     0     -17.300  13.392  22.437  0.00  0.00     0.157 HD
ENDBRANCH   4  12
ENDBRANCH   3   4
ENDBRANCH   2   3
ENDBRANCH   1   2
BRANCH   1  15
HETATM   15  C   UNK     0     -13.043  14.305  23.841  0.00  0.00     0.133 C 
BRANCH  15  16
HETATM   16  C   UNK     0     -12.917  14.457  25.322  0.00  0.00     0.053 A 
HETATM   17  N   UNK     0     -14.071  14.462  26.065  0.00  0.00    -0.226 NA
HETATM   18  C   UNK     0     -13.745  14.605  27.330  0.00  0.00     0.211 A 
HETATM   19  S   UNK     0     -12.070  14.737  27.678  0.00  0.00    -0.059 SA
HETATM   20  C   UNK     0     -11.736  14.592  26.002  0.00  0.00     0.081 A 
BRANCH  18  21
HETATM   21  N   UNK     0     -14.613  14.656  28.373  0.00  0.00    -0.039 NA
HETATM   22  C   UNK     0     -15.322  13.582  28.629  0.00  0.00     0.694 C 
HETATM   23  N   UNK     0     -16.257  13.404  29.628  0.00  0.00    -0.233 N 
HETATM   24  N   UNK     0     -15.178  12.452  27.858  0.00  0.00    -0.233 N 
HETATM   25  H   UNK     0     -16.475  14.150  30.280  0.00  0.00     0.174 HD
HETATM   26  H   UNK     0     -16.752  12.527  29.740  0.00  0.00     0.174 HD
HETATM   27  H   UNK     0     -15.723  11.621  28.057  0.00  0.00     0.174 HD
HETATM   28  H   UNK     0     -14.537  12.387  27.076  0.00  0.00     0.174 HD
ENDBRANCH  18  21
ENDBRANCH  15  16
ENDBRANCH   1  15
TORSDOF 9
ENDMDL
MODEL 3
REMARK VINA RESULT:      -5.1      1.883      2.376
REMARK  9 active torsions:
REMARK  status: ('A' for Active; 'I' for Inactive)
REMARK    1  A    between atoms: S_1  and  C_14 
REMARK    2  A    between atoms: S_1  and  C_15 
REMARK    3  A    between atoms: S_2  and  N_6 
REMARK    4  A    between atoms: S_2  and  N_10 
REMARK    5  A    between atoms: N_8  and  C_16 
REMARK    6  A    between atoms: N_9  and  C_19 
REMARK       I    between atoms: N_11  and  C_20 
REMARK       I    between atoms: N_12  and  C_20 
REMARK    7  A    between atoms: C_13  and  C_14 
REMARK    8  A    between atoms: C_13  and  C_16 
REMARK    9  A    between atoms: C_15  and  C_17 
ROOT
HETATM    1  S   UNK     0     -11.253  16.188  26.578  0.00  0.00    -0.163 SA
ENDROOT
BRANCH   1   2
HETATM    2  C   UNK     0     -12.837  15.742  27.353  0.00  0.00     0.082 C 
BRANCH   2   3
HETATM    3  C   UNK     0     -13.011  14.232  27.484  0.00  0.00     0.089 C 
BRANCH   3   4
HETATM    4  C   UNK     0     -14.479  13.815  27.507  0.00  0.00     0.113 C 
HETATM    5  N   UNK     0     -15.345  14.768  27.330  0.00  0.00    -0.133 NA
BRANCH   5   6
HETATM    6  S   UNK     0     -16.951  14.469  27.341  0.00  0.00     0.339 S 
HETATM    7  O   UNK     0     -17.288  13.774  28.573  0.00  0.00    -0.181 OA
HETATM    8  O   UNK     0     -17.325  13.877  26.067  0.00  0.00    -0.181 OA
BRANCH   6   9
HETATM    9  N   UNK     0     -17.741  15.997  27.416  0.00  0.00    -0.310 N 
HETATM   10  H   UNK     0     -17.912  16.466  26.518  0.00  0.00     0.170 HD
HETATM   11  H   UNK     0     -17.409  16.648  28.140  0.00  0.00     0.170 HD
ENDBRANCH   6   9
ENDBRANCH   5   6
BRANCH   4  12
HETATM   12  N   UNK     0     -14.720  12.477  27.719  0.00  0.00    -0.387 N 
HETATM   13  H   UNK     0     -15.627  12.142  28.029  0.00  0.00     0.157 HD
HETATM   14  H   UNK     0     -13.999  11.778  27.580  0.00  0.00     0.157 HD
ENDBRANCH   4  12
ENDBRANCH   3   4
ENDBRANCH   2   3
ENDBRANCH   1   2
BRANCH   1  15
HETATM   15  C   UNK     0     -11.235  14.930  25.281  0.00  0.00     0.133 C 
BRANCH  15  16
HETATM   16  C   UNK     0     -12.079  15.332  24.116  0.00  0.00     0.053 A 
HETATM   17  N   UNK     0     -13.307  14.733  23.979  0.00  0.00    -0.226 NA
HETATM   18  C   UNK     0     -13.883  15.220  22.903  0.00  0.00     0.211 A 
HETATM   19  S   UNK     0     -12.995  16.396  22.024  0.00  0.00    -0.059 SA
HETATM   20  C   UNK     0     -11.725  16.255  23.168  0.00  0.00     0.081 A 
BRANCH  18  21
HETATM   21  N   UNK     0     -15.109  14.874  22.434  0.00  0.00    -0.039 NA
HETATM   22  C   UNK     0     -16.156  15.235  23.138  0.00  0.00     0.694 C 
HETATM   23  N   UNK     0     -17.486  14.997  22.860  0.00  0.00    -0.233 N 
HETATM   24  N   UNK     0     -15.998  15.940  24.309  0.00  0.00    -0.233 N 
HETATM   25  H   UNK     0     -17.764  14.487  22.029  0.00  0.00     0.174 HD
HETATM   26  H   UNK     0     -18.222  15.323  23.476  0.00  0.00     0.174 HD
HETATM   27  H   UNK     0     -16.805  16.221  24.853  0.00  0.00     0.174 HD
HETATM   28  H   UNK     0     -15.095  16.212  24.681  0.00  0.00     0.174 HD
ENDBRANCH  18  21
ENDBRANCH  15  16
ENDBRANCH   1  15
TORSDOF 9
ENDMDL
