MODEL 1
REMARK VINA RESULT:      -7.1      0.000      0.000
REMARK  5 active torsions:
REMARK  status: ('A' for Active; 'I' for Inactive)
REMARK    1  A    between atoms: S_1  and  C_8 
REMARK    2  A    between atoms: S_1  and  C_11 
REMARK    3  A    between atoms: O_2  and  C_13 
REMARK    4  A    between atoms: O_4  and  C_20 
REMARK    5  A    between atoms: C_8  and  C_9 
ROOT
HETATM    1  S   UNK     0      18.633  46.452  20.454  0.00  0.00     0.091 S 
HETATM    2  O   UNK     0      19.081  45.828  21.761  0.00  0.00    -0.249 OA
ENDROOT
BRANCH   1   3
HETATM    3  C   UNK     0      17.463  47.776  20.869  0.00  0.00     0.177 C 
BRANCH   3   4
HETATM    4  C   UNK     0      16.566  48.108  19.710  0.00  0.00     0.055 A 
HETATM    5  N   UNK     0      17.194  48.329  18.538  0.00  0.00    -0.263 NA
HETATM    6  C   UNK     0      16.401  48.627  17.485  0.00  0.00     0.126 A 
HETATM    7  C   UNK     0      15.020  48.713  17.555  0.00  0.00    -0.011 A 
HETATM    8  C   UNK     0      14.414  48.477  18.784  0.00  0.00     0.083 A 
HETATM    9  C   UNK     0      14.225  49.048  16.341  0.00  0.00     0.052 C 
HETATM   10  C   UNK     0      15.198  48.167  19.890  0.00  0.00    -0.003 A 
HETATM   11  C   UNK     0      14.572  47.909  21.220  0.00  0.00     0.053 C 
BRANCH   8  12
HETATM   12  O   UNK     0      13.058  48.549  18.902  0.00  0.00    -0.355 OA
HETATM   13  C   UNK     0      12.506  49.804  19.292  0.00  0.00     0.210 C 
ENDBRANCH   8  12
ENDBRANCH   3   4
ENDBRANCH   1   3
BRANCH   1  14
HETATM   14  C   UNK     0      19.983  47.417  19.786  0.00  0.00     0.198 A 
HETATM   15  N   UNK     0      19.970  48.779  19.674  0.00  0.00    -0.331 N 
HETATM   16  C   UNK     0      21.163  49.165  19.120  0.00  0.00     0.066 A 
HETATM   17  H   UNK     0      19.215  49.394  19.948  0.00  0.00     0.168 HD
HETATM   18  C   UNK     0      21.854  47.973  18.921  0.00  0.00     0.086 A 
HETATM   19  C   UNK     0      21.681  50.416  18.785  0.00  0.00     0.068 A 
HETATM   20  N   UNK     0      21.105  46.897  19.341  0.00  0.00    -0.221 NA
HETATM   21  C   UNK     0      23.140  48.013  18.356  0.00  0.00     0.037 A 
HETATM   22  C   UNK     0      23.681  49.257  18.012  0.00  0.00     0.039 A 
HETATM   23  C   UNK     0      22.963  50.438  18.224  0.00  0.00     0.070 A 
BRANCH  23  24
HETATM   24  O   UNK     0      23.520  51.632  17.878  0.00  0.00    -0.356 OA
HETATM   25  C   UNK     0      23.201  52.755  18.695  0.00  0.00     0.210 C 
ENDBRANCH  23  24
ENDBRANCH   1  14
TORSDOF 5
ENDMDL
MODEL 2
REMARK VINA RESULT:      -6.6      3.390      3.611
REMARK  5 active torsions:
REMARK  status: ('A' for Active; 'I' for Inactive)
REMARK    1  A    between atoms: S_1  and  C_8 
REMARK    2  A    between atoms: S_1  and  C_11 
REMARK    3  A    between atoms: O_2  and  C_13 
REMARK    4  A    between atoms: O_4  and  C_20 
REMARK    5  A    between atoms: C_8  and  C_9 
ROOT
HETATM    1  S   UNK     0      19.216  46.997  20.863  0.00  0.00     0.091 S 
HETATM    2  O   UNK     0      19.519  45.678  21.547  0.00  0.00    -0.249 OA
ENDROOT
BRANCH   1   3
HETATM    3  C   UNK     0      17.492  47.414  21.247  0.00  0.00     0.177 C 
BRANCH   3   4
HETATM    4  C   UNK     0      16.772  47.960  20.048  0.00  0.00     0.055 A 
HETATM    5  N   UNK     0      17.562  48.344  19.025  0.00  0.00    -0.263 NA
HETATM    6  C   UNK     0      16.929  48.837  17.938  0.00  0.00     0.126 A 
HETATM    7  C   UNK     0      15.553  48.962  17.831  0.00  0.00    -0.011 A 
HETATM    8  C   UNK     0      14.778  48.554  18.910  0.00  0.00     0.083 A 
HETATM    9  C   UNK     0      14.942  49.518  16.592  0.00  0.00     0.052 C 
HETATM   10  C   UNK     0      15.393  48.041  20.047  0.00  0.00    -0.003 A 
HETATM   11  C   UNK     0      14.583  47.595  21.218  0.00  0.00     0.053 C 
BRANCH   8  12
HETATM   12  O   UNK     0      13.419  48.656  18.852  0.00  0.00    -0.355 OA
HETATM   13  C   UNK     0      12.834  49.841  19.386  0.00  0.00     0.210 C 
ENDBRANCH   8  12
ENDBRANCH   3   4
ENDBRANCH   1   3
BRANCH   1  14
HETATM   14  C   UNK     0      20.064  48.306  21.738  0.00  0.00     0.198 A 
HETATM   15  N   UNK     0      19.472  49.115  22.667  0.00  0.00    -0.331 N 
HETATM   16  C   UNK     0      20.420  49.996  23.119  0.00  0.00     0.066 A 
HETATM   17  H   UNK     0      18.507  49.075  22.966  0.00  0.00     0.168 HD
HETATM   18  C   UNK     0      21.572  49.657  22.415  0.00  0.00     0.086 A 
HETATM   19  C   UNK     0      20.371  51.029  24.057  0.00  0.00     0.068 A 
HETATM   20  N   UNK     0      21.331  48.605  21.561  0.00  0.00    -0.221 NA
HETATM   21  C   UNK     0      22.753  50.381  22.645  0.00  0.00     0.037 A 
HETATM   22  C   UNK     0      22.728  51.422  23.581  0.00  0.00     0.039 A 
HETATM   23  C   UNK     0      21.557  51.739  24.274  0.00  0.00     0.070 A 
BRANCH  23  24
HETATM   24  O   UNK     0      21.568  52.759  25.179  0.00  0.00    -0.356 OA
HETATM   25  C   UNK     0      21.056  52.474  26.479  0.00  0.00     0.210 C 
ENDBRANCH  23  24
ENDBRANCH   1  14
TORSDOF 5
ENDMDL
MODEL 3
REMARK VINA RESULT:      -6.6      3.824      6.344
REMARK  5 active torsions:
REMARK  status: ('A' for Active; 'I' for Inactive)
REMARK    1  A    between atoms: S_1  and  C_8 
REMARK    2  A    between atoms: S_1  and  C_11 
REMARK    3  A    between atoms: O_2  and  C_13 
REMARK    4  A    between atoms: O_4  and  C_20 
REMARK    5  A    between atoms: C_8  and  C_9 
ROOT
HETATM    1  S   UNK     0      19.243  47.601  21.436  0.00  0.00     0.091 S 
HETATM    2  O   UNK     0      20.708  47.994  21.422  0.00  0.00    -0.249 OA
ENDROOT
BRANCH   1   3
HETATM    3  C   UNK     0      18.632  47.764  19.734  0.00  0.00     0.177 C 
BRANCH   3   4
HETATM    4  C   UNK     0      17.174  48.124  19.700  0.00  0.00     0.055 A 
HETATM    5  N   UNK     0      16.569  48.200  20.903  0.00  0.00    -0.263 NA
HETATM    6  C   UNK     0      15.257  48.523  20.890  0.00  0.00     0.126 A 
HETATM    7  C   UNK     0      14.531  48.771  19.736  0.00  0.00    -0.011 A 
HETATM    8  C   UNK     0      15.195  48.681  18.518  0.00  0.00     0.083 A 
HETATM    9  C   UNK     0      13.086  49.121  19.817  0.00  0.00     0.052 C 
HETATM   10  C   UNK     0      16.546  48.351  18.491  0.00  0.00    -0.003 A 
HETATM   11  C   UNK     0      17.281  48.249  17.197  0.00  0.00     0.053 C 
BRANCH   8  12
HETATM   12  O   UNK     0      14.523  48.918  17.355  0.00  0.00    -0.355 OA
HETATM   13  C   UNK     0      14.479  50.267  16.896  0.00  0.00     0.210 C 
ENDBRANCH   8  12
ENDBRANCH   3   4
ENDBRANCH   1   3
BRANCH   1  14
HETATM   14  C   UNK     0      19.126  45.830  21.648  0.00  0.00     0.198 A 
HETATM   15  N   UNK     0      18.643  45.223  22.774  0.00  0.00    -0.331 N 
HETATM   16  C   UNK     0      18.707  43.867  22.579  0.00  0.00     0.066 A 
HETATM   17  H   UNK     0      18.301  45.689  23.604  0.00  0.00     0.168 HD
HETATM   18  C   UNK     0      19.244  43.726  21.302  0.00  0.00     0.086 A 
HETATM   19  C   UNK     0      18.353  42.785  23.386  0.00  0.00     0.068 A 
HETATM   20  N   UNK     0      19.497  44.956  20.739  0.00  0.00    -0.221 NA
HETATM   21  C   UNK     0      19.446  42.436  20.783  0.00  0.00     0.037 A 
HETATM   22  C   UNK     0      19.098  41.335  21.575  0.00  0.00     0.039 A 
HETATM   23  C   UNK     0      18.560  41.508  22.853  0.00  0.00     0.070 A 
BRANCH  23  24
HETATM   24  O   UNK     0      18.232  40.413  23.596  0.00  0.00    -0.356 OA
HETATM   25  C   UNK     0      18.522  40.468  24.991  0.00  0.00     0.210 C 
ENDBRANCH  23  24
ENDBRANCH   1  14
TORSDOF 5
ENDMDL
