MODEL 1
REMARK VINA RESULT:      -7.0      0.000      0.000
REMARK  5 active torsions:
REMARK  status: ('A' for Active; 'I' for Inactive)
REMARK    1  A    between atoms: S_1  and  C_8 
REMARK    2  A    between atoms: S_1  and  C_11 
REMARK    3  A    between atoms: O_2  and  C_13 
REMARK    4  A    between atoms: O_4  and  C_20 
REMARK    5  A    between atoms: C_8  and  C_9 
ROOT
HETATM    1  S   UNK     0      14.783  30.078  21.280  0.00  0.00     0.091 S 
HETATM    2  O   UNK     0      15.198  30.848  22.519  0.00  0.00    -0.249 OA
ENDROOT
BRANCH   1   3
HETATM    3  C   UNK     0      14.359  31.304  20.008  0.00  0.00     0.177 C 
BRANCH   3   4
HETATM    4  C   UNK     0      13.165  30.878  19.203  0.00  0.00     0.055 A 
HETATM    5  N   UNK     0      12.988  29.546  19.093  0.00  0.00    -0.263 NA
HETATM    6  C   UNK     0      11.917  29.146  18.372  0.00  0.00     0.126 A 
HETATM    7  C   UNK     0      11.025  30.014  17.762  0.00  0.00    -0.011 A 
HETATM    8  C   UNK     0      11.247  31.379  17.902  0.00  0.00     0.083 A 
HETATM    9  C   UNK     0       9.871  29.482  16.986  0.00  0.00     0.052 C 
HETATM   10  C   UNK     0      12.339  31.828  18.637  0.00  0.00    -0.003 A 
HETATM   11  C   UNK     0      12.598  33.289  18.802  0.00  0.00     0.053 C 
BRANCH   8  12
HETATM   12  O   UNK     0      10.396  32.272  17.321  0.00  0.00    -0.355 OA
HETATM   13  C   UNK     0       9.270  32.689  18.091  0.00  0.00     0.210 C 
ENDBRANCH   8  12
ENDBRANCH   3   4
ENDBRANCH   1   3
BRANCH   1  14
HETATM   14  C   UNK     0      16.239  29.346  20.544  0.00  0.00     0.198 A 
HETATM   15  N   UNK     0      16.407  29.157  19.201  0.00  0.00    -0.331 N 
HETATM   16  C   UNK     0      17.632  28.572  19.010  0.00  0.00     0.066 A 
HETATM   17  H   UNK     0      15.746  29.402  18.475  0.00  0.00     0.168 HD
HETATM   18  C   UNK     0      18.154  28.436  20.294  0.00  0.00     0.086 A 
HETATM   19  C   UNK     0      18.309  28.163  17.861  0.00  0.00     0.068 A 
HETATM   20  N   UNK     0      17.274  28.923  21.234  0.00  0.00    -0.221 NA
HETATM   21  C   UNK     0      19.424  27.859  20.459  0.00  0.00     0.037 A 
HETATM   22  C   UNK     0      20.122  27.441  19.320  0.00  0.00     0.039 A 
HETATM   23  C   UNK     0      19.573  27.591  18.043  0.00  0.00     0.070 A 
BRANCH  23  24
HETATM   24  O   UNK     0      20.280  27.173  16.956  0.00  0.00    -0.356 OA
HETATM   25  C   UNK     0      20.474  28.120  15.908  0.00  0.00     0.210 C 
ENDBRANCH  23  24
ENDBRANCH   1  14
TORSDOF 5
ENDMDL
MODEL 2
REMARK VINA RESULT:      -6.5      2.658      3.886
REMARK  5 active torsions:
REMARK  status: ('A' for Active; 'I' for Inactive)
REMARK    1  A    between atoms: S_1  and  C_8 
REMARK    2  A    between atoms: S_1  and  C_11 
REMARK    3  A    between atoms: O_2  and  C_13 
REMARK    4  A    between atoms: O_4  and  C_20 
REMARK    5  A    between atoms: C_8  and  C_9 
ROOT
HETATM    1  S   UNK     0      13.933  28.326  20.928  0.00  0.00     0.091 S 
HETATM    2  O   UNK     0      13.957  28.616  22.417  0.00  0.00    -0.249 OA
ENDROOT
BRANCH   1   3
HETATM    3  C   UNK     0      13.435  29.861  20.095  0.00  0.00     0.177 C 
BRANCH   3   4
HETATM    4  C   UNK     0      14.118  31.060  20.687  0.00  0.00     0.055 A 
HETATM    5  N   UNK     0      15.360  31.306  20.224  0.00  0.00    -0.263 NA
HETATM    6  C   UNK     0      15.987  32.383  20.747  0.00  0.00     0.126 A 
HETATM    7  C   UNK     0      15.431  33.216  21.704  0.00  0.00    -0.011 A 
HETATM    8  C   UNK     0      14.148  32.924  22.153  0.00  0.00     0.083 A 
HETATM    9  C   UNK     0      16.198  34.382  22.224  0.00  0.00     0.052 C 
HETATM   10  C   UNK     0      13.470  31.824  21.638  0.00  0.00    -0.003 A 
HETATM   11  C   UNK     0      12.092  31.491  22.104  0.00  0.00     0.053 C 
BRANCH   8  12
HETATM   12  O   UNK     0      13.557  33.716  23.094  0.00  0.00    -0.355 OA
HETATM   13  C   UNK     0      13.772  33.369  24.460  0.00  0.00     0.210 C 
ENDBRANCH   8  12
ENDBRANCH   3   4
ENDBRANCH   1   3
BRANCH   1  14
HETATM   14  C   UNK     0      15.617  28.179  20.344  0.00  0.00     0.198 A 
HETATM   15  N   UNK     0      15.986  28.286  19.033  0.00  0.00    -0.331 N 
HETATM   16  C   UNK     0      17.345  28.115  18.965  0.00  0.00     0.066 A 
HETATM   17  H   UNK     0      15.369  28.458  18.250  0.00  0.00     0.168 HD
HETATM   18  C   UNK     0      17.734  27.907  20.286  0.00  0.00     0.086 A 
HETATM   19  C   UNK     0      18.240  28.124  17.895  0.00  0.00     0.068 A 
HETATM   20  N   UNK     0      16.647  27.951  21.128  0.00  0.00    -0.221 NA
HETATM   21  C   UNK     0      19.092  27.695  20.574  0.00  0.00     0.037 A 
HETATM   22  C   UNK     0      20.009  27.699  19.515  0.00  0.00     0.039 A 
HETATM   23  C   UNK     0      19.589  27.911  18.199  0.00  0.00     0.070 A 
BRANCH  23  24
HETATM   24  O   UNK     0      20.509  27.910  17.193  0.00  0.00    -0.356 OA
HETATM   25  C   UNK     0      20.129  28.535  15.970  0.00  0.00     0.210 C 
ENDBRANCH  23  24
ENDBRANCH   1  14
TORSDOF 5
ENDMDL
MODEL 3
REMARK VINA RESULT:      -6.4      1.983      2.327
REMARK  5 active torsions:
REMARK  status: ('A' for Active; 'I' for Inactive)
REMARK    1  A    between atoms: S_1  and  C_8 
REMARK    2  A    between atoms: S_1  and  C_11 
REMARK    3  A    between atoms: O_2  and  C_13 
REMARK    4  A    between atoms: O_4  and  C_20 
REMARK    5  A    between atoms: C_8  and  C_9 
ROOT
HETATM    1  S   UNK     0      12.554  29.160  20.001  0.00  0.00     0.091 S 
HETATM    2  O   UNK     0      11.968  29.269  21.396  0.00  0.00    -0.249 OA
ENDROOT
BRANCH   1   3
HETATM    3  C   UNK     0      12.713  30.850  19.357  0.00  0.00     0.177 C 
BRANCH   3   4
HETATM    4  C   UNK     0      11.641  31.164  18.352  0.00  0.00     0.055 A 
HETATM    5  N   UNK     0      10.784  30.157  18.088  0.00  0.00    -0.263 NA
HETATM    6  C   UNK     0       9.813  30.424  17.186  0.00  0.00     0.126 A 
HETATM    7  C   UNK     0       9.665  31.643  16.544  0.00  0.00    -0.011 A 
HETATM    8  C   UNK     0      10.571  32.652  16.848  0.00  0.00     0.083 A 
HETATM    9  C   UNK     0       8.563  31.847  15.564  0.00  0.00     0.052 C 
HETATM   10  C   UNK     0      11.584  32.415  17.771  0.00  0.00    -0.003 A 
HETATM   11  C   UNK     0      12.568  33.483  18.114  0.00  0.00     0.053 C 
BRANCH   8  12
HETATM   12  O   UNK     0      10.465  33.870  16.243  0.00  0.00    -0.355 OA
HETATM   13  C   UNK     0      11.190  34.056  15.030  0.00  0.00     0.210 C 
ENDBRANCH   8  12
ENDBRANCH   3   4
ENDBRANCH   1   3
BRANCH   1  14
HETATM   14  C   UNK     0      14.279  28.708  20.137  0.00  0.00     0.198 A 
HETATM   15  N   UNK     0      15.233  29.038  19.216  0.00  0.00    -0.331 N 
HETATM   16  C   UNK     0      16.428  28.523  19.647  0.00  0.00     0.066 A 
HETATM   17  H   UNK     0      15.086  29.566  18.366  0.00  0.00     0.168 HD
HETATM   18  C   UNK     0      16.118  27.889  20.847  0.00  0.00     0.086 A 
HETATM   19  C   UNK     0      17.715  28.556  19.108  0.00  0.00     0.068 A 
HETATM   20  N   UNK     0      14.778  28.014  21.135  0.00  0.00    -0.221 NA
HETATM   21  C   UNK     0      17.140  27.244  21.565  0.00  0.00     0.037 A 
HETATM   22  C   UNK     0      18.439  27.265  21.043  0.00  0.00     0.039 A 
HETATM   23  C   UNK     0      18.720  27.910  19.835  0.00  0.00     0.070 A 
BRANCH  23  24
HETATM   24  O   UNK     0      19.996  27.911  19.357  0.00  0.00    -0.356 OA
HETATM   25  C   UNK     0      20.157  28.048  17.947  0.00  0.00     0.210 C 
ENDBRANCH  23  24
ENDBRANCH   1  14
TORSDOF 5
ENDMDL
