MODEL 1
REMARK VINA RESULT:      -7.1      0.000      0.000
REMARK  5 active torsions:
REMARK  status: ('A' for Active; 'I' for Inactive)
REMARK    1  A    between atoms: S_1  and  C_8 
REMARK    2  A    between atoms: S_1  and  C_11 
REMARK    3  A    between atoms: O_2  and  C_13 
REMARK    4  A    between atoms: O_4  and  C_20 
REMARK    5  A    between atoms: C_8  and  C_9 
ROOT
HETATM    1  S   UNK     0      10.794  11.905   4.589  0.00  0.00     0.091 S 
HETATM    2  O   UNK     0      10.549  10.455   4.219  0.00  0.00    -0.249 OA
ENDROOT
BRANCH   1   3
HETATM    3  C   UNK     0      10.392  12.904   3.127  0.00  0.00     0.177 C 
BRANCH   3   4
HETATM    4  C   UNK     0      11.192  14.174   3.086  0.00  0.00     0.055 A 
HETATM    5  N   UNK     0      11.939  14.422   4.180  0.00  0.00    -0.263 NA
HETATM    6  C   UNK     0      12.667  15.561   4.158  0.00  0.00     0.126 A 
HETATM    7  C   UNK     0      12.678  16.453   3.098  0.00  0.00    -0.011 A 
HETATM    8  C   UNK     0      11.892  16.157   1.990  0.00  0.00     0.083 A 
HETATM    9  C   UNK     0      13.511  17.686   3.161  0.00  0.00     0.052 C 
HETATM   10  C   UNK     0      11.130  14.994   1.976  0.00  0.00    -0.003 A 
HETATM   11  C   UNK     0      10.279  14.653   0.799  0.00  0.00     0.053 C 
BRANCH   8  12
HETATM   12  O   UNK     0      11.871  17.004   0.922  0.00  0.00    -0.355 OA
HETATM   13  C   UNK     0      12.824  16.767  -0.112  0.00  0.00     0.210 C 
ENDBRANCH   8  12
ENDBRANCH   3   4
ENDBRANCH   1   3
BRANCH   1  14
HETATM   14  C   UNK     0       9.502  12.439   5.705  0.00  0.00     0.198 A 
HETATM   15  N   UNK     0       9.645  12.518   7.062  0.00  0.00    -0.331 N 
HETATM   16  C   UNK     0       8.455  12.958   7.583  0.00  0.00     0.066 A 
HETATM   17  H   UNK     0      10.477  12.291   7.589  0.00  0.00     0.168 HD
HETATM   18  C   UNK     0       7.632  13.126   6.473  0.00  0.00     0.086 A 
HETATM   19  C   UNK     0       8.041  13.216   8.891  0.00  0.00     0.068 A 
HETATM   20  N   UNK     0       8.299  12.798   5.315  0.00  0.00    -0.221 NA
HETATM   21  C   UNK     0       6.315  13.576   6.660  0.00  0.00     0.037 A 
HETATM   22  C   UNK     0       5.877  13.842   7.963  0.00  0.00     0.039 A 
HETATM   23  C   UNK     0       6.727  13.664   9.059  0.00  0.00     0.070 A 
BRANCH  23  24
HETATM   24  O   UNK     0       6.268  13.933  10.314  0.00  0.00    -0.356 OA
HETATM   25  C   UNK     0       7.244  14.064  11.344  0.00  0.00     0.210 C 
ENDBRANCH  23  24
ENDBRANCH   1  14
TORSDOF 5
ENDMDL
MODEL 2
REMARK VINA RESULT:      -7.0      1.742      8.144
REMARK  5 active torsions:
REMARK  status: ('A' for Active; 'I' for Inactive)
REMARK    1  A    between atoms: S_1  and  C_8 
REMARK    2  A    between atoms: S_1  and  C_11 
REMARK    3  A    between atoms: O_2  and  C_13 
REMARK    4  A    between atoms: O_4  and  C_20 
REMARK    5  A    between atoms: C_8  and  C_9 
ROOT
HETATM    1  S   UNK     0       8.990  11.978   4.648  0.00  0.00     0.091 S 
HETATM    2  O   UNK     0      10.054  10.897   4.627  0.00  0.00    -0.249 OA
ENDROOT
BRANCH   1   3
HETATM    3  C   UNK     0       9.372  13.075   6.043  0.00  0.00     0.177 C 
BRANCH   3   4
HETATM    4  C   UNK     0       8.206  13.207   6.981  0.00  0.00     0.055 A 
HETATM    5  N   UNK     0       7.051  13.608   6.413  0.00  0.00    -0.263 NA
HETATM    6  C   UNK     0       5.992  13.731   7.243  0.00  0.00     0.126 A 
HETATM    7  C   UNK     0       6.038  13.472   8.604  0.00  0.00    -0.011 A 
HETATM    8  C   UNK     0       7.250  13.061   9.146  0.00  0.00     0.083 A 
HETATM    9  C   UNK     0       4.819  13.635   9.442  0.00  0.00     0.052 C 
HETATM   10  C   UNK     0       8.363  12.922   8.323  0.00  0.00    -0.003 A 
HETATM   11  C   UNK     0       9.675  12.481   8.881  0.00  0.00     0.053 C 
BRANCH   8  12
HETATM   12  O   UNK     0       7.346  12.792  10.480  0.00  0.00    -0.355 OA
HETATM   13  C   UNK     0       7.062  11.458  10.894  0.00  0.00     0.210 C 
ENDBRANCH   8  12
ENDBRANCH   3   4
ENDBRANCH   1   3
BRANCH   1  14
HETATM   14  C   UNK     0       9.277  13.092   3.279  0.00  0.00     0.198 A 
HETATM   15  N   UNK     0      10.474  13.702   3.024  0.00  0.00    -0.331 N 
HETATM   16  C   UNK     0      10.318  14.480   1.906  0.00  0.00     0.066 A 
HETATM   17  H   UNK     0      11.323  13.601   3.564  0.00  0.00     0.168 HD
HETATM   18  C   UNK     0       8.989  14.290   1.534  0.00  0.00     0.086 A 
HETATM   19  C   UNK     0      11.197  15.309   1.208  0.00  0.00     0.068 A 
HETATM   20  N   UNK     0       8.359  13.424   2.399  0.00  0.00    -0.221 NA
HETATM   21  C   UNK     0       8.493  14.958   0.403  0.00  0.00     0.037 A 
HETATM   22  C   UNK     0       9.357  15.795  -0.313  0.00  0.00     0.039 A 
HETATM   23  C   UNK     0      10.686  15.966   0.084  0.00  0.00     0.070 A 
BRANCH  23  24
HETATM   24  O   UNK     0      11.500  16.788  -0.636  0.00  0.00    -0.356 OA
HETATM   25  C   UNK     0      12.885  16.786  -0.297  0.00  0.00     0.210 C 
ENDBRANCH  23  24
ENDBRANCH   1  14
TORSDOF 5
ENDMDL
MODEL 3
REMARK VINA RESULT:      -6.7      2.427      3.295
REMARK  5 active torsions:
REMARK  status: ('A' for Active; 'I' for Inactive)
REMARK    1  A    between atoms: S_1  and  C_8 
REMARK    2  A    between atoms: S_1  and  C_11 
REMARK    3  A    between atoms: O_2  and  C_13 
REMARK    4  A    between atoms: O_4  and  C_20 
REMARK    5  A    between atoms: C_8  and  C_9 
ROOT
HETATM    1  S   UNK     0       7.288  14.756   4.709  0.00  0.00     0.091 S 
HETATM    2  O   UNK     0       8.025  16.026   5.089  0.00  0.00    -0.249 OA
ENDROOT
BRANCH   1   3
HETATM    3  C   UNK     0       8.508  13.634   3.968  0.00  0.00     0.177 C 
BRANCH   3   4
HETATM    4  C   UNK     0       9.152  14.238   2.753  0.00  0.00     0.055 A 
HETATM    5  N   UNK     0       8.354  14.352   1.672  0.00  0.00    -0.263 NA
HETATM    6  C   UNK     0       8.919  14.896   0.571  0.00  0.00     0.126 A 
HETATM    7  C   UNK     0      10.235  15.325   0.506  0.00  0.00    -0.011 A 
HETATM    8  C   UNK     0      11.021  15.187   1.644  0.00  0.00     0.083 A 
HETATM    9  C   UNK     0      10.772  15.912  -0.753  0.00  0.00     0.052 C 
HETATM   10  C   UNK     0      10.474  14.633   2.797  0.00  0.00    -0.003 A 
HETATM   11  C   UNK     0      11.297  14.476   4.031  0.00  0.00     0.053 C 
BRANCH   8  12
HETATM   12  O   UNK     0      12.322  15.597   1.629  0.00  0.00    -0.355 OA
HETATM   13  C   UNK     0      12.580  16.947   2.007  0.00  0.00     0.210 C 
ENDBRANCH   8  12
ENDBRANCH   3   4
ENDBRANCH   1   3
BRANCH   1  14
HETATM   14  C   UNK     0       6.891  13.855   6.202  0.00  0.00     0.198 A 
HETATM   15  N   UNK     0       6.061  14.322   7.182  0.00  0.00    -0.331 N 
HETATM   16  C   UNK     0       5.998  13.369   8.166  0.00  0.00     0.066 A 
HETATM   17  H   UNK     0       5.581  15.212   7.185  0.00  0.00     0.168 HD
HETATM   18  C   UNK     0       6.821  12.344   7.709  0.00  0.00     0.086 A 
HETATM   19  C   UNK     0       5.311  13.317   9.380  0.00  0.00     0.068 A 
HETATM   20  N   UNK     0       7.368  12.663   6.487  0.00  0.00    -0.221 NA
HETATM   21  C   UNK     0       6.981  11.192   8.496  0.00  0.00     0.037 A 
HETATM   22  C   UNK     0       6.302  11.117   9.718  0.00  0.00     0.039 A 
HETATM   23  C   UNK     0       5.481  12.163  10.151  0.00  0.00     0.070 A 
BRANCH  23  24
HETATM   24  O   UNK     0       4.835  12.056  11.346  0.00  0.00    -0.356 OA
HETATM   25  C   UNK     0       4.560  13.270  12.042  0.00  0.00     0.210 C 
ENDBRANCH  23  24
ENDBRANCH   1  14
TORSDOF 5
ENDMDL
