MODEL 1
REMARK VINA RESULT:      -8.2      0.000      0.000
REMARK  5 active torsions:
REMARK  status: ('A' for Active; 'I' for Inactive)
REMARK    1  A    between atoms: S_1  and  C_8 
REMARK    2  A    between atoms: S_1  and  C_11 
REMARK    3  A    between atoms: O_2  and  C_13 
REMARK    4  A    between atoms: O_4  and  C_20 
REMARK    5  A    between atoms: C_8  and  C_9 
ROOT
HETATM    1  S   UNK     0      52.662 -13.761  30.172  0.00  0.00     0.091 S 
HETATM    2  O   UNK     0      51.869 -14.956  30.665  0.00  0.00    -0.249 OA
ENDROOT
BRANCH   1   3
HETATM    3  C   UNK     0      51.460 -12.495  29.671  0.00  0.00     0.177 C 
BRANCH   3   4
HETATM    4  C   UNK     0      52.056 -11.519  28.697  0.00  0.00     0.055 A 
HETATM    5  N   UNK     0      52.681 -12.069  27.636  0.00  0.00    -0.263 NA
HETATM    6  C   UNK     0      53.221 -11.204  26.750  0.00  0.00     0.126 A 
HETATM    7  C   UNK     0      53.165  -9.825  26.879  0.00  0.00    -0.011 A 
HETATM    8  C   UNK     0      52.511  -9.302  27.989  0.00  0.00     0.083 A 
HETATM    9  C   UNK     0      53.790  -8.947  25.852  0.00  0.00     0.052 C 
HETATM   10  C   UNK     0      51.942 -10.161  28.923  0.00  0.00    -0.003 A 
HETATM   11  C   UNK     0      51.234  -9.624  30.122  0.00  0.00     0.053 C 
BRANCH   8  12
HETATM   12  O   UNK     0      52.428  -7.951  28.159  0.00  0.00    -0.355 OA
HETATM   13  C   UNK     0      53.518  -7.313  28.821  0.00  0.00     0.210 C 
ENDBRANCH   8  12
ENDBRANCH   3   4
ENDBRANCH   1   3
BRANCH   1  14
HETATM   14  C   UNK     0      53.413 -12.949  31.577  0.00  0.00     0.198 A 
HETATM   15  N   UNK     0      52.912 -11.825  32.171  0.00  0.00    -0.331 N 
HETATM   16  C   UNK     0      53.748 -11.490  33.205  0.00  0.00     0.066 A 
HETATM   17  H   UNK     0      52.077 -11.325  31.896  0.00  0.00     0.168 HD
HETATM   18  C   UNK     0      54.740 -12.466  33.178  0.00  0.00     0.086 A 
HETATM   19  C   UNK     0      53.721 -10.450  34.135  0.00  0.00     0.068 A 
HETATM   20  N   UNK     0      54.515 -13.364  32.160  0.00  0.00    -0.221 NA
HETATM   21  C   UNK     0      55.775 -12.416  34.126  0.00  0.00     0.037 A 
HETATM   22  C   UNK     0      55.770 -11.381  35.069  0.00  0.00     0.039 A 
HETATM   23  C   UNK     0      54.759 -10.416  35.072  0.00  0.00     0.070 A 
BRANCH  23  24
HETATM   24  O   UNK     0      54.784  -9.422  36.005  0.00  0.00    -0.356 OA
HETATM   25  C   UNK     0      53.691  -9.365  36.918  0.00  0.00     0.210 C 
ENDBRANCH  23  24
ENDBRANCH   1  14
TORSDOF 5
ENDMDL
MODEL 2
REMARK VINA RESULT:      -8.0      4.308      7.962
REMARK  5 active torsions:
REMARK  status: ('A' for Active; 'I' for Inactive)
REMARK    1  A    between atoms: S_1  and  C_8 
REMARK    2  A    between atoms: S_1  and  C_11 
REMARK    3  A    between atoms: O_2  and  C_13 
REMARK    4  A    between atoms: O_4  and  C_20 
REMARK    5  A    between atoms: C_8  and  C_9 
ROOT
HETATM    1  S   UNK     0      53.395  -8.960  36.669  0.00  0.00     0.091 S 
HETATM    2  O   UNK     0      54.381  -7.815  36.794  0.00  0.00    -0.249 OA
ENDROOT
BRANCH   1   3
HETATM    3  C   UNK     0      51.868  -8.273  35.966  0.00  0.00     0.177 C 
BRANCH   3   4
HETATM    4  C   UNK     0      50.646  -8.857  36.616  0.00  0.00     0.055 A 
HETATM    5  N   UNK     0      50.830 -10.043  37.232  0.00  0.00    -0.263 NA
HETATM    6  C   UNK     0      49.740 -10.581  37.822  0.00  0.00     0.126 A 
HETATM    7  C   UNK     0      48.487  -9.990  37.823  0.00  0.00    -0.011 A 
HETATM    8  C   UNK     0      48.343  -8.768  37.176  0.00  0.00     0.083 A 
HETATM    9  C   UNK     0      47.341 -10.657  38.501  0.00  0.00     0.052 C 
HETATM   10  C   UNK     0      49.443  -8.182  36.557  0.00  0.00    -0.003 A 
HETATM   11  C   UNK     0      49.315  -6.871  35.856  0.00  0.00     0.053 C 
BRANCH   8  12
HETATM   12  O   UNK     0      47.130  -8.146  37.151  0.00  0.00    -0.355 OA
HETATM   13  C   UNK     0      46.818  -7.289  38.247  0.00  0.00     0.210 C 
ENDBRANCH   8  12
ENDBRANCH   3   4
ENDBRANCH   1   3
BRANCH   1  14
HETATM   14  C   UNK     0      53.914 -10.021  35.327  0.00  0.00     0.198 A 
HETATM   15  N   UNK     0      53.226 -10.168  34.155  0.00  0.00    -0.331 N 
HETATM   16  C   UNK     0      53.917 -11.057  33.372  0.00  0.00     0.066 A 
HETATM   17  H   UNK     0      52.360  -9.707  33.908  0.00  0.00     0.168 HD
HETATM   18  C   UNK     0      55.022 -11.409  34.141  0.00  0.00     0.086 A 
HETATM   19  C   UNK     0      53.677 -11.568  32.096  0.00  0.00     0.068 A 
HETATM   20  N   UNK     0      55.004 -10.756  35.352  0.00  0.00    -0.221 NA
HETATM   21  C   UNK     0      55.954 -12.324  33.623  0.00  0.00     0.037 A 
HETATM   22  C   UNK     0      55.734 -12.850  32.344  0.00  0.00     0.039 A 
HETATM   23  C   UNK     0      54.615 -12.477  31.595  0.00  0.00     0.070 A 
BRANCH  23  24
HETATM   24  O   UNK     0      54.432 -13.008  30.353  0.00  0.00    -0.356 OA
HETATM   25  C   UNK     0      54.541 -12.117  29.246  0.00  0.00     0.210 C 
ENDBRANCH  23  24
ENDBRANCH   1  14
TORSDOF 5
ENDMDL
MODEL 3
REMARK VINA RESULT:      -7.9      4.290      7.482
REMARK  5 active torsions:
REMARK  status: ('A' for Active; 'I' for Inactive)
REMARK    1  A    between atoms: S_1  and  C_8 
REMARK    2  A    between atoms: S_1  and  C_11 
REMARK    3  A    between atoms: O_2  and  C_13 
REMARK    4  A    between atoms: O_4  and  C_20 
REMARK    5  A    between atoms: C_8  and  C_9 
ROOT
HETATM    1  S   UNK     0      53.026  -9.021  37.282  0.00  0.00     0.091 S 
HETATM    2  O   UNK     0      53.299  -9.813  38.546  0.00  0.00    -0.249 OA
ENDROOT
BRANCH   1   3
HETATM    3  C   UNK     0      54.178  -7.617  37.273  0.00  0.00     0.177 C 
BRANCH   3   4
HETATM    4  C   UNK     0      53.654  -6.476  36.450  0.00  0.00     0.055 A 
HETATM    5  N   UNK     0      52.533  -6.735  35.748  0.00  0.00    -0.263 NA
HETATM    6  C   UNK     0      52.049  -5.717  35.003  0.00  0.00     0.126 A 
HETATM    7  C   UNK     0      52.634  -4.463  34.930  0.00  0.00    -0.011 A 
HETATM    8  C   UNK     0      53.789  -4.240  35.670  0.00  0.00     0.083 A 
HETATM    9  C   UNK     0      52.029  -3.400  34.080  0.00  0.00     0.052 C 
HETATM   10  C   UNK     0      54.317  -5.264  36.449  0.00  0.00    -0.003 A 
HETATM   11  C   UNK     0      55.556  -5.049  37.253  0.00  0.00     0.053 C 
BRANCH   8  12
HETATM   12  O   UNK     0      54.400  -3.021  35.632  0.00  0.00    -0.355 OA
HETATM   13  C   UNK     0      54.069  -2.098  36.666  0.00  0.00     0.210 C 
ENDBRANCH   8  12
ENDBRANCH   3   4
ENDBRANCH   1   3
BRANCH   1  14
HETATM   14  C   UNK     0      53.641  -9.946  35.881  0.00  0.00     0.198 A 
HETATM   15  N   UNK     0      53.110  -9.876  34.623  0.00  0.00    -0.331 N 
HETATM   16  C   UNK     0      53.831 -10.719  33.817  0.00  0.00     0.066 A 
HETATM   17  H   UNK     0      52.325  -9.306  34.336  0.00  0.00     0.168 HD
HETATM   18  C   UNK     0      54.790 -11.271  34.662  0.00  0.00     0.086 A 
HETATM   19  C   UNK     0      53.729 -11.037  32.462  0.00  0.00     0.068 A 
HETATM   20  N   UNK     0      54.656 -10.778  35.941  0.00  0.00    -0.221 NA
HETATM   21  C   UNK     0      55.710 -12.196  34.142  0.00  0.00     0.037 A 
HETATM   22  C   UNK     0      55.627 -12.530  32.785  0.00  0.00     0.039 A 
HETATM   23  C   UNK     0      54.654 -11.960  31.961  0.00  0.00     0.070 A 
BRANCH  23  24
HETATM   24  O   UNK     0      54.603 -12.308  30.644  0.00  0.00    -0.356 OA
HETATM   25  C   UNK     0      53.871 -11.447  29.776  0.00  0.00     0.210 C 
ENDBRANCH  23  24
ENDBRANCH   1  14
TORSDOF 5
ENDMDL
