MODEL 1
REMARK VINA RESULT:      -8.3      0.000      0.000
REMARK  5 active torsions:
REMARK  status: ('A' for Active; 'I' for Inactive)
REMARK    1  A    between atoms: S_1  and  C_8 
REMARK    2  A    between atoms: S_1  and  C_11 
REMARK    3  A    between atoms: O_2  and  C_13 
REMARK    4  A    between atoms: O_4  and  C_20 
REMARK    5  A    between atoms: C_8  and  C_9 
ROOT
HETATM    1  S   UNK     0     -24.094 -15.528  25.676  0.00  0.00     0.091 S 
HETATM    2  O   UNK     0     -23.501 -15.747  24.298  0.00  0.00    -0.249 OA
ENDROOT
BRANCH   1   3
HETATM    3  C   UNK     0     -24.143 -13.735  25.957  0.00  0.00     0.177 C 
BRANCH   3   4
HETATM    4  C   UNK     0     -22.831 -13.085  25.622  0.00  0.00     0.055 A 
HETATM    5  N   UNK     0     -22.775 -12.485  24.416  0.00  0.00    -0.263 NA
HETATM    6  C   UNK     0     -21.601 -11.894  24.100  0.00  0.00     0.126 A 
HETATM    7  C   UNK     0     -20.492 -11.879  24.931  0.00  0.00    -0.011 A 
HETATM    8  C   UNK     0     -20.595 -12.511  26.165  0.00  0.00     0.083 A 
HETATM    9  C   UNK     0     -19.238 -11.203  24.498  0.00  0.00     0.052 C 
HETATM   10  C   UNK     0     -21.788 -13.129  26.526  0.00  0.00    -0.003 A 
HETATM   11  C   UNK     0     -21.924 -13.812  27.845  0.00  0.00     0.053 C 
BRANCH   8  12
HETATM   12  O   UNK     0     -19.532 -12.521  27.018  0.00  0.00    -0.355 OA
HETATM   13  C   UNK     0     -19.345 -11.367  27.834  0.00  0.00     0.210 C 
ENDBRANCH   8  12
ENDBRANCH   3   4
ENDBRANCH   1   3
BRANCH   1  14
HETATM   14  C   UNK     0     -25.845 -15.888  25.612  0.00  0.00     0.198 A 
HETATM   15  N   UNK     0     -26.762 -15.121  24.949  0.00  0.00    -0.331 N 
HETATM   16  C   UNK     0     -27.993 -15.699  25.122  0.00  0.00     0.066 A 
HETATM   17  H   UNK     0     -26.569 -14.277  24.427  0.00  0.00     0.168 HD
HETATM   18  C   UNK     0     -27.743 -16.822  25.906  0.00  0.00     0.086 A 
HETATM   19  C   UNK     0     -29.267 -15.346  24.673  0.00  0.00     0.068 A 
HETATM   20  N   UNK     0     -26.402 -16.923  26.200  0.00  0.00    -0.221 NA
HETATM   21  C   UNK     0     -28.814 -17.653  26.273  0.00  0.00     0.037 A 
HETATM   22  C   UNK     0     -30.100 -17.319  25.834  0.00  0.00     0.039 A 
HETATM   23  C   UNK     0     -30.322 -16.185  25.048  0.00  0.00     0.070 A 
BRANCH  23  24
HETATM   24  O   UNK     0     -31.588 -15.891  24.638  0.00  0.00    -0.356 OA
HETATM   25  C   UNK     0     -32.615 -16.808  25.004  0.00  0.00     0.210 C 
ENDBRANCH  23  24
ENDBRANCH   1  14
TORSDOF 5
ENDMDL
MODEL 2
REMARK VINA RESULT:      -8.2      7.642     10.671
REMARK  5 active torsions:
REMARK  status: ('A' for Active; 'I' for Inactive)
REMARK    1  A    between atoms: S_1  and  C_8 
REMARK    2  A    between atoms: S_1  and  C_11 
REMARK    3  A    between atoms: O_2  and  C_13 
REMARK    4  A    between atoms: O_4  and  C_20 
REMARK    5  A    between atoms: C_8  and  C_9 
ROOT
HETATM    1  S   UNK     0     -24.455 -15.667  33.217  0.00  0.00     0.091 S 
HETATM    2  O   UNK     0     -25.740 -16.304  32.722  0.00  0.00    -0.249 OA
ENDROOT
BRANCH   1   3
HETATM    3  C   UNK     0     -23.396 -17.009  33.829  0.00  0.00     0.177 C 
BRANCH   3   4
HETATM    4  C   UNK     0     -22.851 -16.707  35.195  0.00  0.00     0.055 A 
HETATM    5  N   UNK     0     -21.889 -15.763  35.237  0.00  0.00    -0.263 NA
HETATM    6  C   UNK     0     -21.389 -15.478  36.460  0.00  0.00     0.126 A 
HETATM    7  C   UNK     0     -21.805 -16.092  37.631  0.00  0.00    -0.011 A 
HETATM    8  C   UNK     0     -22.799 -17.060  37.539  0.00  0.00     0.083 A 
HETATM    9  C   UNK     0     -21.196 -15.714  38.936  0.00  0.00     0.052 C 
HETATM   10  C   UNK     0     -23.339 -17.379  36.298  0.00  0.00    -0.003 A 
HETATM   11  C   UNK     0     -24.407 -18.414  36.174  0.00  0.00     0.053 C 
BRANCH   8  12
HETATM   12  O   UNK     0     -23.243 -17.691  38.664  0.00  0.00    -0.355 OA
HETATM   13  C   UNK     0     -22.605 -18.917  39.013  0.00  0.00     0.210 C 
ENDBRANCH   8  12
ENDBRANCH   3   4
ENDBRANCH   1   3
BRANCH   1  14
HETATM   14  C   UNK     0     -23.501 -15.127  31.804  0.00  0.00     0.198 A 
HETATM   15  N   UNK     0     -22.135 -15.107  31.764  0.00  0.00    -0.331 N 
HETATM   16  C   UNK     0     -21.760 -14.634  30.533  0.00  0.00     0.066 A 
HETATM   17  H   UNK     0     -21.511 -15.387  32.508  0.00  0.00     0.168 HD
HETATM   18  C   UNK     0     -22.962 -14.387  29.875  0.00  0.00     0.086 A 
HETATM   19  C   UNK     0     -20.510 -14.407  29.955  0.00  0.00     0.068 A 
HETATM   20  N   UNK     0     -24.033 -14.700  30.681  0.00  0.00    -0.221 NA
HETATM   21  C   UNK     0     -22.934 -13.885  28.564  0.00  0.00     0.037 A 
HETATM   22  C   UNK     0     -21.692 -13.650  27.964  0.00  0.00     0.039 A 
HETATM   23  C   UNK     0     -20.501 -13.908  28.648  0.00  0.00     0.070 A 
BRANCH  23  24
HETATM   24  O   UNK     0     -19.308 -13.668  28.033  0.00  0.00    -0.356 OA
HETATM   25  C   UNK     0     -19.352 -13.318  26.652  0.00  0.00     0.210 C 
ENDBRANCH  23  24
ENDBRANCH   1  14
TORSDOF 5
ENDMDL
MODEL 3
REMARK VINA RESULT:      -7.8      2.532      9.295
REMARK  5 active torsions:
REMARK  status: ('A' for Active; 'I' for Inactive)
REMARK    1  A    between atoms: S_1  and  C_8 
REMARK    2  A    between atoms: S_1  and  C_11 
REMARK    3  A    between atoms: O_2  and  C_13 
REMARK    4  A    between atoms: O_4  and  C_20 
REMARK    5  A    between atoms: C_8  and  C_9 
ROOT
HETATM    1  S   UNK     0     -27.650 -16.103  29.177  0.00  0.00     0.091 S 
HETATM    2  O   UNK     0     -28.690 -15.000  29.176  0.00  0.00    -0.249 OA
ENDROOT
BRANCH   1   3
HETATM    3  C   UNK     0     -27.915 -17.087  27.674  0.00  0.00     0.177 C 
BRANCH   3   4
HETATM    4  C   UNK     0     -29.375 -17.210  27.342  0.00  0.00     0.055 A 
HETATM    5  N   UNK     0     -30.087 -18.015  28.157  0.00  0.00    -0.263 NA
HETATM    6  C   UNK     0     -31.402 -18.135  27.872  0.00  0.00     0.126 A 
HETATM    7  C   UNK     0     -32.029 -17.493  26.817  0.00  0.00    -0.011 A 
HETATM    8  C   UNK     0     -31.256 -16.674  26.002  0.00  0.00     0.083 A 
HETATM    9  C   UNK     0     -33.486 -17.685  26.579  0.00  0.00     0.052 C 
HETATM   10  C   UNK     0     -29.898 -16.524  26.264  0.00  0.00    -0.003 A 
HETATM   11  C   UNK     0     -29.047 -15.650  25.405  0.00  0.00     0.053 C 
BRANCH   8  12
HETATM   12  O   UNK     0     -31.829 -16.019  24.952  0.00  0.00    -0.355 OA
HETATM   13  C   UNK     0     -31.930 -16.732  23.721  0.00  0.00     0.210 C 
ENDBRANCH   8  12
ENDBRANCH   3   4
ENDBRANCH   1   3
BRANCH   1  14
HETATM   14  C   UNK     0     -26.053 -15.387  28.811  0.00  0.00     0.198 A 
HETATM   15  N   UNK     0     -25.642 -15.029  27.558  0.00  0.00    -0.331 N 
HETATM   16  C   UNK     0     -24.372 -14.522  27.662  0.00  0.00     0.066 A 
HETATM   17  H   UNK     0     -26.176 -15.122  26.704  0.00  0.00     0.168 HD
HETATM   18  C   UNK     0     -24.076 -14.605  29.020  0.00  0.00     0.086 A 
HETATM   19  C   UNK     0     -23.482 -14.014  26.714  0.00  0.00     0.068 A 
HETATM   20  N   UNK     0     -25.133 -15.144  29.718  0.00  0.00    -0.221 NA
HETATM   21  C   UNK     0     -22.825 -14.159  29.477  0.00  0.00     0.037 A 
HETATM   22  C   UNK     0     -21.917 -13.646  28.544  0.00  0.00     0.039 A 
HETATM   23  C   UNK     0     -22.241 -13.575  27.186  0.00  0.00     0.070 A 
BRANCH  23  24
HETATM   24  O   UNK     0     -21.333 -13.068  26.305  0.00  0.00    -0.356 OA
HETATM   25  C   UNK     0     -21.830 -12.193  25.296  0.00  0.00     0.210 C 
ENDBRANCH  23  24
ENDBRANCH   1  14
TORSDOF 5
ENDMDL
