MODEL 1
REMARK VINA RESULT:      -7.9      0.000      0.000
REMARK  5 active torsions:
REMARK  status: ('A' for Active; 'I' for Inactive)
REMARK    1  A    between atoms: S_1  and  C_8 
REMARK    2  A    between atoms: S_1  and  C_11 
REMARK    3  A    between atoms: O_2  and  C_13 
REMARK    4  A    between atoms: O_4  and  C_20 
REMARK    5  A    between atoms: C_8  and  C_9 
ROOT
HETATM    1  S   UNK     0     -24.427 -15.856  32.839  0.00  0.00     0.091 S 
HETATM    2  O   UNK     0     -25.624 -16.525  32.191  0.00  0.00    -0.249 OA
ENDROOT
BRANCH   1   3
HETATM    3  C   UNK     0     -23.395 -17.174  33.542  0.00  0.00     0.177 C 
BRANCH   3   4
HETATM    4  C   UNK     0     -23.024 -16.887  34.969  0.00  0.00     0.055 A 
HETATM    5  N   UNK     0     -22.375 -15.723  35.174  0.00  0.00    -0.263 NA
HETATM    6  C   UNK     0     -22.035 -15.450  36.453  0.00  0.00     0.126 A 
HETATM    7  C   UNK     0     -22.313 -16.284  37.525  0.00  0.00    -0.011 A 
HETATM    8  C   UNK     0     -22.982 -17.474  37.266  0.00  0.00     0.083 A 
HETATM    9  C   UNK     0     -21.899 -15.900  38.903  0.00  0.00     0.052 C 
HETATM   10  C   UNK     0     -23.349 -17.790  35.962  0.00  0.00    -0.003 A 
HETATM   11  C   UNK     0     -24.070 -19.061  35.659  0.00  0.00     0.053 C 
BRANCH   8  12
HETATM   12  O   UNK     0     -23.279 -18.327  38.288  0.00  0.00    -0.355 OA
HETATM   13  C   UNK     0     -22.297 -19.306  38.621  0.00  0.00     0.210 C 
ENDBRANCH   8  12
ENDBRANCH   3   4
ENDBRANCH   1   3
BRANCH   1  14
HETATM   14  C   UNK     0     -23.341 -15.252  31.554  0.00  0.00     0.198 A 
HETATM   15  N   UNK     0     -23.756 -14.503  30.488  0.00  0.00    -0.331 N 
HETATM   16  C   UNK     0     -22.657 -14.229  29.716  0.00  0.00     0.066 A 
HETATM   17  H   UNK     0     -24.704 -14.204  30.301  0.00  0.00     0.168 HD
HETATM   18  C   UNK     0     -21.603 -14.849  30.381  0.00  0.00     0.086 A 
HETATM   19  C   UNK     0     -22.499 -13.513  28.528  0.00  0.00     0.068 A 
HETATM   20  N   UNK     0     -22.047 -15.480  31.521  0.00  0.00    -0.221 NA
HETATM   21  C   UNK     0     -20.308 -14.761  29.843  0.00  0.00     0.037 A 
HETATM   22  C   UNK     0     -20.125 -14.048  28.653  0.00  0.00     0.039 A 
HETATM   23  C   UNK     0     -21.203 -13.435  28.007  0.00  0.00     0.070 A 
BRANCH  23  24
HETATM   24  O   UNK     0     -20.988 -12.748  26.850  0.00  0.00    -0.356 OA
HETATM   25  C   UNK     0     -22.073 -12.682  25.928  0.00  0.00     0.210 C 
ENDBRANCH  23  24
ENDBRANCH   1  14
TORSDOF 5
ENDMDL
MODEL 2
REMARK VINA RESULT:      -7.6      4.859      7.943
REMARK  5 active torsions:
REMARK  status: ('A' for Active; 'I' for Inactive)
REMARK    1  A    between atoms: S_1  and  C_8 
REMARK    2  A    between atoms: S_1  and  C_11 
REMARK    3  A    between atoms: O_2  and  C_13 
REMARK    4  A    between atoms: O_4  and  C_20 
REMARK    5  A    between atoms: C_8  and  C_9 
ROOT
HETATM    1  S   UNK     0     -26.137 -15.963  30.630  0.00  0.00     0.091 S 
HETATM    2  O   UNK     0     -26.256 -15.900  32.140  0.00  0.00    -0.249 OA
ENDROOT
BRANCH   1   3
HETATM    3  C   UNK     0     -27.191 -14.647  29.957  0.00  0.00     0.177 C 
BRANCH   3   4
HETATM    4  C   UNK     0     -27.966 -15.115  28.758  0.00  0.00     0.055 A 
HETATM    5  N   UNK     0     -27.263 -15.831  27.858  0.00  0.00    -0.263 NA
HETATM    6  C   UNK     0     -27.947 -16.261  26.775  0.00  0.00     0.126 A 
HETATM    7  C   UNK     0     -29.291 -16.006  26.555  0.00  0.00    -0.011 A 
HETATM    8  C   UNK     0     -29.977 -15.263  27.509  0.00  0.00     0.083 A 
HETATM    9  C   UNK     0     -29.963 -16.520  25.330  0.00  0.00     0.052 C 
HETATM   10  C   UNK     0     -29.307 -14.804  28.638  0.00  0.00    -0.003 A 
HETATM   11  C   UNK     0     -30.021 -14.006  29.677  0.00  0.00     0.053 C 
BRANCH   8  12
HETATM   12  O   UNK     0     -31.301 -14.988  27.338  0.00  0.00    -0.355 OA
HETATM   13  C   UNK     0     -32.232 -15.917  27.889  0.00  0.00     0.210 C 
ENDBRANCH   8  12
ENDBRANCH   3   4
ENDBRANCH   1   3
BRANCH   1  14
HETATM   14  C   UNK     0     -24.524 -15.355  30.154  0.00  0.00     0.198 A 
HETATM   15  N   UNK     0     -24.300 -14.524  29.092  0.00  0.00    -0.331 N 
HETATM   16  C   UNK     0     -22.954 -14.274  29.033  0.00  0.00     0.066 A 
HETATM   17  H   UNK     0     -25.001 -14.160  28.460  0.00  0.00     0.168 HD
HETATM   18  C   UNK     0     -22.421 -14.992  30.100  0.00  0.00     0.086 A 
HETATM   19  C   UNK     0     -22.179 -13.504  28.164  0.00  0.00     0.068 A 
HETATM   20  N   UNK     0     -23.412 -15.657  30.785  0.00  0.00    -0.221 NA
HETATM   21  C   UNK     0     -21.035 -14.952  30.328  0.00  0.00     0.037 A 
HETATM   22  C   UNK     0     -20.238 -14.186  29.469  0.00  0.00     0.039 A 
HETATM   23  C   UNK     0     -20.801 -13.475  28.406  0.00  0.00     0.070 A 
BRANCH  23  24
HETATM   24  O   UNK     0     -19.995 -12.739  27.589  0.00  0.00    -0.356 OA
HETATM   25  C   UNK     0     -20.529 -12.364  26.322  0.00  0.00     0.210 C 
ENDBRANCH  23  24
ENDBRANCH   1  14
TORSDOF 5
ENDMDL
MODEL 3
REMARK VINA RESULT:      -7.5      1.610      2.226
REMARK  5 active torsions:
REMARK  status: ('A' for Active; 'I' for Inactive)
REMARK    1  A    between atoms: S_1  and  C_8 
REMARK    2  A    between atoms: S_1  and  C_11 
REMARK    3  A    between atoms: O_2  and  C_13 
REMARK    4  A    between atoms: O_4  and  C_20 
REMARK    5  A    between atoms: C_8  and  C_9 
ROOT
HETATM    1  S   UNK     0     -25.144 -15.937  32.798  0.00  0.00     0.091 S 
HETATM    2  O   UNK     0     -24.523 -17.302  33.022  0.00  0.00    -0.249 OA
ENDROOT
BRANCH   1   3
HETATM    3  C   UNK     0     -24.313 -14.781  33.924  0.00  0.00     0.177 C 
BRANCH   3   4
HETATM    4  C   UNK     0     -23.439 -15.500  34.912  0.00  0.00     0.055 A 
HETATM    5  N   UNK     0     -22.166 -15.702  34.517  0.00  0.00    -0.263 NA
HETATM    6  C   UNK     0     -21.366 -16.347  35.395  0.00  0.00     0.126 A 
HETATM    7  C   UNK     0     -21.783 -16.795  36.639  0.00  0.00    -0.011 A 
HETATM    8  C   UNK     0     -23.104 -16.565  37.004  0.00  0.00     0.083 A 
HETATM    9  C   UNK     0     -20.830 -17.498  37.542  0.00  0.00     0.052 C 
HETATM   10  C   UNK     0     -23.957 -15.904  36.127  0.00  0.00    -0.003 A 
HETATM   11  C   UNK     0     -25.379 -15.644  36.496  0.00  0.00     0.053 C 
BRANCH   8  12
HETATM   12  O   UNK     0     -23.560 -16.986  38.218  0.00  0.00    -0.355 OA
HETATM   13  C   UNK     0     -24.092 -18.307  38.289  0.00  0.00     0.210 C 
ENDBRANCH   8  12
ENDBRANCH   3   4
ENDBRANCH   1   3
BRANCH   1  14
HETATM   14  C   UNK     0     -24.586 -15.303  31.222  0.00  0.00     0.198 A 
HETATM   15  N   UNK     0     -23.367 -14.720  31.018  0.00  0.00    -0.331 N 
HETATM   16  C   UNK     0     -23.291 -14.357  29.698  0.00  0.00     0.066 A 
HETATM   17  H   UNK     0     -22.648 -14.577  31.716  0.00  0.00     0.168 HD
HETATM   18  C   UNK     0     -24.511 -14.756  29.159  0.00  0.00     0.086 A 
HETATM   19  C   UNK     0     -22.291 -13.732  28.952  0.00  0.00     0.068 A 
HETATM   20  N   UNK     0     -25.302 -15.342  30.121  0.00  0.00    -0.221 NA
HETATM   21  C   UNK     0     -24.765 -14.527  27.797  0.00  0.00     0.037 A 
HETATM   22  C   UNK     0     -23.776 -13.902  27.028  0.00  0.00     0.039 A 
HETATM   23  C   UNK     0     -22.561 -13.512  27.597  0.00  0.00     0.070 A 
BRANCH  23  24
HETATM   24  O   UNK     0     -21.620 -12.907  26.818  0.00  0.00    -0.356 OA
HETATM   25  C   UNK     0     -20.362 -13.566  26.694  0.00  0.00     0.210 C 
ENDBRANCH  23  24
ENDBRANCH   1  14
TORSDOF 5
ENDMDL
