MODEL 1
REMARK VINA RESULT:      -7.6      0.000      0.000
REMARK  5 active torsions:
REMARK  status: ('A' for Active; 'I' for Inactive)
REMARK    1  A    between atoms: S_1  and  C_8 
REMARK    2  A    between atoms: S_1  and  C_11 
REMARK    3  A    between atoms: O_2  and  C_13 
REMARK    4  A    between atoms: O_4  and  C_20 
REMARK    5  A    between atoms: C_8  and  C_9 
ROOT
HETATM    1  S   UNK     0     -38.605  48.403  16.003  0.00  0.00     0.091 S 
HETATM    2  O   UNK     0     -38.003  47.478  17.043  0.00  0.00    -0.249 OA
ENDROOT
BRANCH   1   3
HETATM    3  C   UNK     0     -40.103  49.124  16.732  0.00  0.00     0.177 C 
BRANCH   3   4
HETATM    4  C   UNK     0     -41.222  49.207  15.734  0.00  0.00     0.055 A 
HETATM    5  N   UNK     0     -40.858  49.569  14.487  0.00  0.00    -0.263 NA
HETATM    6  C   UNK     0     -41.854  49.647  13.577  0.00  0.00     0.126 A 
HETATM    7  C   UNK     0     -43.185  49.382  13.858  0.00  0.00    -0.011 A 
HETATM    8  C   UNK     0     -43.514  49.012  15.157  0.00  0.00     0.083 A 
HETATM    9  C   UNK     0     -44.216  49.494  12.789  0.00  0.00     0.052 C 
HETATM   10  C   UNK     0     -42.516  48.920  16.121  0.00  0.00    -0.003 A 
HETATM   11  C   UNK     0     -42.844  48.525  17.522  0.00  0.00     0.053 C 
BRANCH   8  12
HETATM   12  O   UNK     0     -44.810  48.739  15.481  0.00  0.00    -0.355 OA
HETATM   13  C   UNK     0     -45.253  47.395  15.307  0.00  0.00     0.210 C 
ENDBRANCH   8  12
ENDBRANCH   3   4
ENDBRANCH   1   3
BRANCH   1  14
HETATM   14  C   UNK     0     -37.581  49.863  15.871  0.00  0.00     0.198 A 
HETATM   15  N   UNK     0     -36.214  49.844  15.869  0.00  0.00    -0.331 N 
HETATM   16  C   UNK     0     -35.777  51.138  15.757  0.00  0.00     0.066 A 
HETATM   17  H   UNK     0     -35.628  49.022  15.940  0.00  0.00     0.168 HD
HETATM   18  C   UNK     0     -36.945  51.894  15.695  0.00  0.00     0.086 A 
HETATM   19  C   UNK     0     -34.499  51.697  15.707  0.00  0.00     0.068 A 
HETATM   20  N   UNK     0     -38.055  51.084  15.767  0.00  0.00    -0.221 NA
HETATM   21  C   UNK     0     -36.851  53.290  15.576  0.00  0.00     0.037 A 
HETATM   22  C   UNK     0     -35.579  53.873  15.523  0.00  0.00     0.039 A 
HETATM   23  C   UNK     0     -34.424  53.089  15.587  0.00  0.00     0.070 A 
BRANCH  23  24
HETATM   24  O   UNK     0     -33.202  53.689  15.532  0.00  0.00    -0.356 OA
HETATM   25  C   UNK     0     -32.092  52.865  15.187  0.00  0.00     0.210 C 
ENDBRANCH  23  24
ENDBRANCH   1  14
TORSDOF 5
ENDMDL
MODEL 2
REMARK VINA RESULT:      -7.3      2.274      3.307
REMARK  5 active torsions:
REMARK  status: ('A' for Active; 'I' for Inactive)
REMARK    1  A    between atoms: S_1  and  C_8 
REMARK    2  A    between atoms: S_1  and  C_11 
REMARK    3  A    between atoms: O_2  and  C_13 
REMARK    4  A    between atoms: O_4  and  C_20 
REMARK    5  A    between atoms: C_8  and  C_9 
ROOT
HETATM    1  S   UNK     0     -41.704  47.235  15.713  0.00  0.00     0.091 S 
HETATM    2  O   UNK     0     -41.574  46.255  16.863  0.00  0.00    -0.249 OA
ENDROOT
BRANCH   1   3
HETATM    3  C   UNK     0     -43.075  48.354  16.120  0.00  0.00     0.177 C 
BRANCH   3   4
HETATM    4  C   UNK     0     -43.903  48.680  14.910  0.00  0.00     0.055 A 
HETATM    5  N   UNK     0     -43.262  49.354  13.935  0.00  0.00    -0.263 NA
HETATM    6  C   UNK     0     -43.994  49.654  12.839  0.00  0.00     0.126 A 
HETATM    7  C   UNK     0     -45.327  49.312  12.679  0.00  0.00    -0.011 A 
HETATM    8  C   UNK     0     -45.948  48.617  13.711  0.00  0.00     0.083 A 
HETATM    9  C   UNK     0     -46.055  49.684  11.435  0.00  0.00     0.052 C 
HETATM   10  C   UNK     0     -45.227  48.291  14.855  0.00  0.00    -0.003 A 
HETATM   11  C   UNK     0     -45.871  47.545  15.975  0.00  0.00     0.053 C 
BRANCH   8  12
HETATM   12  O   UNK     0     -47.259  48.257  13.600  0.00  0.00    -0.355 OA
HETATM   13  C   UNK     0     -47.535  46.999  12.989  0.00  0.00     0.210 C 
ENDBRANCH   8  12
ENDBRANCH   3   4
ENDBRANCH   1   3
BRANCH   1  14
HETATM   14  C   UNK     0     -40.330  48.378  15.774  0.00  0.00     0.198 A 
HETATM   15  N   UNK     0     -40.184  49.446  14.934  0.00  0.00    -0.331 N 
HETATM   16  C   UNK     0     -39.020  50.087  15.272  0.00  0.00     0.066 A 
HETATM   17  H   UNK     0     -40.818  49.716  14.194  0.00  0.00     0.168 HD
HETATM   18  C   UNK     0     -38.511  49.345  16.334  0.00  0.00     0.086 A 
HETATM   19  C   UNK     0     -38.387  51.219  14.756  0.00  0.00     0.068 A 
HETATM   20  N   UNK     0     -39.339  48.286  16.632  0.00  0.00    -0.221 NA
HETATM   21  C   UNK     0     -37.300  49.740  16.928  0.00  0.00     0.037 A 
HETATM   22  C   UNK     0     -36.648  50.872  16.426  0.00  0.00     0.039 A 
HETATM   23  C   UNK     0     -37.183  51.599  15.359  0.00  0.00     0.070 A 
BRANCH  23  24
HETATM   24  O   UNK     0     -36.522  52.697  14.897  0.00  0.00    -0.356 OA
HETATM   25  C   UNK     0     -36.864  53.951  15.481  0.00  0.00     0.210 C 
ENDBRANCH  23  24
ENDBRANCH   1  14
TORSDOF 5
ENDMDL
MODEL 3
REMARK VINA RESULT:      -7.0      4.246      6.497
REMARK  5 active torsions:
REMARK  status: ('A' for Active; 'I' for Inactive)
REMARK    1  A    between atoms: S_1  and  C_8 
REMARK    2  A    between atoms: S_1  and  C_11 
REMARK    3  A    between atoms: O_2  and  C_13 
REMARK    4  A    between atoms: O_4  and  C_20 
REMARK    5  A    between atoms: C_8  and  C_9 
ROOT
HETATM    1  S   UNK     0     -42.430  47.957  18.168  0.00  0.00     0.091 S 
HETATM    2  O   UNK     0     -42.430  49.473  18.133  0.00  0.00    -0.249 OA
ENDROOT
BRANCH   1   3
HETATM    3  C   UNK     0     -41.771  47.388  16.574  0.00  0.00     0.177 C 
BRANCH   3   4
HETATM    4  C   UNK     0     -40.895  48.425  15.934  0.00  0.00     0.055 A 
HETATM    5  N   UNK     0     -39.609  48.427  16.340  0.00  0.00    -0.263 NA
HETATM    6  C   UNK     0     -38.807  49.354  15.772  0.00  0.00     0.126 A 
HETATM    7  C   UNK     0     -39.232  50.272  14.824  0.00  0.00    -0.011 A 
HETATM    8  C   UNK     0     -40.567  50.234  14.435  0.00  0.00     0.083 A 
HETATM    9  C   UNK     0     -38.276  51.260  14.252  0.00  0.00     0.052 C 
HETATM   10  C   UNK     0     -41.422  49.293  14.998  0.00  0.00    -0.003 A 
HETATM   11  C   UNK     0     -42.858  49.232  14.596  0.00  0.00     0.053 C 
BRANCH   8  12
HETATM   12  O   UNK     0     -41.032  51.116  13.505  0.00  0.00    -0.355 OA
HETATM   13  C   UNK     0     -40.985  50.703  12.141  0.00  0.00     0.210 C 
ENDBRANCH   8  12
ENDBRANCH   3   4
ENDBRANCH   1   3
BRANCH   1  14
HETATM   14  C   UNK     0     -41.128  47.408  19.265  0.00  0.00     0.198 A 
HETATM   15  N   UNK     0     -39.942  48.065  19.437  0.00  0.00    -0.331 N 
HETATM   16  C   UNK     0     -39.197  47.355  20.343  0.00  0.00     0.066 A 
HETATM   17  H   UNK     0     -39.661  48.921  18.977  0.00  0.00     0.168 HD
HETATM   18  C   UNK     0     -40.003  46.271  20.680  0.00  0.00     0.086 A 
HETATM   19  C   UNK     0     -37.926  47.561  20.880  0.00  0.00     0.068 A 
HETATM   20  N   UNK     0     -41.199  46.321  20.000  0.00  0.00    -0.221 NA
HETATM   21  C   UNK     0     -39.530  45.327  21.606  0.00  0.00     0.037 A 
HETATM   22  C   UNK     0     -38.257  45.514  22.159  0.00  0.00     0.039 A 
HETATM   23  C   UNK     0     -37.470  46.612  21.801  0.00  0.00     0.070 A 
BRANCH  23  24
HETATM   24  O   UNK     0     -36.236  46.762  22.359  0.00  0.00    -0.356 OA
HETATM   25  C   UNK     0     -35.153  46.087  21.725  0.00  0.00     0.210 C 
ENDBRANCH  23  24
ENDBRANCH   1  14
TORSDOF 5
ENDMDL
