MODEL 1
REMARK VINA RESULT:      -7.3      0.000      0.000
REMARK  5 active torsions:
REMARK  status: ('A' for Active; 'I' for Inactive)
REMARK    1  A    between atoms: S_1  and  C_8 
REMARK    2  A    between atoms: S_1  and  C_11 
REMARK    3  A    between atoms: O_2  and  C_13 
REMARK    4  A    between atoms: O_4  and  C_20 
REMARK    5  A    between atoms: C_8  and  C_9 
ROOT
HETATM    1  S   UNK     0     -32.683 -46.598   0.538  0.00  0.00     0.091 S 
HETATM    2  O   UNK     0     -32.884 -45.698  -0.665  0.00  0.00    -0.249 OA
ENDROOT
BRANCH   1   3
HETATM    3  C   UNK     0     -33.308 -48.241   0.085  0.00  0.00     0.177 C 
BRANCH   3   4
HETATM    4  C   UNK     0     -34.796 -48.337   0.262  0.00  0.00     0.055 A 
HETATM    5  N   UNK     0     -35.411 -47.191   0.619  0.00  0.00    -0.263 NA
HETATM    6  C   UNK     0     -36.750 -47.261   0.781  0.00  0.00     0.126 A 
HETATM    7  C   UNK     0     -37.494 -48.416   0.603  0.00  0.00    -0.011 A 
HETATM    8  C   UNK     0     -36.819 -49.574   0.235  0.00  0.00     0.083 A 
HETATM    9  C   UNK     0     -38.970 -48.399   0.805  0.00  0.00     0.052 C 
HETATM   10  C   UNK     0     -35.440 -49.542   0.058  0.00  0.00    -0.003 A 
HETATM   11  C   UNK     0     -34.693 -50.771  -0.338  0.00  0.00     0.053 C 
BRANCH   8  12
HETATM   12  O   UNK     0     -37.508 -50.736   0.046  0.00  0.00    -0.355 OA
HETATM   13  C   UNK     0     -38.075 -50.951  -1.244  0.00  0.00     0.210 C 
ENDBRANCH   8  12
ENDBRANCH   3   4
ENDBRANCH   1   3
BRANCH   1  14
HETATM   14  C   UNK     0     -30.938 -46.955   0.704  0.00  0.00     0.198 A 
HETATM   15  N   UNK     0     -29.955 -46.006   0.676  0.00  0.00    -0.331 N 
HETATM   16  C   UNK     0     -28.752 -46.646   0.827  0.00  0.00     0.066 A 
HETATM   17  H   UNK     0     -30.089 -45.010   0.561  0.00  0.00     0.168 HD
HETATM   18  C   UNK     0     -29.087 -47.992   0.943  0.00  0.00     0.086 A 
HETATM   19  C   UNK     0     -27.438 -46.176   0.872  0.00  0.00     0.068 A 
HETATM   20  N   UNK     0     -30.450 -48.165   0.865  0.00  0.00    -0.221 NA
HETATM   21  C   UNK     0     -28.064 -48.940   1.114  0.00  0.00     0.037 A 
HETATM   22  C   UNK     0     -26.739 -48.492   1.162  0.00  0.00     0.039 A 
HETATM   23  C   UNK     0     -26.433 -47.134   1.043  0.00  0.00     0.070 A 
BRANCH  23  24
HETATM   24  O   UNK     0     -25.131 -46.733   1.094  0.00  0.00    -0.356 OA
HETATM   25  C   UNK     0     -24.352 -46.913  -0.086  0.00  0.00     0.210 C 
ENDBRANCH  23  24
ENDBRANCH   1  14
TORSDOF 5
ENDMDL
MODEL 2
REMARK VINA RESULT:      -7.0      9.690     11.332
REMARK  5 active torsions:
REMARK  status: ('A' for Active; 'I' for Inactive)
REMARK    1  A    between atoms: S_1  and  C_8 
REMARK    2  A    between atoms: S_1  and  C_11 
REMARK    3  A    between atoms: O_2  and  C_13 
REMARK    4  A    between atoms: O_4  and  C_20 
REMARK    5  A    between atoms: C_8  and  C_9 
ROOT
HETATM    1  S   UNK     0     -32.995 -56.323   5.936  0.00  0.00     0.091 S 
HETATM    2  O   UNK     0     -32.518 -57.747   6.146  0.00  0.00    -0.249 OA
ENDROOT
BRANCH   1   3
HETATM    3  C   UNK     0     -32.460 -55.363   7.381  0.00  0.00     0.177 C 
BRANCH   3   4
HETATM    4  C   UNK     0     -31.329 -56.034   8.105  0.00  0.00     0.055 A 
HETATM    5  N   UNK     0     -30.101 -55.804   7.600  0.00  0.00    -0.263 NA
HETATM    6  C   UNK     0     -29.072 -56.401   8.242  0.00  0.00     0.126 A 
HETATM    7  C   UNK     0     -29.218 -57.210   9.357  0.00  0.00    -0.011 A 
HETATM    8  C   UNK     0     -30.503 -57.421   9.843  0.00  0.00     0.083 A 
HETATM    9  C   UNK     0     -28.025 -57.827  10.000  0.00  0.00     0.052 C 
HETATM   10  C   UNK     0     -31.587 -56.823   9.209  0.00  0.00    -0.003 A 
HETATM   11  C   UNK     0     -32.976 -57.032   9.713  0.00  0.00     0.053 C 
BRANCH   8  12
HETATM   12  O   UNK     0     -30.698 -58.208  10.939  0.00  0.00    -0.355 OA
HETATM   13  C   UNK     0     -30.898 -59.601  10.709  0.00  0.00     0.210 C 
ENDBRANCH   8  12
ENDBRANCH   3   4
ENDBRANCH   1   3
BRANCH   1  14
HETATM   14  C   UNK     0     -31.995 -55.566   4.661  0.00  0.00     0.198 A 
HETATM   15  N   UNK     0     -30.665 -55.281   4.797  0.00  0.00    -0.331 N 
HETATM   16  C   UNK     0     -30.238 -54.706   3.628  0.00  0.00     0.066 A 
HETATM   17  H   UNK     0     -30.097 -55.460   5.614  0.00  0.00     0.168 HD
HETATM   18  C   UNK     0     -31.373 -54.675   2.823  0.00  0.00     0.086 A 
HETATM   19  C   UNK     0     -28.994 -54.226   3.218  0.00  0.00     0.068 A 
HETATM   20  N   UNK     0     -32.455 -55.213   3.481  0.00  0.00    -0.221 NA
HETATM   21  C   UNK     0     -31.280 -54.135   1.529  0.00  0.00     0.037 A 
HETATM   22  C   UNK     0     -30.042 -53.647   1.096  0.00  0.00     0.039 A 
HETATM   23  C   UNK     0     -28.919 -53.692   1.927  0.00  0.00     0.070 A 
BRANCH  23  24
HETATM   24  O   UNK     0     -27.729 -53.208   1.472  0.00  0.00    -0.356 OA
HETATM   25  C   UNK     0     -26.552 -53.656   2.140  0.00  0.00     0.210 C 
ENDBRANCH  23  24
ENDBRANCH   1  14
TORSDOF 5
ENDMDL
MODEL 3
REMARK VINA RESULT:      -6.6      9.805     11.500
REMARK  5 active torsions:
REMARK  status: ('A' for Active; 'I' for Inactive)
REMARK    1  A    between atoms: S_1  and  C_8 
REMARK    2  A    between atoms: S_1  and  C_11 
REMARK    3  A    between atoms: O_2  and  C_13 
REMARK    4  A    between atoms: O_4  and  C_20 
REMARK    5  A    between atoms: C_8  and  C_9 
ROOT
HETATM    1  S   UNK     0     -32.961 -56.330   6.018  0.00  0.00     0.091 S 
HETATM    2  O   UNK     0     -32.639 -57.811   6.059  0.00  0.00    -0.249 OA
ENDROOT
BRANCH   1   3
HETATM    3  C   UNK     0     -32.157 -55.570   7.458  0.00  0.00     0.177 C 
BRANCH   3   4
HETATM    4  C   UNK     0     -31.535 -56.602   8.355  0.00  0.00     0.055 A 
HETATM    5  N   UNK     0     -32.404 -57.420   8.983  0.00  0.00    -0.263 NA
HETATM    6  C   UNK     0     -31.860 -58.355   9.793  0.00  0.00     0.126 A 
HETATM    7  C   UNK     0     -30.498 -58.504  10.001  0.00  0.00    -0.011 A 
HETATM    8  C   UNK     0     -29.640 -57.638   9.333  0.00  0.00     0.083 A 
HETATM    9  C   UNK     0     -29.988 -59.564  10.914  0.00  0.00     0.052 C 
HETATM   10  C   UNK     0     -30.162 -56.663   8.490  0.00  0.00    -0.003 A 
HETATM   11  C   UNK     0     -29.262 -55.722   7.762  0.00  0.00     0.053 C 
BRANCH   8  12
HETATM   12  O   UNK     0     -28.291 -57.747   9.504  0.00  0.00    -0.355 OA
HETATM   13  C   UNK     0     -27.577 -58.522   8.544  0.00  0.00     0.210 C 
ENDBRANCH   8  12
ENDBRANCH   3   4
ENDBRANCH   1   3
BRANCH   1  14
HETATM   14  C   UNK     0     -32.024 -55.575   4.695  0.00  0.00     0.198 A 
HETATM   15  N   UNK     0     -30.689 -55.291   4.765  0.00  0.00    -0.331 N 
HETATM   16  C   UNK     0     -30.319 -54.719   3.575  0.00  0.00     0.066 A 
HETATM   17  H   UNK     0     -30.081 -55.469   5.554  0.00  0.00     0.168 HD
HETATM   18  C   UNK     0     -31.492 -54.688   2.826  0.00  0.00     0.086 A 
HETATM   19  C   UNK     0     -29.096 -54.240   3.104  0.00  0.00     0.068 A 
HETATM   20  N   UNK     0     -32.541 -55.225   3.538  0.00  0.00    -0.221 NA
HETATM   21  C   UNK     0     -31.462 -54.151   1.529  0.00  0.00     0.037 A 
HETATM   22  C   UNK     0     -30.246 -53.664   1.035  0.00  0.00     0.039 A 
HETATM   23  C   UNK     0     -29.084 -53.709   1.810  0.00  0.00     0.070 A 
BRANCH  23  24
HETATM   24  O   UNK     0     -27.917 -53.227   1.296  0.00  0.00    -0.356 OA
HETATM   25  C   UNK     0     -26.751 -53.364   2.104  0.00  0.00     0.210 C 
ENDBRANCH  23  24
ENDBRANCH   1  14
TORSDOF 5
ENDMDL
