MODEL 1
REMARK VINA RESULT:      -7.9      0.000      0.000
REMARK  5 active torsions:
REMARK  status: ('A' for Active; 'I' for Inactive)
REMARK    1  A    between atoms: S_1  and  C_8 
REMARK    2  A    between atoms: S_1  and  C_11 
REMARK    3  A    between atoms: O_2  and  C_13 
REMARK    4  A    between atoms: O_4  and  C_20 
REMARK    5  A    between atoms: C_8  and  C_9 
ROOT
HETATM    1  S   UNK     0       4.915  10.324  17.398  0.00  0.00     0.091 S 
HETATM    2  O   UNK     0       6.256  10.741  16.827  0.00  0.00    -0.249 OA
ENDROOT
BRANCH   1   3
HETATM    3  C   UNK     0       4.285   8.980  16.351  0.00  0.00     0.177 C 
BRANCH   3   4
HETATM    4  C   UNK     0       3.189   8.212  17.034  0.00  0.00     0.055 A 
HETATM    5  N   UNK     0       2.103   8.935  17.376  0.00  0.00    -0.263 NA
HETATM    6  C   UNK     0       1.108   8.257  17.990  0.00  0.00     0.126 A 
HETATM    7  C   UNK     0       1.153   6.902  18.275  0.00  0.00    -0.011 A 
HETATM    8  C   UNK     0       2.292   6.197  17.905  0.00  0.00     0.083 A 
HETATM    9  C   UNK     0       0.007   6.239  18.956  0.00  0.00     0.052 C 
HETATM   10  C   UNK     0       3.337   6.860  17.270  0.00  0.00    -0.003 A 
HETATM   11  C   UNK     0       4.571   6.125  16.862  0.00  0.00     0.053 C 
BRANCH   8  12
HETATM   12  O   UNK     0       2.382   4.861  18.162  0.00  0.00    -0.355 OA
HETATM   13  C   UNK     0       2.812   4.480  19.467  0.00  0.00     0.210 C 
ENDBRANCH   8  12
ENDBRANCH   3   4
ENDBRANCH   1   3
BRANCH   1  14
HETATM   14  C   UNK     0       5.192   9.435  18.925  0.00  0.00     0.198 A 
HETATM   15  N   UNK     0       4.248   9.273  19.900  0.00  0.00    -0.331 N 
HETATM   16  C   UNK     0       4.815   8.548  20.916  0.00  0.00     0.066 A 
HETATM   17  H   UNK     0       3.300   9.626  19.879  0.00  0.00     0.168 HD
HETATM   18  C   UNK     0       6.116   8.304  20.482  0.00  0.00     0.086 A 
HETATM   19  C   UNK     0       4.318   8.098  22.140  0.00  0.00     0.068 A 
HETATM   20  N   UNK     0       6.331   8.862  19.243  0.00  0.00    -0.221 NA
HETATM   21  C   UNK     0       6.985   7.569  21.305  0.00  0.00     0.037 A 
HETATM   22  C   UNK     0       6.508   7.108  22.538  0.00  0.00     0.039 A 
HETATM   23  C   UNK     0       5.197   7.368  22.947  0.00  0.00     0.070 A 
BRANCH  23  24
HETATM   24  O   UNK     0       4.766   6.903  24.153  0.00  0.00    -0.356 OA
HETATM   25  C   UNK     0       3.408   6.480  24.235  0.00  0.00     0.210 C 
ENDBRANCH  23  24
ENDBRANCH   1  14
TORSDOF 5
ENDMDL
MODEL 2
REMARK VINA RESULT:      -7.7      2.313      4.534
REMARK  5 active torsions:
REMARK  status: ('A' for Active; 'I' for Inactive)
REMARK    1  A    between atoms: S_1  and  C_8 
REMARK    2  A    between atoms: S_1  and  C_11 
REMARK    3  A    between atoms: O_2  and  C_13 
REMARK    4  A    between atoms: O_4  and  C_20 
REMARK    5  A    between atoms: C_8  and  C_9 
ROOT
HETATM    1  S   UNK     0       1.922   5.145  18.445  0.00  0.00     0.091 S 
HETATM    2  O   UNK     0       0.511   4.843  18.914  0.00  0.00    -0.249 OA
ENDROOT
BRANCH   1   3
HETATM    3  C   UNK     0       1.833   6.639  17.416  0.00  0.00     0.177 C 
BRANCH   3   4
HETATM    4  C   UNK     0       3.179   7.014  16.865  0.00  0.00     0.055 A 
HETATM    5  N   UNK     0       3.945   5.982  16.458  0.00  0.00    -0.263 NA
HETATM    6  C   UNK     0       5.159   6.303  15.959  0.00  0.00     0.126 A 
HETATM    7  C   UNK     0       5.635   7.600  15.851  0.00  0.00    -0.011 A 
HETATM    8  C   UNK     0       4.812   8.633  16.284  0.00  0.00     0.083 A 
HETATM    9  C   UNK     0       6.989   7.859  15.288  0.00  0.00     0.052 C 
HETATM   10  C   UNK     0       3.555   8.342  16.803  0.00  0.00    -0.003 A 
HETATM   11  C   UNK     0       2.652   9.433  17.273  0.00  0.00     0.053 C 
BRANCH   8  12
HETATM   12  O   UNK     0       5.235   9.926  16.196  0.00  0.00    -0.355 OA
HETATM   13  C   UNK     0       5.917  10.462  17.328  0.00  0.00     0.210 C 
ENDBRANCH   8  12
ENDBRANCH   3   4
ENDBRANCH   1   3
BRANCH   1  14
HETATM   14  C   UNK     0       2.867   5.767  19.829  0.00  0.00     0.198 A 
HETATM   15  N   UNK     0       4.060   6.422  19.711  0.00  0.00    -0.331 N 
HETATM   16  C   UNK     0       4.489   6.744  20.973  0.00  0.00     0.066 A 
HETATM   17  H   UNK     0       4.544   6.631  18.848  0.00  0.00     0.168 HD
HETATM   18  C   UNK     0       3.495   6.248  21.813  0.00  0.00     0.086 A 
HETATM   19  C   UNK     0       5.626   7.406  21.439  0.00  0.00     0.068 A 
HETATM   20  N   UNK     0       2.495   5.645  21.084  0.00  0.00    -0.221 NA
HETATM   21  C   UNK     0       3.627   6.413  23.202  0.00  0.00     0.037 A 
HETATM   22  C   UNK     0       4.759   7.074  23.692  0.00  0.00     0.039 A 
HETATM   23  C   UNK     0       5.741   7.562  22.824  0.00  0.00     0.070 A 
BRANCH  23  24
HETATM   24  O   UNK     0       6.830   8.201  23.336  0.00  0.00    -0.356 OA
HETATM   25  C   UNK     0       7.660   7.455  24.223  0.00  0.00     0.210 C 
ENDBRANCH  23  24
ENDBRANCH   1  14
TORSDOF 5
ENDMDL
MODEL 3
REMARK VINA RESULT:      -7.5      1.241      1.339
REMARK  5 active torsions:
REMARK  status: ('A' for Active; 'I' for Inactive)
REMARK    1  A    between atoms: S_1  and  C_8 
REMARK    2  A    between atoms: S_1  and  C_11 
REMARK    3  A    between atoms: O_2  and  C_13 
REMARK    4  A    between atoms: O_4  and  C_20 
REMARK    5  A    between atoms: C_8  and  C_9 
ROOT
HETATM    1  S   UNK     0       4.252  11.233  17.157  0.00  0.00     0.091 S 
HETATM    2  O   UNK     0       5.358  11.970  16.427  0.00  0.00    -0.249 OA
ENDROOT
BRANCH   1   3
HETATM    3  C   UNK     0       3.698   9.889  16.068  0.00  0.00     0.177 C 
BRANCH   3   4
HETATM    4  C   UNK     0       2.855   8.889  16.806  0.00  0.00     0.055 A 
HETATM    5  N   UNK     0       1.738   9.384  17.376  0.00  0.00    -0.263 NA
HETATM    6  C   UNK     0       0.968   8.496  18.043  0.00  0.00     0.126 A 
HETATM    7  C   UNK     0       1.265   7.148  18.164  0.00  0.00    -0.011 A 
HETATM    8  C   UNK     0       2.428   6.682  17.560  0.00  0.00     0.083 A 
HETATM    9  C   UNK     0       0.357   6.242  18.919  0.00  0.00     0.052 C 
HETATM   10  C   UNK     0       3.246   7.566  16.865  0.00  0.00    -0.003 A 
HETATM   11  C   UNK     0       4.498   7.090  16.208  0.00  0.00     0.053 C 
BRANCH   8  12
HETATM   12  O   UNK     0       2.762   5.363  17.650  0.00  0.00    -0.355 OA
HETATM   13  C   UNK     0       3.317   4.917  18.885  0.00  0.00     0.210 C 
ENDBRANCH   8  12
ENDBRANCH   3   4
ENDBRANCH   1   3
BRANCH   1  14
HETATM   14  C   UNK     0       4.975  10.286  18.490  0.00  0.00     0.198 A 
HETATM   15  N   UNK     0       4.377  10.089  19.703  0.00  0.00    -0.331 N 
HETATM   16  C   UNK     0       5.221   9.324  20.467  0.00  0.00     0.066 A 
HETATM   17  H   UNK     0       3.475  10.445  19.990  0.00  0.00     0.168 HD
HETATM   18  C   UNK     0       6.319   9.093  19.643  0.00  0.00     0.086 A 
HETATM   19  C   UNK     0       5.120   8.829  21.768  0.00  0.00     0.068 A 
HETATM   20  N   UNK     0       6.148   9.698  18.419  0.00  0.00    -0.221 NA
HETATM   21  C   UNK     0       7.390   8.325  20.130  0.00  0.00     0.037 A 
HETATM   22  C   UNK     0       7.312   7.818  21.433  0.00  0.00     0.039 A 
HETATM   23  C   UNK     0       6.195   8.066  22.236  0.00  0.00     0.070 A 
BRANCH  23  24
HETATM   24  O   UNK     0       6.152   7.556  23.500  0.00  0.00    -0.356 OA
HETATM   25  C   UNK     0       7.369   7.566  24.242  0.00  0.00     0.210 C 
ENDBRANCH  23  24
ENDBRANCH   1  14
TORSDOF 5
ENDMDL
