MODEL 1
REMARK VINA RESULT:      -7.2      0.000      0.000
REMARK  5 active torsions:
REMARK  status: ('A' for Active; 'I' for Inactive)
REMARK    1  A    between atoms: S_1  and  C_8 
REMARK    2  A    between atoms: S_1  and  C_11 
REMARK    3  A    between atoms: O_2  and  C_13 
REMARK    4  A    between atoms: O_4  and  C_20 
REMARK    5  A    between atoms: C_8  and  C_9 
ROOT
HETATM    1  S   UNK     0      19.611  54.012  23.109  0.00  0.00     0.091 S 
HETATM    2  O   UNK     0      20.970  53.377  22.887  0.00  0.00    -0.249 OA
ENDROOT
BRANCH   1   3
HETATM    3  C   UNK     0      18.987  53.394  24.698  0.00  0.00     0.177 C 
BRANCH   3   4
HETATM    4  C   UNK     0      17.532  53.715  24.884  0.00  0.00     0.055 A 
HETATM    5  N   UNK     0      16.687  53.073  24.053  0.00  0.00    -0.263 NA
HETATM    6  C   UNK     0      15.373  53.350  24.209  0.00  0.00     0.126 A 
HETATM    7  C   UNK     0      14.874  54.234  25.152  0.00  0.00    -0.011 A 
HETATM    8  C   UNK     0      15.782  54.875  25.988  0.00  0.00     0.083 A 
HETATM    9  C   UNK     0      13.409  54.478  25.252  0.00  0.00     0.052 C 
HETATM   10  C   UNK     0      17.142  54.614  25.858  0.00  0.00    -0.003 A 
HETATM   11  C   UNK     0      18.136  55.288  26.744  0.00  0.00     0.053 C 
BRANCH   8  12
HETATM   12  O   UNK     0      15.338  55.752  26.933  0.00  0.00    -0.355 OA
HETATM   13  C   UNK     0      15.211  55.260  28.265  0.00  0.00     0.210 C 
ENDBRANCH   8  12
ENDBRANCH   3   4
ENDBRANCH   1   3
BRANCH   1  14
HETATM   14  C   UNK     0      19.844  55.740  23.508  0.00  0.00     0.198 A 
HETATM   15  N   UNK     0      18.949  56.726  23.197  0.00  0.00    -0.331 N 
HETATM   16  C   UNK     0      19.461  57.914  23.652  0.00  0.00     0.066 A 
HETATM   17  H   UNK     0      18.068  56.603  22.716  0.00  0.00     0.168 HD
HETATM   18  C   UNK     0      20.678  57.567  24.232  0.00  0.00     0.086 A 
HETATM   19  C   UNK     0      18.978  59.222  23.606  0.00  0.00     0.068 A 
HETATM   20  N   UNK     0      20.899  56.212  24.133  0.00  0.00    -0.221 NA
HETATM   21  C   UNK     0      21.474  58.572  24.806  0.00  0.00     0.037 A 
HETATM   22  C   UNK     0      21.010  59.893  24.772  0.00  0.00     0.039 A 
HETATM   23  C   UNK     0      19.783  60.211  24.183  0.00  0.00     0.070 A 
BRANCH  23  24
HETATM   24  O   UNK     0      19.362  61.507  24.168  0.00  0.00    -0.356 OA
HETATM   25  C   UNK     0      17.955  61.730  24.193  0.00  0.00     0.210 C 
ENDBRANCH  23  24
ENDBRANCH   1  14
TORSDOF 5
ENDMDL
MODEL 2
REMARK VINA RESULT:      -7.0      4.568      9.145
REMARK  5 active torsions:
REMARK  status: ('A' for Active; 'I' for Inactive)
REMARK    1  A    between atoms: S_1  and  C_8 
REMARK    2  A    between atoms: S_1  and  C_11 
REMARK    3  A    between atoms: O_2  and  C_13 
REMARK    4  A    between atoms: O_4  and  C_20 
REMARK    5  A    between atoms: C_8  and  C_9 
ROOT
HETATM    1  S   UNK     0      13.785  53.717  24.293  0.00  0.00     0.091 S 
HETATM    2  O   UNK     0      13.241  53.451  25.684  0.00  0.00    -0.249 OA
ENDROOT
BRANCH   1   3
HETATM    3  C   UNK     0      15.567  53.376  24.343  0.00  0.00     0.177 C 
BRANCH   3   4
HETATM    4  C   UNK     0      16.377  54.638  24.258  0.00  0.00     0.055 A 
HETATM    5  N   UNK     0      15.833  55.715  24.860  0.00  0.00    -0.263 NA
HETATM    6  C   UNK     0      16.550  56.858  24.793  0.00  0.00     0.126 A 
HETATM    7  C   UNK     0      17.775  56.970  24.155  0.00  0.00    -0.011 A 
HETATM    8  C   UNK     0      18.297  55.834  23.548  0.00  0.00     0.083 A 
HETATM    9  C   UNK     0      18.495  58.273  24.132  0.00  0.00     0.052 C 
HETATM   10  C   UNK     0      17.589  54.638  23.596  0.00  0.00    -0.003 A 
HETATM   11  C   UNK     0      18.129  53.405  22.953  0.00  0.00     0.053 C 
BRANCH   8  12
HETATM   12  O   UNK     0      19.501  55.893  22.909  0.00  0.00    -0.355 OA
HETATM   13  C   UNK     0      20.663  55.632  23.693  0.00  0.00     0.210 C 
ENDBRANCH   8  12
ENDBRANCH   3   4
ENDBRANCH   1   3
BRANCH   1  14
HETATM   14  C   UNK     0      13.239  52.408  23.203  0.00  0.00     0.198 A 
HETATM   15  N   UNK     0      13.511  51.083  23.400  0.00  0.00    -0.331 N 
HETATM   16  C   UNK     0      12.941  50.381  22.370  0.00  0.00     0.066 A 
HETATM   17  H   UNK     0      14.039  50.689  24.167  0.00  0.00     0.168 HD
HETATM   18  C   UNK     0      12.335  51.356  21.580  0.00  0.00     0.086 A 
HETATM   19  C   UNK     0      12.904  49.019  22.069  0.00  0.00     0.068 A 
HETATM   20  N   UNK     0      12.531  52.609  22.114  0.00  0.00    -0.221 NA
HETATM   21  C   UNK     0      11.648  50.966  20.419  0.00  0.00     0.037 A 
HETATM   22  C   UNK     0      11.598  49.604  20.097  0.00  0.00     0.039 A 
HETATM   23  C   UNK     0      12.215  48.649  20.909  0.00  0.00     0.070 A 
BRANCH  23  24
HETATM   24  O   UNK     0      12.145  47.331  20.566  0.00  0.00    -0.356 OA
HETATM   25  C   UNK     0      12.953  46.426  21.312  0.00  0.00     0.210 C 
ENDBRANCH  23  24
ENDBRANCH   1  14
TORSDOF 5
ENDMDL
MODEL 3
REMARK VINA RESULT:      -7.0      2.231      3.361
REMARK  5 active torsions:
REMARK  status: ('A' for Active; 'I' for Inactive)
REMARK    1  A    between atoms: S_1  and  C_8 
REMARK    2  A    between atoms: S_1  and  C_11 
REMARK    3  A    between atoms: O_2  and  C_13 
REMARK    4  A    between atoms: O_4  and  C_20 
REMARK    5  A    between atoms: C_8  and  C_9 
ROOT
HETATM    1  S   UNK     0      17.207  54.676  23.093  0.00  0.00     0.091 S 
HETATM    2  O   UNK     0      17.645  53.723  21.998  0.00  0.00    -0.249 OA
ENDROOT
BRANCH   1   3
HETATM    3  C   UNK     0      17.326  53.774  24.664  0.00  0.00     0.177 C 
BRANCH   3   4
HETATM    4  C   UNK     0      17.160  54.689  25.844  0.00  0.00     0.055 A 
HETATM    5  N   UNK     0      15.919  55.186  26.020  0.00  0.00    -0.263 NA
HETATM    6  C   UNK     0      15.753  56.010  27.078  0.00  0.00     0.126 A 
HETATM    7  C   UNK     0      16.766  56.356  27.958  0.00  0.00    -0.011 A 
HETATM    8  C   UNK     0      18.030  55.821  27.737  0.00  0.00     0.083 A 
HETATM    9  C   UNK     0      16.490  57.274  29.098  0.00  0.00     0.052 C 
HETATM   10  C   UNK     0      18.239  54.968  26.659  0.00  0.00    -0.003 A 
HETATM   11  C   UNK     0      19.586  54.380  26.402  0.00  0.00     0.053 C 
BRANCH   8  12
HETATM   12  O   UNK     0      19.058  56.130  28.577  0.00  0.00    -0.355 OA
HETATM   13  C   UNK     0      19.847  57.270  28.243  0.00  0.00     0.210 C 
ENDBRANCH   8  12
ENDBRANCH   3   4
ENDBRANCH   1   3
BRANCH   1  14
HETATM   14  C   UNK     0      18.486  55.903  23.333  0.00  0.00     0.198 A 
HETATM   15  N   UNK     0      19.792  55.731  22.966  0.00  0.00    -0.331 N 
HETATM   16  C   UNK     0      20.475  56.870  23.306  0.00  0.00     0.066 A 
HETATM   17  H   UNK     0      20.186  54.910  22.526  0.00  0.00     0.168 HD
HETATM   18  C   UNK     0      19.511  57.695  23.878  0.00  0.00     0.086 A 
HETATM   19  C   UNK     0      21.814  57.238  23.166  0.00  0.00     0.068 A 
HETATM   20  N   UNK     0      18.281  57.077  23.886  0.00  0.00    -0.221 NA
HETATM   21  C   UNK     0      19.886  58.966  24.344  0.00  0.00     0.037 A 
HETATM   22  C   UNK     0      21.224  59.357  24.214  0.00  0.00     0.039 A 
HETATM   23  C   UNK     0      22.170  58.508  23.635  0.00  0.00     0.070 A 
BRANCH  23  24
HETATM   24  O   UNK     0      23.464  58.921  23.524  0.00  0.00    -0.356 OA
HETATM   25  C   UNK     0      24.328  58.131  22.710  0.00  0.00     0.210 C 
ENDBRANCH  23  24
ENDBRANCH   1  14
TORSDOF 5
ENDMDL
