MODEL 1
REMARK VINA RESULT:      -7.7      0.000      0.000
REMARK  5 active torsions:
REMARK  status: ('A' for Active; 'I' for Inactive)
REMARK    1  A    between atoms: S_1  and  C_8 
REMARK    2  A    between atoms: S_1  and  C_11 
REMARK    3  A    between atoms: O_2  and  C_13 
REMARK    4  A    between atoms: O_4  and  C_20 
REMARK    5  A    between atoms: C_8  and  C_9 
ROOT
HETATM    1  S   UNK     0      24.491  27.183  36.339  0.00  0.00     0.091 S 
HETATM    2  O   UNK     0      24.531  28.647  36.733  0.00  0.00    -0.249 OA
ENDROOT
BRANCH   1   3
HETATM    3  C   UNK     0      23.168  26.406  37.311  0.00  0.00     0.177 C 
BRANCH   3   4
HETATM    4  C   UNK     0      23.463  24.961  37.594  0.00  0.00     0.055 A 
HETATM    5  N   UNK     0      23.313  24.125  36.547  0.00  0.00    -0.263 NA
HETATM    6  C   UNK     0      23.576  22.821  36.786  0.00  0.00     0.126 A 
HETATM    7  C   UNK     0      23.978  22.323  38.015  0.00  0.00    -0.011 A 
HETATM    8  C   UNK     0      24.120  23.221  39.066  0.00  0.00     0.083 A 
HETATM    9  C   UNK     0      24.246  20.868  38.185  0.00  0.00     0.052 C 
HETATM   10  C   UNK     0      23.859  24.572  38.859  0.00  0.00    -0.003 A 
HETATM   11  C   UNK     0      24.004  25.556  39.971  0.00  0.00     0.053 C 
BRANCH   8  12
HETATM   12  O   UNK     0      24.515  22.779  40.294  0.00  0.00    -0.355 OA
HETATM   13  C   UNK     0      23.530  22.137  41.100  0.00  0.00     0.210 C 
ENDBRANCH   8  12
ENDBRANCH   3   4
ENDBRANCH   1   3
BRANCH   1  14
HETATM   14  C   UNK     0      23.799  27.049  34.696  0.00  0.00     0.198 A 
HETATM   15  N   UNK     0      22.553  26.556  34.426  0.00  0.00    -0.331 N 
HETATM   16  C   UNK     0      22.369  26.603  33.068  0.00  0.00     0.066 A 
HETATM   17  H   UNK     0      21.885  26.215  35.105  0.00  0.00     0.168 HD
HETATM   18  C   UNK     0      23.556  27.141  32.576  0.00  0.00     0.086 A 
HETATM   19  C   UNK     0      21.300  26.232  32.252  0.00  0.00     0.068 A 
HETATM   20  N   UNK     0      24.432  27.412  33.603  0.00  0.00    -0.221 NA
HETATM   21  C   UNK     0      23.701  27.327  31.192  0.00  0.00     0.037 A 
HETATM   22  C   UNK     0      22.641  26.962  30.353  0.00  0.00     0.039 A 
HETATM   23  C   UNK     0      21.461  26.424  30.875  0.00  0.00     0.070 A 
BRANCH  23  24
HETATM   24  O   UNK     0      20.449  26.081  30.030  0.00  0.00    -0.356 OA
HETATM   25  C   UNK     0      20.772  25.972  28.646  0.00  0.00     0.210 C 
ENDBRANCH  23  24
ENDBRANCH   1  14
TORSDOF 5
ENDMDL
MODEL 2
REMARK VINA RESULT:      -7.5      1.509      2.007
REMARK  5 active torsions:
REMARK  status: ('A' for Active; 'I' for Inactive)
REMARK    1  A    between atoms: S_1  and  C_8 
REMARK    2  A    between atoms: S_1  and  C_11 
REMARK    3  A    between atoms: O_2  and  C_13 
REMARK    4  A    between atoms: O_4  and  C_20 
REMARK    5  A    between atoms: C_8  and  C_9 
ROOT
HETATM    1  S   UNK     0      22.178  27.074  37.701  0.00  0.00     0.091 S 
HETATM    2  O   UNK     0      21.295  26.050  38.385  0.00  0.00    -0.249 OA
ENDROOT
BRANCH   1   3
HETATM    3  C   UNK     0      23.885  26.464  37.810  0.00  0.00     0.177 C 
BRANCH   3   4
HETATM    4  C   UNK     0      23.932  24.972  37.971  0.00  0.00     0.055 A 
HETATM    5  N   UNK     0      23.799  24.263  36.831  0.00  0.00    -0.263 NA
HETATM    6  C   UNK     0      23.840  22.919  36.960  0.00  0.00     0.126 A 
HETATM    7  C   UNK     0      24.005  22.259  38.167  0.00  0.00    -0.011 A 
HETATM    8  C   UNK     0      24.137  23.030  39.316  0.00  0.00     0.083 A 
HETATM    9  C   UNK     0      24.038  20.771  38.213  0.00  0.00     0.052 C 
HETATM   10  C   UNK     0      24.101  24.417  39.224  0.00  0.00    -0.003 A 
HETATM   11  C   UNK     0      24.241  25.266  40.443  0.00  0.00     0.053 C 
BRANCH   8  12
HETATM   12  O   UNK     0      24.304  22.427  40.528  0.00  0.00    -0.355 OA
HETATM   13  C   UNK     0      23.177  21.742  41.071  0.00  0.00     0.210 C 
ENDBRANCH   8  12
ENDBRANCH   3   4
ENDBRANCH   1   3
BRANCH   1  14
HETATM   14  C   UNK     0      21.915  26.971  35.935  0.00  0.00     0.198 A 
HETATM   15  N   UNK     0      22.753  27.515  35.002  0.00  0.00    -0.331 N 
HETATM   16  C   UNK     0      22.233  27.242  33.763  0.00  0.00     0.066 A 
HETATM   17  H   UNK     0      23.603  28.029  35.189  0.00  0.00     0.168 HD
HETATM   18  C   UNK     0      21.070  26.523  34.026  0.00  0.00     0.086 A 
HETATM   19  C   UNK     0      22.667  27.552  32.473  0.00  0.00     0.068 A 
HETATM   20  N   UNK     0      20.890  26.364  35.381  0.00  0.00    -0.221 NA
HETATM   21  C   UNK     0      20.282  26.080  32.951  0.00  0.00     0.037 A 
HETATM   22  C   UNK     0      20.697  26.380  31.648  0.00  0.00     0.039 A 
HETATM   23  C   UNK     0      21.870  27.103  31.415  0.00  0.00     0.070 A 
BRANCH  23  24
HETATM   24  O   UNK     0      22.245  27.377  30.133  0.00  0.00    -0.356 OA
HETATM   25  C   UNK     0      21.230  27.311  29.135  0.00  0.00     0.210 C 
ENDBRANCH  23  24
ENDBRANCH   1  14
TORSDOF 5
ENDMDL
MODEL 3
REMARK VINA RESULT:      -7.3      1.431      2.144
REMARK  5 active torsions:
REMARK  status: ('A' for Active; 'I' for Inactive)
REMARK    1  A    between atoms: S_1  and  C_8 
REMARK    2  A    between atoms: S_1  and  C_11 
REMARK    3  A    between atoms: O_2  and  C_13 
REMARK    4  A    between atoms: O_4  and  C_20 
REMARK    5  A    between atoms: C_8  and  C_9 
ROOT
HETATM    1  S   UNK     0      22.637  27.480  36.034  0.00  0.00     0.091 S 
HETATM    2  O   UNK     0      21.830  28.664  36.533  0.00  0.00    -0.249 OA
ENDROOT
BRANCH   1   3
HETATM    3  C   UNK     0      21.821  25.981  36.652  0.00  0.00     0.177 C 
BRANCH   3   4
HETATM    4  C   UNK     0      22.659  25.277  37.681  0.00  0.00     0.055 A 
HETATM    5  N   UNK     0      22.685  25.857  38.899  0.00  0.00    -0.263 NA
HETATM    6  C   UNK     0      23.434  25.235  39.836  0.00  0.00     0.126 A 
HETATM    7  C   UNK     0      24.150  24.071  39.611  0.00  0.00    -0.011 A 
HETATM    8  C   UNK     0      24.094  23.509  38.341  0.00  0.00     0.083 A 
HETATM    9  C   UNK     0      24.949  23.455  40.706  0.00  0.00     0.052 C 
HETATM   10  C   UNK     0      23.333  24.119  37.349  0.00  0.00    -0.003 A 
HETATM   11  C   UNK     0      23.256  23.535  35.978  0.00  0.00     0.053 C 
BRANCH   8  12
HETATM   12  O   UNK     0      24.781  22.362  38.070  0.00  0.00    -0.355 OA
HETATM   13  C   UNK     0      24.100  21.130  38.300  0.00  0.00     0.210 C 
ENDBRANCH   8  12
ENDBRANCH   3   4
ENDBRANCH   1   3
BRANCH   1  14
HETATM   14  C   UNK     0      22.357  27.295  34.278  0.00  0.00     0.198 A 
HETATM   15  N   UNK     0      21.160  26.933  33.726  0.00  0.00    -0.331 N 
HETATM   16  C   UNK     0      21.323  26.889  32.365  0.00  0.00     0.066 A 
HETATM   17  H   UNK     0      20.307  26.731  34.229  0.00  0.00     0.168 HD
HETATM   18  C   UNK     0      22.655  27.239  32.164  0.00  0.00     0.086 A 
HETATM   19  C   UNK     0      20.446  26.582  31.324  0.00  0.00     0.068 A 
HETATM   20  N   UNK     0      23.282  27.488  33.364  0.00  0.00    -0.221 NA
HETATM   21  C   UNK     0      23.159  27.291  30.854  0.00  0.00     0.037 A 
HETATM   22  C   UNK     0      22.298  26.987  29.793  0.00  0.00     0.039 A 
HETATM   23  C   UNK     0      20.964  26.639  30.026  0.00  0.00     0.070 A 
BRANCH  23  24
HETATM   24  O   UNK     0      20.153  26.350  28.969  0.00  0.00    -0.356 OA
HETATM   25  C   UNK     0      20.576  25.306  28.096  0.00  0.00     0.210 C 
ENDBRANCH  23  24
ENDBRANCH   1  14
TORSDOF 5
ENDMDL
