MODEL 1
REMARK VINA RESULT:      -8.5      0.000      0.000
REMARK  5 active torsions:
REMARK  status: ('A' for Active; 'I' for Inactive)
REMARK    1  A    between atoms: S_1  and  C_8 
REMARK    2  A    between atoms: S_1  and  C_11 
REMARK    3  A    between atoms: O_2  and  C_13 
REMARK    4  A    between atoms: O_4  and  C_20 
REMARK    5  A    between atoms: C_8  and  C_9 
ROOT
HETATM    1  S   UNK     0     -22.817 -43.867  27.337  0.00  0.00     0.091 S 
HETATM    2  O   UNK     0     -23.226 -43.004  28.515  0.00  0.00    -0.249 OA
ENDROOT
BRANCH   1   3
HETATM    3  C   UNK     0     -21.155 -43.334  26.837  0.00  0.00     0.177 C 
BRANCH   3   4
HETATM    4  C   UNK     0     -21.204 -42.125  25.948  0.00  0.00     0.055 A 
HETATM    5  N   UNK     0     -21.526 -40.969  26.561  0.00  0.00    -0.263 NA
HETATM    6  C   UNK     0     -21.573 -39.871  25.774  0.00  0.00     0.126 A 
HETATM    7  C   UNK     0     -21.316 -39.881  24.413  0.00  0.00    -0.011 A 
HETATM    8  C   UNK     0     -20.989 -41.096  23.822  0.00  0.00     0.083 A 
HETATM    9  C   UNK     0     -21.392 -38.621  23.624  0.00  0.00     0.052 C 
HETATM   10  C   UNK     0     -20.929 -42.248  24.600  0.00  0.00    -0.003 A 
HETATM   11  C   UNK     0     -20.579 -43.564  23.989  0.00  0.00     0.053 C 
BRANCH   8  12
HETATM   12  O   UNK     0     -20.725 -41.157  22.485  0.00  0.00    -0.355 OA
HETATM   13  C   UNK     0     -19.406 -40.812  22.069  0.00  0.00     0.210 C 
ENDBRANCH   8  12
ENDBRANCH   3   4
ENDBRANCH   1   3
BRANCH   1  14
HETATM   14  C   UNK     0     -22.459 -45.516  27.930  0.00  0.00     0.198 A 
HETATM   15  N   UNK     0     -21.199 -46.037  28.032  0.00  0.00    -0.331 N 
HETATM   16  C   UNK     0     -21.313 -47.314  28.517  0.00  0.00     0.066 A 
HETATM   17  H   UNK     0     -20.337 -45.567  27.791  0.00  0.00     0.168 HD
HETATM   18  C   UNK     0     -22.682 -47.500  28.687  0.00  0.00     0.086 A 
HETATM   19  C   UNK     0     -20.364 -48.294  28.812  0.00  0.00     0.068 A 
HETATM   20  N   UNK     0     -23.378 -46.371  28.318  0.00  0.00    -0.221 NA
HETATM   21  C   UNK     0     -23.150 -48.729  29.180  0.00  0.00     0.037 A 
HETATM   22  C   UNK     0     -22.217 -49.727  29.484  0.00  0.00     0.039 A 
HETATM   23  C   UNK     0     -20.848 -49.512  29.303  0.00  0.00     0.070 A 
BRANCH  23  24
HETATM   24  O   UNK     0     -19.967 -50.506  29.609  0.00  0.00    -0.356 OA
HETATM   25  C   UNK     0     -20.398 -51.845  29.378  0.00  0.00     0.210 C 
ENDBRANCH  23  24
ENDBRANCH   1  14
TORSDOF 5
ENDMDL
MODEL 2
REMARK VINA RESULT:      -8.4      1.210      2.285
REMARK  5 active torsions:
REMARK  status: ('A' for Active; 'I' for Inactive)
REMARK    1  A    between atoms: S_1  and  C_8 
REMARK    2  A    between atoms: S_1  and  C_11 
REMARK    3  A    between atoms: O_2  and  C_13 
REMARK    4  A    between atoms: O_4  and  C_20 
REMARK    5  A    between atoms: C_8  and  C_9 
ROOT
HETATM    1  S   UNK     0     -22.965 -43.665  26.828  0.00  0.00     0.091 S 
HETATM    2  O   UNK     0     -23.720 -42.958  27.936  0.00  0.00    -0.249 OA
ENDROOT
BRANCH   1   3
HETATM    3  C   UNK     0     -21.335 -42.874  26.704  0.00  0.00     0.177 C 
BRANCH   3   4
HETATM    4  C   UNK     0     -21.084 -42.333  25.325  0.00  0.00     0.055 A 
HETATM    5  N   UNK     0     -20.798 -43.257  24.386  0.00  0.00    -0.263 NA
HETATM    6  C   UNK     0     -20.570 -42.786  23.139  0.00  0.00     0.126 A 
HETATM    7  C   UNK     0     -20.616 -41.445  22.797  0.00  0.00    -0.011 A 
HETATM    8  C   UNK     0     -20.914 -40.527  23.798  0.00  0.00     0.083 A 
HETATM    9  C   UNK     0     -20.351 -41.017  21.395  0.00  0.00     0.052 C 
HETATM   10  C   UNK     0     -21.155 -40.974  25.093  0.00  0.00    -0.003 A 
HETATM   11  C   UNK     0     -21.478 -40.009  26.184  0.00  0.00     0.053 C 
BRANCH   8  12
HETATM   12  O   UNK     0     -20.973 -39.196  23.509  0.00  0.00    -0.355 OA
HETATM   13  C   UNK     0     -22.206 -38.697  22.996  0.00  0.00     0.210 C 
ENDBRANCH   8  12
ENDBRANCH   3   4
ENDBRANCH   1   3
BRANCH   1  14
HETATM   14  C   UNK     0     -22.487 -45.289  27.404  0.00  0.00     0.198 A 
HETATM   15  N   UNK     0     -23.216 -46.034  28.289  0.00  0.00    -0.331 N 
HETATM   16  C   UNK     0     -22.544 -47.211  28.498  0.00  0.00     0.066 A 
HETATM   17  H   UNK     0     -24.093 -45.766  28.715  0.00  0.00     0.168 HD
HETATM   18  C   UNK     0     -21.408 -47.108  27.700  0.00  0.00     0.086 A 
HETATM   19  C   UNK     0     -22.824 -48.323  29.293  0.00  0.00     0.068 A 
HETATM   20  N   UNK     0     -21.390 -45.907  27.028  0.00  0.00    -0.221 NA
HETATM   21  C   UNK     0     -20.486 -48.167  27.682  0.00  0.00     0.037 A 
HETATM   22  C   UNK     0     -20.746 -49.294  28.471  0.00  0.00     0.039 A 
HETATM   23  C   UNK     0     -21.896 -49.369  29.262  0.00  0.00     0.070 A 
BRANCH  23  24
HETATM   24  O   UNK     0     -22.118 -50.482  30.018  0.00  0.00    -0.356 OA
HETATM   25  C   UNK     0     -21.125 -51.503  29.972  0.00  0.00     0.210 C 
ENDBRANCH  23  24
ENDBRANCH   1  14
TORSDOF 5
ENDMDL
MODEL 3
REMARK VINA RESULT:      -7.8      2.088      2.509
REMARK  5 active torsions:
REMARK  status: ('A' for Active; 'I' for Inactive)
REMARK    1  A    between atoms: S_1  and  C_8 
REMARK    2  A    between atoms: S_1  and  C_11 
REMARK    3  A    between atoms: O_2  and  C_13 
REMARK    4  A    between atoms: O_4  and  C_20 
REMARK    5  A    between atoms: C_8  and  C_9 
ROOT
HETATM    1  S   UNK     0     -19.786 -45.838  24.833  0.00  0.00     0.091 S 
HETATM    2  O   UNK     0     -19.279 -46.766  23.746  0.00  0.00    -0.249 OA
ENDROOT
BRANCH   1   3
HETATM    3  C   UNK     0     -21.270 -45.017  24.183  0.00  0.00     0.177 C 
BRANCH   3   4
HETATM    4  C   UNK     0     -21.325 -43.571  24.586  0.00  0.00     0.055 A 
HETATM    5  N   UNK     0     -21.877 -43.329  25.792  0.00  0.00    -0.263 NA
HETATM    6  C   UNK     0     -21.934 -42.032  26.170  0.00  0.00     0.126 A 
HETATM    7  C   UNK     0     -21.466 -40.979  25.400  0.00  0.00    -0.011 A 
HETATM    8  C   UNK     0     -20.905 -41.276  24.163  0.00  0.00     0.083 A 
HETATM    9  C   UNK     0     -21.570 -39.580  25.898  0.00  0.00     0.052 C 
HETATM   10  C   UNK     0     -20.829 -42.599  23.741  0.00  0.00    -0.003 A 
HETATM   11  C   UNK     0     -20.230 -42.944  22.418  0.00  0.00     0.053 C 
BRANCH   8  12
HETATM   12  O   UNK     0     -20.429 -40.274  23.371  0.00  0.00    -0.355 OA
HETATM   13  C   UNK     0     -21.361 -39.640  22.498  0.00  0.00     0.210 C 
ENDBRANCH   8  12
ENDBRANCH   3   4
ENDBRANCH   1   3
BRANCH   1  14
HETATM   14  C   UNK     0     -20.513 -46.824  26.136  0.00  0.00     0.198 A 
HETATM   15  N   UNK     0     -19.939 -47.950  26.657  0.00  0.00    -0.331 N 
HETATM   16  C   UNK     0     -20.778 -48.438  27.626  0.00  0.00     0.066 A 
HETATM   17  H   UNK     0     -19.055 -48.354  26.378  0.00  0.00     0.168 HD
HETATM   18  C   UNK     0     -21.848 -47.548  27.637  0.00  0.00     0.086 A 
HETATM   19  C   UNK     0     -20.694 -49.547  28.469  0.00  0.00     0.068 A 
HETATM   20  N   UNK     0     -21.666 -46.552  26.705  0.00  0.00    -0.221 NA
HETATM   21  C   UNK     0     -22.907 -47.762  28.535  0.00  0.00     0.037 A 
HETATM   22  C   UNK     0     -22.845 -48.868  29.390  0.00  0.00     0.039 A 
HETATM   23  C   UNK     0     -21.757 -49.745  29.357  0.00  0.00     0.070 A 
BRANCH  23  24
HETATM   24  O   UNK     0     -21.729 -50.812  30.204  0.00  0.00    -0.356 OA
HETATM   25  C   UNK     0     -20.820 -51.864  29.889  0.00  0.00     0.210 C 
ENDBRANCH  23  24
ENDBRANCH   1  14
TORSDOF 5
ENDMDL
