MODEL 1
REMARK VINA RESULT:      -9.0      0.000      0.000
REMARK  5 active torsions:
REMARK  status: ('A' for Active; 'I' for Inactive)
REMARK    1  A    between atoms: S_1  and  C_8 
REMARK    2  A    between atoms: S_1  and  C_11 
REMARK    3  A    between atoms: O_2  and  C_13 
REMARK    4  A    between atoms: O_4  and  C_20 
REMARK    5  A    between atoms: C_8  and  C_9 
ROOT
HETATM    1  S   UNK     0     167.957  -4.444 343.274  0.00  0.00     0.091 S 
HETATM    2  O   UNK     0     167.460  -5.269 344.445  0.00  0.00    -0.249 OA
ENDROOT
BRANCH   1   3
HETATM    3  C   UNK     0     168.777  -5.587 342.126  0.00  0.00     0.177 C 
BRANCH   3   4
HETATM    4  C   UNK     0     168.292  -6.997 342.306  0.00  0.00     0.055 A 
HETATM    5  N   UNK     0     168.723  -7.618 343.423  0.00  0.00    -0.263 NA
HETATM    6  C   UNK     0     168.295  -8.887 343.600  0.00  0.00     0.126 A 
HETATM    7  C   UNK     0     167.463  -9.556 342.717  0.00  0.00    -0.011 A 
HETATM    8  C   UNK     0     167.043  -8.877 341.578  0.00  0.00     0.083 A 
HETATM    9  C   UNK     0     167.041 -10.957 342.995  0.00  0.00     0.052 C 
HETATM   10  C   UNK     0     167.463  -7.569 341.362  0.00  0.00    -0.003 A 
HETATM   11  C   UNK     0     167.026  -6.819 340.148  0.00  0.00     0.053 C 
BRANCH   8  12
HETATM   12  O   UNK     0     166.223  -9.493 340.680  0.00  0.00    -0.355 OA
HETATM   13  C   UNK     0     164.818  -9.344 340.878  0.00  0.00     0.210 C 
ENDBRANCH   8  12
ENDBRANCH   3   4
ENDBRANCH   1   3
BRANCH   1  14
HETATM   14  C   UNK     0     166.552  -3.950 342.283  0.00  0.00     0.198 A 
HETATM   15  N   UNK     0     165.251  -4.071 342.682  0.00  0.00    -0.331 N 
HETATM   16  C   UNK     0     164.456  -3.598 341.670  0.00  0.00     0.066 A 
HETATM   17  H   UNK     0     164.929  -4.446 343.565  0.00  0.00     0.168 HD
HETATM   18  C   UNK     0     165.353  -3.203 340.682  0.00  0.00     0.086 A 
HETATM   19  C   UNK     0     163.072  -3.485 341.538  0.00  0.00     0.068 A 
HETATM   20  N   UNK     0     166.651  -3.429 341.080  0.00  0.00    -0.221 NA
HETATM   21  C   UNK     0     164.858  -2.661 339.484  0.00  0.00     0.037 A 
HETATM   22  C   UNK     0     163.472  -2.537 339.330  0.00  0.00     0.039 A 
HETATM   23  C   UNK     0     162.595  -2.942 340.340  0.00  0.00     0.070 A 
BRANCH  23  24
HETATM   24  O   UNK     0     161.251  -2.807 340.156  0.00  0.00    -0.356 OA
HETATM   25  C   UNK     0     160.416  -3.069 341.280  0.00  0.00     0.210 C 
ENDBRANCH  23  24
ENDBRANCH   1  14
TORSDOF 5
ENDMDL
MODEL 2
REMARK VINA RESULT:      -8.9      2.116      6.880
REMARK  5 active torsions:
REMARK  status: ('A' for Active; 'I' for Inactive)
REMARK    1  A    between atoms: S_1  and  C_8 
REMARK    2  A    between atoms: S_1  and  C_11 
REMARK    3  A    between atoms: O_2  and  C_13 
REMARK    4  A    between atoms: O_4  and  C_20 
REMARK    5  A    between atoms: C_8  and  C_9 
ROOT
HETATM    1  S   UNK     0     166.731  -3.617 344.279  0.00  0.00     0.091 S 
HETATM    2  O   UNK     0     168.072  -2.989 344.607  0.00  0.00    -0.249 OA
ENDROOT
BRANCH   1   3
HETATM    3  C   UNK     0     166.386  -3.254 342.534  0.00  0.00     0.177 C 
BRANCH   3   4
HETATM    4  C   UNK     0     164.911  -3.229 342.253  0.00  0.00     0.055 A 
HETATM    5  N   UNK     0     164.115  -3.361 343.334  0.00  0.00    -0.263 NA
HETATM    6  C   UNK     0     162.784  -3.340 343.098  0.00  0.00     0.126 A 
HETATM    7  C   UNK     0     162.221  -3.195 341.840  0.00  0.00    -0.011 A 
HETATM    8  C   UNK     0     163.080  -3.063 340.755  0.00  0.00     0.083 A 
HETATM    9  C   UNK     0     160.742  -3.183 341.676  0.00  0.00     0.052 C 
HETATM   10  C   UNK     0     164.456  -3.079 340.958  0.00  0.00    -0.003 A 
HETATM   11  C   UNK     0     165.398  -2.939 339.809  0.00  0.00     0.053 C 
BRANCH   8  12
HETATM   12  O   UNK     0     162.573  -2.916 339.498  0.00  0.00    -0.355 OA
HETATM   13  C   UNK     0     162.002  -1.651 339.173  0.00  0.00     0.210 C 
ENDBRANCH   8  12
ENDBRANCH   3   4
ENDBRANCH   1   3
BRANCH   1  14
HETATM   14  C   UNK     0     166.932  -5.392 344.201  0.00  0.00     0.198 A 
HETATM   15  N   UNK     0     166.029  -6.289 344.700  0.00  0.00    -0.331 N 
HETATM   16  C   UNK     0     166.516  -7.549 344.464  0.00  0.00     0.066 A 
HETATM   17  H   UNK     0     165.158  -6.065 345.163  0.00  0.00     0.168 HD
HETATM   18  C   UNK     0     167.728  -7.335 343.813  0.00  0.00     0.086 A 
HETATM   19  C   UNK     0     166.016  -8.818 344.756  0.00  0.00     0.068 A 
HETATM   20  N   UNK     0     167.970  -5.989 343.658  0.00  0.00    -0.221 NA
HETATM   21  C   UNK     0     168.500  -8.442 343.423  0.00  0.00     0.037 A 
HETATM   22  C   UNK     0     168.018  -9.726 343.705  0.00  0.00     0.039 A 
HETATM   23  C   UNK     0     166.797  -9.910 344.360  0.00  0.00     0.070 A 
BRANCH  23  24
HETATM   24  O   UNK     0     166.358 -11.174 344.618  0.00  0.00    -0.356 OA
HETATM   25  C   UNK     0     165.245 -11.639 343.859  0.00  0.00     0.210 C 
ENDBRANCH  23  24
ENDBRANCH   1  14
TORSDOF 5
ENDMDL
MODEL 3
REMARK VINA RESULT:      -8.7      1.501      2.413
REMARK  5 active torsions:
REMARK  status: ('A' for Active; 'I' for Inactive)
REMARK    1  A    between atoms: S_1  and  C_8 
REMARK    2  A    between atoms: S_1  and  C_11 
REMARK    3  A    between atoms: O_2  and  C_13 
REMARK    4  A    between atoms: O_4  and  C_20 
REMARK    5  A    between atoms: C_8  and  C_9 
ROOT
HETATM    1  S   UNK     0     167.555  -6.135 343.281  0.00  0.00     0.091 S 
HETATM    2  O   UNK     0     166.779  -6.780 344.413  0.00  0.00    -0.249 OA
ENDROOT
BRANCH   1   3
HETATM    3  C   UNK     0     168.012  -7.459 342.126  0.00  0.00     0.177 C 
BRANCH   3   4
HETATM    4  C   UNK     0     166.892  -8.440 341.935  0.00  0.00     0.055 A 
HETATM    5  N   UNK     0     165.924  -8.053 341.080  0.00  0.00    -0.263 NA
HETATM    6  C   UNK     0     164.909  -8.927 340.897  0.00  0.00     0.126 A 
HETATM    7  C   UNK     0     164.821 -10.157 341.527  0.00  0.00    -0.011 A 
HETATM    8  C   UNK     0     165.842 -10.515 342.401  0.00  0.00     0.083 A 
HETATM    9  C   UNK     0     163.664 -11.056 341.264  0.00  0.00     0.052 C 
HETATM   10  C   UNK     0     166.904  -9.642 342.615  0.00  0.00    -0.003 A 
HETATM   11  C   UNK     0     168.011 -10.003 343.547  0.00  0.00     0.053 C 
BRANCH   8  12
HETATM   12  O   UNK     0     165.801 -11.717 343.044  0.00  0.00    -0.355 OA
HETATM   13  C   UNK     0     165.133 -11.756 344.303  0.00  0.00     0.210 C 
ENDBRANCH   8  12
ENDBRANCH   3   4
ENDBRANCH   1   3
BRANCH   1  14
HETATM   14  C   UNK     0     166.418  -5.203 342.264  0.00  0.00     0.198 A 
HETATM   15  N   UNK     0     165.067  -5.156 342.469  0.00  0.00    -0.331 N 
HETATM   16  C   UNK     0     164.524  -4.353 341.499  0.00  0.00     0.066 A 
HETATM   17  H   UNK     0     164.557  -5.630 343.202  0.00  0.00     0.168 HD
HETATM   18  C   UNK     0     165.615  -3.944 340.737  0.00  0.00     0.086 A 
HETATM   19  C   UNK     0     163.212  -3.960 341.232  0.00  0.00     0.068 A 
HETATM   20  N   UNK     0     166.783  -4.482 341.227  0.00  0.00    -0.221 NA
HETATM   21  C   UNK     0     165.403  -3.094 339.639  0.00  0.00     0.037 A 
HETATM   22  C   UNK     0     164.095  -2.687 339.351  0.00  0.00     0.039 A 
HETATM   23  C   UNK     0     163.019  -3.113 340.135  0.00  0.00     0.070 A 
BRANCH  23  24
HETATM   24  O   UNK     0     161.758  -2.697 339.826  0.00  0.00    -0.356 OA
HETATM   25  C   UNK     0     160.945  -2.244 340.906  0.00  0.00     0.210 C 
ENDBRANCH  23  24
ENDBRANCH   1  14
TORSDOF 5
ENDMDL
