MODEL 1
REMARK VINA RESULT:      -7.9      0.000      0.000
REMARK  5 active torsions:
REMARK  status: ('A' for Active; 'I' for Inactive)
REMARK    1  A    between atoms: S_1  and  C_8 
REMARK    2  A    between atoms: S_1  and  C_11 
REMARK    3  A    between atoms: O_2  and  C_13 
REMARK    4  A    between atoms: O_4  and  C_20 
REMARK    5  A    between atoms: C_8  and  C_9 
ROOT
HETATM    1  S   UNK     0     -12.042  22.534  -9.589  0.00  0.00     0.091 S 
HETATM    2  O   UNK     0     -12.102  21.312  -8.693  0.00  0.00    -0.249 OA
ENDROOT
BRANCH   1   3
HETATM    3  C   UNK     0     -13.751  22.944 -10.046  0.00  0.00     0.177 C 
BRANCH   3   4
HETATM    4  C   UNK     0     -14.177  22.230 -11.297  0.00  0.00     0.055 A 
HETATM    5  N   UNK     0     -13.784  22.803 -12.452  0.00  0.00    -0.263 NA
HETATM    6  C   UNK     0     -14.158  22.171 -13.587  0.00  0.00     0.126 A 
HETATM    7  C   UNK     0     -14.903  21.003 -13.614  0.00  0.00    -0.011 A 
HETATM    8  C   UNK     0     -15.286  20.447 -12.399  0.00  0.00     0.083 A 
HETATM    9  C   UNK     0     -15.270  20.376 -14.914  0.00  0.00     0.052 C 
HETATM   10  C   UNK     0     -14.919  21.068 -11.210  0.00  0.00    -0.003 A 
HETATM   11  C   UNK     0     -15.318  20.491  -9.893  0.00  0.00     0.053 C 
BRANCH   8  12
HETATM   12  O   UNK     0     -16.018  19.297 -12.375  0.00  0.00    -0.355 OA
HETATM   13  C   UNK     0     -15.294  18.069 -12.318  0.00  0.00     0.210 C 
ENDBRANCH   8  12
ENDBRANCH   3   4
ENDBRANCH   1   3
BRANCH   1  14
HETATM   14  C   UNK     0     -11.630  23.958  -8.589  0.00  0.00     0.198 A 
HETATM   15  N   UNK     0     -10.554  24.770  -8.818  0.00  0.00    -0.331 N 
HETATM   16  C   UNK     0     -10.555  25.747  -7.856  0.00  0.00     0.066 A 
HETATM   17  H   UNK     0      -9.876  24.669  -9.562  0.00  0.00     0.168 HD
HETATM   18  C   UNK     0     -11.670  25.461  -7.073  0.00  0.00     0.086 A 
HETATM   19  C   UNK     0      -9.702  26.824  -7.611  0.00  0.00     0.068 A 
HETATM   20  N   UNK     0     -12.326  24.346  -7.544  0.00  0.00    -0.221 NA
HETATM   21  C   UNK     0     -11.967  26.288  -5.976  0.00  0.00     0.037 A 
HETATM   22  C   UNK     0     -11.125  27.374  -5.711  0.00  0.00     0.039 A 
HETATM   23  C   UNK     0     -10.013  27.637  -6.515  0.00  0.00     0.070 A 
BRANCH  23  24
HETATM   24  O   UNK     0      -9.215  28.704  -6.228  0.00  0.00    -0.356 OA
HETATM   25  C   UNK     0      -9.705  29.638  -5.269  0.00  0.00     0.210 C 
ENDBRANCH  23  24
ENDBRANCH   1  14
TORSDOF 5
ENDMDL
MODEL 2
REMARK VINA RESULT:      -7.3      6.425     10.577
REMARK  5 active torsions:
REMARK  status: ('A' for Active; 'I' for Inactive)
REMARK    1  A    between atoms: S_1  and  C_8 
REMARK    2  A    between atoms: S_1  and  C_11 
REMARK    3  A    between atoms: O_2  and  C_13 
REMARK    4  A    between atoms: O_4  and  C_20 
REMARK    5  A    between atoms: C_8  and  C_9 
ROOT
HETATM    1  S   UNK     0     -16.170  18.375  -8.967  0.00  0.00     0.091 S 
HETATM    2  O   UNK     0     -15.433  17.932  -7.717  0.00  0.00    -0.249 OA
ENDROOT
BRANCH   1   3
HETATM    3  C   UNK     0     -15.059  18.081 -10.373  0.00  0.00     0.177 C 
BRANCH   3   4
HETATM    4  C   UNK     0     -15.192  19.150 -11.418  0.00  0.00     0.055 A 
HETATM    5  N   UNK     0     -15.486  20.381 -10.952  0.00  0.00    -0.263 NA
HETATM    6  C   UNK     0     -15.608  21.355 -11.881  0.00  0.00     0.126 A 
HETATM    7  C   UNK     0     -15.451  21.152 -13.243  0.00  0.00    -0.011 A 
HETATM    8  C   UNK     0     -15.148  19.867 -13.679  0.00  0.00     0.083 A 
HETATM    9  C   UNK     0     -15.604  22.287 -14.195  0.00  0.00     0.052 C 
HETATM   10  C   UNK     0     -15.014  18.839 -12.752  0.00  0.00    -0.003 A 
HETATM   11  C   UNK     0     -14.689  17.451 -13.195  0.00  0.00     0.053 C 
BRANCH   8  12
HETATM   12  O   UNK     0     -14.982  19.618 -15.009  0.00  0.00    -0.355 OA
HETATM   13  C   UNK     0     -13.655  19.707 -15.524  0.00  0.00     0.210 C 
ENDBRANCH   8  12
ENDBRANCH   3   4
ENDBRANCH   1   3
BRANCH   1  14
HETATM   14  C   UNK     0     -17.458  17.188  -9.325  0.00  0.00     0.198 A 
HETATM   15  N   UNK     0     -18.717  17.239  -8.795  0.00  0.00    -0.331 N 
HETATM   16  C   UNK     0     -19.423  16.173  -9.289  0.00  0.00     0.066 A 
HETATM   17  H   UNK     0     -19.067  17.937  -8.152  0.00  0.00     0.168 HD
HETATM   18  C   UNK     0     -18.520  15.514 -10.119  0.00  0.00     0.086 A 
HETATM   19  C   UNK     0     -20.735  15.741  -9.087  0.00  0.00     0.068 A 
HETATM   20  N   UNK     0     -17.305  16.160 -10.129  0.00  0.00    -0.221 NA
HETATM   21  C   UNK     0     -18.933  14.354 -10.796  0.00  0.00     0.037 A 
HETATM   22  C   UNK     0     -20.244  13.902 -10.608  0.00  0.00     0.039 A 
HETATM   23  C   UNK     0     -21.129  14.584  -9.769  0.00  0.00     0.070 A 
BRANCH  23  24
HETATM   24  O   UNK     0     -22.399  14.116  -9.610  0.00  0.00    -0.356 OA
HETATM   25  C   UNK     0     -22.783  13.721  -8.296  0.00  0.00     0.210 C 
ENDBRANCH  23  24
ENDBRANCH   1  14
TORSDOF 5
ENDMDL
MODEL 3
REMARK VINA RESULT:      -7.0      4.276      6.151
REMARK  5 active torsions:
REMARK  status: ('A' for Active; 'I' for Inactive)
REMARK    1  A    between atoms: S_1  and  C_8 
REMARK    2  A    between atoms: S_1  and  C_11 
REMARK    3  A    between atoms: O_2  and  C_13 
REMARK    4  A    between atoms: O_4  and  C_20 
REMARK    5  A    between atoms: C_8  and  C_9 
ROOT
HETATM    1  S   UNK     0     -16.577  17.923  -7.209  0.00  0.00     0.091 S 
HETATM    2  O   UNK     0     -17.345  17.913  -5.902  0.00  0.00    -0.249 OA
ENDROOT
BRANCH   1   3
HETATM    3  C   UNK     0     -17.804  17.925  -8.548  0.00  0.00     0.177 C 
BRANCH   3   4
HETATM    4  C   UNK     0     -17.394  17.025  -9.678  0.00  0.00     0.055 A 
HETATM    5  N   UNK     0     -16.342  17.453 -10.405  0.00  0.00    -0.263 NA
HETATM    6  C   UNK     0     -15.960  16.654 -11.425  0.00  0.00     0.126 A 
HETATM    7  C   UNK     0     -16.579  15.456 -11.747  0.00  0.00    -0.011 A 
HETATM    8  C   UNK     0     -17.660  15.055 -10.970  0.00  0.00     0.083 A 
HETATM    9  C   UNK     0     -16.089  14.639 -12.891  0.00  0.00     0.052 C 
HETATM   10  C   UNK     0     -18.082  15.851  -9.911  0.00  0.00    -0.003 A 
HETATM   11  C   UNK     0     -19.239  15.441  -9.063  0.00  0.00     0.053 C 
BRANCH   8  12
HETATM   12  O   UNK     0     -18.302  13.883 -11.246  0.00  0.00    -0.355 OA
HETATM   13  C   UNK     0     -19.368  13.936 -12.191  0.00  0.00     0.210 C 
ENDBRANCH   8  12
ENDBRANCH   3   4
ENDBRANCH   1   3
BRANCH   1  14
HETATM   14  C   UNK     0     -15.852  19.541  -7.438  0.00  0.00     0.198 A 
HETATM   15  N   UNK     0     -15.128  19.909  -8.536  0.00  0.00    -0.331 N 
HETATM   16  C   UNK     0     -14.732  21.210  -8.361  0.00  0.00     0.066 A 
HETATM   17  H   UNK     0     -14.917  19.326  -9.336  0.00  0.00     0.168 HD
HETATM   18  C   UNK     0     -15.259  21.568  -7.124  0.00  0.00     0.086 A 
HETATM   19  C   UNK     0     -13.982  22.079  -9.155  0.00  0.00     0.068 A 
HETATM   20  N   UNK     0     -15.952  20.519  -6.565  0.00  0.00    -0.221 NA
HETATM   21  C   UNK     0     -15.034  22.865  -6.633  0.00  0.00     0.037 A 
HETATM   22  C   UNK     0     -14.284  23.754  -7.412  0.00  0.00     0.039 A 
HETATM   23  C   UNK     0     -13.768  23.366  -8.652  0.00  0.00     0.070 A 
BRANCH  23  24
HETATM   24  O   UNK     0     -13.042  24.257  -9.385  0.00  0.00    -0.356 OA
HETATM   25  C   UNK     0     -11.895  24.827  -8.758  0.00  0.00     0.210 C 
ENDBRANCH  23  24
ENDBRANCH   1  14
TORSDOF 5
ENDMDL
