MODEL 1
REMARK VINA RESULT:      -7.2      0.000      0.000
REMARK  5 active torsions:
REMARK  status: ('A' for Active; 'I' for Inactive)
REMARK    1  A    between atoms: S_1  and  C_8 
REMARK    2  A    between atoms: S_1  and  C_11 
REMARK    3  A    between atoms: O_2  and  C_13 
REMARK    4  A    between atoms: O_4  and  C_20 
REMARK    5  A    between atoms: C_8  and  C_9 
ROOT
HETATM    1  S   UNK     0      40.605   3.584  32.161  0.00  0.00     0.091 S 
HETATM    2  O   UNK     0      41.555   2.402  32.189  0.00  0.00    -0.249 OA
ENDROOT
BRANCH   1   3
HETATM    3  C   UNK     0      39.125   3.056  31.252  0.00  0.00     0.177 C 
BRANCH   3   4
HETATM    4  C   UNK     0      39.448   2.687  29.832  0.00  0.00     0.055 A 
HETATM    5  N   UNK     0      40.042   1.488  29.668  0.00  0.00    -0.263 NA
HETATM    6  C   UNK     0      40.338   1.142  28.395  0.00  0.00     0.126 A 
HETATM    7  C   UNK     0      40.068   1.935  27.292  0.00  0.00    -0.011 A 
HETATM    8  C   UNK     0      39.455   3.164  27.509  0.00  0.00     0.083 A 
HETATM    9  C   UNK     0      40.431   1.471  25.925  0.00  0.00     0.052 C 
HETATM   10  C   UNK     0      39.135   3.555  28.805  0.00  0.00    -0.003 A 
HETATM   11  C   UNK     0      38.475   4.869  29.064  0.00  0.00     0.053 C 
BRANCH   8  12
HETATM   12  O   UNK     0      39.168   3.980  26.455  0.00  0.00    -0.355 OA
HETATM   13  C   UNK     0      37.883   3.834  25.854  0.00  0.00     0.210 C 
ENDBRANCH   8  12
ENDBRANCH   3   4
ENDBRANCH   1   3
BRANCH   1  14
HETATM   14  C   UNK     0      39.914   3.804  33.796  0.00  0.00     0.198 A 
HETATM   15  N   UNK     0      38.702   4.385  34.044  0.00  0.00    -0.331 N 
HETATM   16  C   UNK     0      38.507   4.384  35.401  0.00  0.00     0.066 A 
HETATM   17  H   UNK     0      38.062   4.752  33.352  0.00  0.00     0.168 HD
HETATM   18  C   UNK     0      39.653   3.782  35.915  0.00  0.00     0.086 A 
HETATM   19  C   UNK     0      37.460   4.845  36.200  0.00  0.00     0.068 A 
HETATM   20  N   UNK     0      40.515   3.428  34.902  0.00  0.00    -0.221 NA
HETATM   21  C   UNK     0      39.777   3.622  37.305  0.00  0.00     0.037 A 
HETATM   22  C   UNK     0      38.739   4.077  38.126  0.00  0.00     0.039 A 
HETATM   23  C   UNK     0      37.600   4.677  37.581  0.00  0.00     0.070 A 
BRANCH  23  24
HETATM   24  O   UNK     0      36.607   5.108  38.411  0.00  0.00    -0.356 OA
HETATM   25  C   UNK     0      36.822   4.951  39.811  0.00  0.00     0.210 C 
ENDBRANCH  23  24
ENDBRANCH   1  14
TORSDOF 5
ENDMDL
MODEL 2
REMARK VINA RESULT:      -6.9      1.528      2.302
REMARK  5 active torsions:
REMARK  status: ('A' for Active; 'I' for Inactive)
REMARK    1  A    between atoms: S_1  and  C_8 
REMARK    2  A    between atoms: S_1  and  C_11 
REMARK    3  A    between atoms: O_2  and  C_13 
REMARK    4  A    between atoms: O_4  and  C_20 
REMARK    5  A    between atoms: C_8  and  C_9 
ROOT
HETATM    1  S   UNK     0      42.301   3.419  32.921  0.00  0.00     0.091 S 
HETATM    2  O   UNK     0      43.619   2.916  33.477  0.00  0.00    -0.249 OA
ENDROOT
BRANCH   1   3
HETATM    3  C   UNK     0      41.584   2.066  31.944  0.00  0.00     0.177 C 
BRANCH   3   4
HETATM    4  C   UNK     0      40.740   2.584  30.815  0.00  0.00     0.055 A 
HETATM    5  N   UNK     0      40.230   3.819  30.995  0.00  0.00    -0.263 NA
HETATM    6  C   UNK     0      39.468   4.299  29.987  0.00  0.00     0.126 A 
HETATM    7  C   UNK     0      39.197   3.604  28.819  0.00  0.00    -0.011 A 
HETATM    8  C   UNK     0      39.744   2.333  28.678  0.00  0.00     0.083 A 
HETATM    9  C   UNK     0      38.346   4.214  27.761  0.00  0.00     0.052 C 
HETATM   10  C   UNK     0      40.533   1.805  29.694  0.00  0.00    -0.003 A 
HETATM   11  C   UNK     0      41.132   0.444  29.565  0.00  0.00     0.053 C 
BRANCH   8  12
HETATM   12  O   UNK     0      39.507   1.610  27.546  0.00  0.00    -0.355 OA
HETATM   13  C   UNK     0      40.386   1.826  26.444  0.00  0.00     0.210 C 
ENDBRANCH   8  12
ENDBRANCH   3   4
ENDBRANCH   1   3
BRANCH   1  14
HETATM   14  C   UNK     0      41.114   3.513  34.255  0.00  0.00     0.198 A 
HETATM   15  N   UNK     0      40.004   4.312  34.239  0.00  0.00    -0.331 N 
HETATM   16  C   UNK     0      39.337   4.125  35.422  0.00  0.00     0.066 A 
HETATM   17  H   UNK     0      39.725   4.932  33.490  0.00  0.00     0.168 HD
HETATM   18  C   UNK     0      40.107   3.192  36.110  0.00  0.00     0.086 A 
HETATM   19  C   UNK     0      38.162   4.676  35.934  0.00  0.00     0.068 A 
HETATM   20  N   UNK     0      41.207   2.823  35.369  0.00  0.00    -0.221 NA
HETATM   21  C   UNK     0      39.696   2.772  37.386  0.00  0.00     0.037 A 
HETATM   22  C   UNK     0      38.520   3.311  37.921  0.00  0.00     0.039 A 
HETATM   23  C   UNK     0      37.767   4.247  37.206  0.00  0.00     0.070 A 
BRANCH  23  24
HETATM   24  O   UNK     0      36.626   4.751  37.756  0.00  0.00    -0.356 OA
HETATM   25  C   UNK     0      36.615   6.144  38.057  0.00  0.00     0.210 C 
ENDBRANCH  23  24
ENDBRANCH   1  14
TORSDOF 5
ENDMDL
MODEL 3
REMARK VINA RESULT:      -5.8     18.908     20.853
REMARK  5 active torsions:
REMARK  status: ('A' for Active; 'I' for Inactive)
REMARK    1  A    between atoms: S_1  and  C_8 
REMARK    2  A    between atoms: S_1  and  C_11 
REMARK    3  A    between atoms: O_2  and  C_13 
REMARK    4  A    between atoms: O_4  and  C_20 
REMARK    5  A    between atoms: C_8  and  C_9 
ROOT
HETATM    1  S   UNK     0      23.648  14.467  24.361  0.00  0.00     0.091 S 
HETATM    2  O   UNK     0      23.157  15.516  23.382  0.00  0.00    -0.249 OA
ENDROOT
BRANCH   1   3
HETATM    3  C   UNK     0      24.571  15.341  25.659  0.00  0.00     0.177 C 
BRANCH   3   4
HETATM    4  C   UNK     0      25.875  15.880  25.145  0.00  0.00     0.055 A 
HETATM    5  N   UNK     0      25.831  17.138  24.663  0.00  0.00    -0.263 NA
HETATM    6  C   UNK     0      26.997  17.638  24.198  0.00  0.00     0.126 A 
HETATM    7  C   UNK     0      28.194  16.939  24.194  0.00  0.00    -0.011 A 
HETATM    8  C   UNK     0      28.192  15.644  24.700  0.00  0.00     0.083 A 
HETATM    9  C   UNK     0      29.432  17.572  23.661  0.00  0.00     0.052 C 
HETATM   10  C   UNK     0      27.011  15.096  25.188  0.00  0.00    -0.003 A 
HETATM   11  C   UNK     0      26.984  13.708  25.737  0.00  0.00     0.053 C 
BRANCH   8  12
HETATM   12  O   UNK     0      29.346  14.917  24.718  0.00  0.00    -0.355 OA
HETATM   13  C   UNK     0      29.597  14.071  23.598  0.00  0.00     0.210 C 
ENDBRANCH   8  12
ENDBRANCH   3   4
ENDBRANCH   1   3
BRANCH   1  14
HETATM   14  C   UNK     0      22.255  13.869  25.308  0.00  0.00     0.198 A 
HETATM   15  N   UNK     0      21.345  14.679  25.930  0.00  0.00    -0.331 N 
HETATM   16  C   UNK     0      20.428  13.875  26.557  0.00  0.00     0.066 A 
HETATM   17  H   UNK     0      21.348  15.690  25.931  0.00  0.00     0.168 HD
HETATM   18  C   UNK     0      20.849  12.579  26.268  0.00  0.00     0.086 A 
HETATM   19  C   UNK     0      19.301  14.160  27.328  0.00  0.00     0.068 A 
HETATM   20  N   UNK     0      21.985  12.596  25.492  0.00  0.00    -0.221 NA
HETATM   21  C   UNK     0      20.114  11.493  26.771  0.00  0.00     0.037 A 
HETATM   22  C   UNK     0      18.979  11.755  27.547  0.00  0.00     0.039 A 
HETATM   23  C   UNK     0      18.580  13.067  27.820  0.00  0.00     0.070 A 
BRANCH  23  24
HETATM   24  O   UNK     0      17.469  13.286  28.579  0.00  0.00    -0.356 OA
HETATM   25  C   UNK     0      17.352  12.534  29.784  0.00  0.00     0.210 C 
ENDBRANCH  23  24
ENDBRANCH   1  14
TORSDOF 5
ENDMDL
