MODEL 1
REMARK VINA RESULT:      -8.0      0.000      0.000
REMARK  5 active torsions:
REMARK  status: ('A' for Active; 'I' for Inactive)
REMARK    1  A    between atoms: S_1  and  C_8 
REMARK    2  A    between atoms: S_1  and  C_11 
REMARK    3  A    between atoms: O_2  and  C_13 
REMARK    4  A    between atoms: O_4  and  C_20 
REMARK    5  A    between atoms: C_8  and  C_9 
ROOT
HETATM    1  S   UNK     0     -24.489  10.108  14.752  0.00  0.00     0.091 S 
HETATM    2  O   UNK     0     -24.770  11.205  15.761  0.00  0.00    -0.249 OA
ENDROOT
BRANCH   1   3
HETATM    3  C   UNK     0     -23.212  10.736  13.624  0.00  0.00     0.177 C 
BRANCH   3   4
HETATM    4  C   UNK     0     -23.259  12.232  13.510  0.00  0.00     0.055 A 
HETATM    5  N   UNK     0     -24.207  12.719  12.685  0.00  0.00    -0.263 NA
HETATM    6  C   UNK     0     -24.264  14.065  12.572  0.00  0.00     0.126 A 
HETATM    7  C   UNK     0     -23.420  14.935  13.243  0.00  0.00    -0.011 A 
HETATM    8  C   UNK     0     -22.457  14.389  14.084  0.00  0.00     0.083 A 
HETATM    9  C   UNK     0     -23.555  16.407  13.058  0.00  0.00     0.052 C 
HETATM   10  C   UNK     0     -22.369  13.008  14.226  0.00  0.00    -0.003 A 
HETATM   11  C   UNK     0     -21.344  12.398  15.123  0.00  0.00     0.053 C 
BRANCH   8  12
HETATM   12  O   UNK     0     -21.605  15.205  14.767  0.00  0.00    -0.355 OA
HETATM   13  C   UNK     0     -22.029  15.655  16.052  0.00  0.00     0.210 C 
ENDBRANCH   8  12
ENDBRANCH   3   4
ENDBRANCH   1   3
BRANCH   1  14
HETATM   14  C   UNK     0     -23.581   8.799  15.565  0.00  0.00     0.198 A 
HETATM   15  N   UNK     0     -24.115   7.583  15.890  0.00  0.00    -0.331 N 
HETATM   16  C   UNK     0     -23.133   6.845  16.499  0.00  0.00     0.066 A 
HETATM   17  H   UNK     0     -25.064   7.281  15.716  0.00  0.00     0.168 HD
HETATM   18  C   UNK     0     -22.023   7.685  16.508  0.00  0.00     0.086 A 
HETATM   19  C   UNK     0     -23.121   5.553  17.028  0.00  0.00     0.068 A 
HETATM   20  N   UNK     0     -22.320   8.894  15.923  0.00  0.00    -0.221 NA
HETATM   21  C   UNK     0     -20.821   7.226  17.073  0.00  0.00     0.037 A 
HETATM   22  C   UNK     0     -20.786   5.933  17.609  0.00  0.00     0.039 A 
HETATM   23  C   UNK     0     -21.917   5.112  17.586  0.00  0.00     0.070 A 
BRANCH  23  24
HETATM   24  O   UNK     0     -21.846   3.859  18.117  0.00  0.00    -0.356 OA
HETATM   25  C   UNK     0     -20.887   3.648  19.150  0.00  0.00     0.210 C 
ENDBRANCH  23  24
ENDBRANCH   1  14
TORSDOF 5
ENDMDL
MODEL 2
REMARK VINA RESULT:      -7.8      2.131      2.912
REMARK  5 active torsions:
REMARK  status: ('A' for Active; 'I' for Inactive)
REMARK    1  A    between atoms: S_1  and  C_8 
REMARK    2  A    between atoms: S_1  and  C_11 
REMARK    3  A    between atoms: O_2  and  C_13 
REMARK    4  A    between atoms: O_4  and  C_20 
REMARK    5  A    between atoms: C_8  and  C_9 
ROOT
HETATM    1  S   UNK     0     -21.752  10.331  15.658  0.00  0.00     0.091 S 
HETATM    2  O   UNK     0     -21.092  10.246  14.295  0.00  0.00    -0.249 OA
ENDROOT
BRANCH   1   3
HETATM    3  C   UNK     0     -23.297  11.260  15.445  0.00  0.00     0.177 C 
BRANCH   3   4
HETATM    4  C   UNK     0     -23.040  12.724  15.233  0.00  0.00     0.055 A 
HETATM    5  N   UNK     0     -22.550  13.385  16.301  0.00  0.00    -0.263 NA
HETATM    6  C   UNK     0     -22.312  14.704  16.126  0.00  0.00     0.126 A 
HETATM    7  C   UNK     0     -22.542  15.383  14.940  0.00  0.00    -0.011 A 
HETATM    8  C   UNK     0     -23.048  14.661  13.865  0.00  0.00     0.083 A 
HETATM    9  C   UNK     0     -22.249  16.839  14.839  0.00  0.00     0.052 C 
HETATM   10  C   UNK     0     -23.305  13.302  14.007  0.00  0.00    -0.003 A 
HETATM   11  C   UNK     0     -23.848  12.506  12.868  0.00  0.00     0.053 C 
BRANCH   8  12
HETATM   12  O   UNK     0     -23.289  15.285  12.677  0.00  0.00    -0.355 OA
HETATM   13  C   UNK     0     -24.581  15.862  12.498  0.00  0.00     0.210 C 
ENDBRANCH   8  12
ENDBRANCH   3   4
ENDBRANCH   1   3
BRANCH   1  14
HETATM   14  C   UNK     0     -22.403   8.720  16.081  0.00  0.00     0.198 A 
HETATM   15  N   UNK     0     -23.717   8.366  15.951  0.00  0.00    -0.331 N 
HETATM   16  C   UNK     0     -23.844   7.067  16.372  0.00  0.00     0.066 A 
HETATM   17  H   UNK     0     -24.464   8.955  15.607  0.00  0.00     0.168 HD
HETATM   18  C   UNK     0     -22.555   6.697  16.745  0.00  0.00     0.086 A 
HETATM   19  C   UNK     0     -24.943   6.211  16.456  0.00  0.00     0.068 A 
HETATM   20  N   UNK     0     -21.674   7.736  16.557  0.00  0.00    -0.221 NA
HETATM   21  C   UNK     0     -22.331   5.399  17.234  0.00  0.00     0.037 A 
HETATM   22  C   UNK     0     -23.418   4.522  17.327  0.00  0.00     0.039 A 
HETATM   23  C   UNK     0     -24.701   4.922  16.943  0.00  0.00     0.070 A 
BRANCH  23  24
HETATM   24  O   UNK     0     -25.737   4.042  17.047  0.00  0.00    -0.356 OA
HETATM   25  C   UNK     0     -26.983   4.561  17.504  0.00  0.00     0.210 C 
ENDBRANCH  23  24
ENDBRANCH   1  14
TORSDOF 5
ENDMDL
MODEL 3
REMARK VINA RESULT:      -7.8      1.745      2.256
REMARK  5 active torsions:
REMARK  status: ('A' for Active; 'I' for Inactive)
REMARK    1  A    between atoms: S_1  and  C_8 
REMARK    2  A    between atoms: S_1  and  C_11 
REMARK    3  A    between atoms: O_2  and  C_13 
REMARK    4  A    between atoms: O_4  and  C_20 
REMARK    5  A    between atoms: C_8  and  C_9 
ROOT
HETATM    1  S   UNK     0     -21.119  10.987  15.721  0.00  0.00     0.091 S 
HETATM    2  O   UNK     0     -20.851  11.051  14.230  0.00  0.00    -0.249 OA
ENDROOT
BRANCH   1   3
HETATM    3  C   UNK     0     -22.727  11.780  16.009  0.00  0.00     0.177 C 
BRANCH   3   4
HETATM    4  C   UNK     0     -23.121  12.667  14.863  0.00  0.00     0.055 A 
HETATM    5  N   UNK     0     -23.816  12.064  13.878  0.00  0.00    -0.263 NA
HETATM    6  C   UNK     0     -24.179  12.849  12.840  0.00  0.00     0.126 A 
HETATM    7  C   UNK     0     -23.878  14.199  12.746  0.00  0.00    -0.011 A 
HETATM    8  C   UNK     0     -23.158  14.779  13.784  0.00  0.00     0.083 A 
HETATM    9  C   UNK     0     -24.319  14.987  11.562  0.00  0.00     0.052 C 
HETATM   10  C   UNK     0     -22.768  14.002  14.870  0.00  0.00    -0.003 A 
HETATM   11  C   UNK     0     -21.996  14.601  15.998  0.00  0.00     0.053 C 
BRANCH   8  12
HETATM   12  O   UNK     0     -22.840  16.104  13.738  0.00  0.00    -0.355 OA
HETATM   13  C   UNK     0     -21.629  16.456  13.073  0.00  0.00     0.210 C 
ENDBRANCH   8  12
ENDBRANCH   3   4
ENDBRANCH   1   3
BRANCH   1  14
HETATM   14  C   UNK     0     -21.513   9.299  16.161  0.00  0.00     0.198 A 
HETATM   15  N   UNK     0     -22.740   8.725  15.981  0.00  0.00    -0.331 N 
HETATM   16  C   UNK     0     -22.670   7.433  16.434  0.00  0.00     0.066 A 
HETATM   17  H   UNK     0     -23.557   9.173  15.586  0.00  0.00     0.168 HD
HETATM   18  C   UNK     0     -21.358   7.293  16.878  0.00  0.00     0.086 A 
HETATM   19  C   UNK     0     -23.613   6.406  16.492  0.00  0.00     0.068 A 
HETATM   20  N   UNK     0     -20.654   8.462  16.700  0.00  0.00    -0.221 NA
HETATM   21  C   UNK     0     -20.944   6.062  17.414  0.00  0.00     0.037 A 
HETATM   22  C   UNK     0     -21.873   5.017  17.483  0.00  0.00     0.039 A 
HETATM   23  C   UNK     0     -23.184   5.187  17.029  0.00  0.00     0.070 A 
BRANCH  23  24
HETATM   24  O   UNK     0     -24.062   4.148  17.110  0.00  0.00    -0.356 OA
HETATM   25  C   UNK     0     -25.450   4.470  17.075  0.00  0.00     0.210 C 
ENDBRANCH  23  24
ENDBRANCH   1  14
TORSDOF 5
ENDMDL
