MODEL 1
REMARK VINA RESULT:      -6.6      0.000      0.000
REMARK  5 active torsions:
REMARK  status: ('A' for Active; 'I' for Inactive)
REMARK    1  A    between atoms: S_1  and  C_8 
REMARK    2  A    between atoms: S_1  and  C_11 
REMARK    3  A    between atoms: O_2  and  C_13 
REMARK    4  A    between atoms: O_4  and  C_20 
REMARK    5  A    between atoms: C_8  and  C_9 
ROOT
HETATM    1  S   UNK     0      -8.061  29.496  54.970  0.00  0.00     0.091 S 
HETATM    2  O   UNK     0      -8.987  28.340  55.295  0.00  0.00    -0.249 OA
ENDROOT
BRANCH   1   3
HETATM    3  C   UNK     0      -6.554  29.265  55.955  0.00  0.00     0.177 C 
BRANCH   3   4
HETATM    4  C   UNK     0      -6.680  29.886  57.317  0.00  0.00     0.055 A 
HETATM    5  N   UNK     0      -7.824  30.566  57.538  0.00  0.00    -0.263 NA
HETATM    6  C   UNK     0      -7.953  31.130  58.759  0.00  0.00     0.126 A 
HETATM    7  C   UNK     0      -6.997  31.045  59.758  0.00  0.00    -0.011 A 
HETATM    8  C   UNK     0      -5.834  30.334  59.486  0.00  0.00     0.083 A 
HETATM    9  C   UNK     0      -7.226  31.700  61.076  0.00  0.00     0.052 C 
HETATM   10  C   UNK     0      -5.665  29.739  58.241  0.00  0.00    -0.003 A 
HETATM   11  C   UNK     0      -4.425  28.970  57.925  0.00  0.00     0.053 C 
BRANCH   8  12
HETATM   12  O   UNK     0      -4.864  30.221  60.439  0.00  0.00    -0.355 OA
HETATM   13  C   UNK     0      -4.954  29.107  61.324  0.00  0.00     0.210 C 
ENDBRANCH   8  12
ENDBRANCH   3   4
ENDBRANCH   1   3
BRANCH   1  14
HETATM   14  C   UNK     0      -7.404  29.260  53.323  0.00  0.00     0.198 A 
HETATM   15  N   UNK     0      -6.168  28.741  53.057  0.00  0.00    -0.331 N 
HETATM   16  C   UNK     0      -6.009  28.713  51.696  0.00  0.00     0.066 A 
HETATM   17  H   UNK     0      -5.490  28.433  53.741  0.00  0.00     0.168 HD
HETATM   18  C   UNK     0      -7.200  29.235  51.198  0.00  0.00     0.086 A 
HETATM   19  C   UNK     0      -4.958  28.290  50.882  0.00  0.00     0.068 A 
HETATM   20  N   UNK     0      -8.055  29.569  52.224  0.00  0.00    -0.221 NA
HETATM   21  C   UNK     0      -7.369  29.348  49.808  0.00  0.00     0.037 A 
HETATM   22  C   UNK     0      -6.328  28.930  48.971  0.00  0.00     0.039 A 
HETATM   23  C   UNK     0      -5.144  28.409  49.500  0.00  0.00     0.070 A 
BRANCH  23  24
HETATM   24  O   UNK     0      -4.151  28.010  48.656  0.00  0.00    -0.356 OA
HETATM   25  C   UNK     0      -2.920  27.608  49.251  0.00  0.00     0.210 C 
ENDBRANCH  23  24
ENDBRANCH   1  14
TORSDOF 5
ENDMDL
MODEL 2
REMARK VINA RESULT:      -6.2      1.549      8.056
REMARK  5 active torsions:
REMARK  status: ('A' for Active; 'I' for Inactive)
REMARK    1  A    between atoms: S_1  and  C_8 
REMARK    2  A    between atoms: S_1  and  C_11 
REMARK    3  A    between atoms: O_2  and  C_13 
REMARK    4  A    between atoms: O_4  and  C_20 
REMARK    5  A    between atoms: C_8  and  C_9 
ROOT
HETATM    1  S   UNK     0      -8.934  30.163  55.257  0.00  0.00     0.091 S 
HETATM    2  O   UNK     0      -8.491  31.238  54.283  0.00  0.00    -0.249 OA
ENDROOT
BRANCH   1   3
HETATM    3  C   UNK     0      -8.522  28.562  54.506  0.00  0.00     0.177 C 
BRANCH   3   4
HETATM    4  C   UNK     0      -8.069  28.716  53.082  0.00  0.00     0.055 A 
HETATM    5  N   UNK     0      -8.998  29.195  52.229  0.00  0.00    -0.263 NA
HETATM    6  C   UNK     0      -8.605  29.341  50.944  0.00  0.00     0.126 A 
HETATM    7  C   UNK     0      -7.337  29.031  50.481  0.00  0.00    -0.011 A 
HETATM    8  C   UNK     0      -6.412  28.540  51.395  0.00  0.00     0.083 A 
HETATM    9  C   UNK     0      -6.993  29.225  49.045  0.00  0.00     0.052 C 
HETATM   10  C   UNK     0      -6.779  28.377  52.727  0.00  0.00    -0.003 A 
HETATM   11  C   UNK     0      -5.804  27.853  53.727  0.00  0.00     0.053 C 
BRANCH   8  12
HETATM   12  O   UNK     0      -5.150  28.223  50.986  0.00  0.00    -0.355 OA
HETATM   13  C   UNK     0      -4.207  29.290  50.907  0.00  0.00     0.210 C 
ENDBRANCH   8  12
ENDBRANCH   3   4
ENDBRANCH   1   3
BRANCH   1  14
HETATM   14  C   UNK     0      -7.817  30.157  56.653  0.00  0.00     0.198 A 
HETATM   15  N   UNK     0      -6.587  29.562  56.649  0.00  0.00    -0.331 N 
HETATM   16  C   UNK     0      -6.023  29.757  57.884  0.00  0.00     0.066 A 
HETATM   17  H   UNK     0      -6.166  29.064  55.875  0.00  0.00     0.168 HD
HETATM   18  C   UNK     0      -6.978  30.484  58.589  0.00  0.00     0.086 A 
HETATM   19  C   UNK     0      -4.797  29.371  58.428  0.00  0.00     0.068 A 
HETATM   20  N   UNK     0      -8.085  30.724  57.808  0.00  0.00    -0.221 NA
HETATM   21  C   UNK     0      -6.710  30.857  59.917  0.00  0.00     0.037 A 
HETATM   22  C   UNK     0      -5.487  30.481  60.484  0.00  0.00     0.039 A 
HETATM   23  C   UNK     0      -4.547  29.751  59.750  0.00  0.00     0.070 A 
BRANCH  23  24
HETATM   24  O   UNK     0      -3.366  29.402  60.334  0.00  0.00    -0.356 OA
HETATM   25  C   UNK     0      -3.414  29.003  61.702  0.00  0.00     0.210 C 
ENDBRANCH  23  24
ENDBRANCH   1  14
TORSDOF 5
ENDMDL
MODEL 3
REMARK VINA RESULT:      -6.1     17.413     18.780
REMARK  5 active torsions:
REMARK  status: ('A' for Active; 'I' for Inactive)
REMARK    1  A    between atoms: S_1  and  C_8 
REMARK    2  A    between atoms: S_1  and  C_11 
REMARK    3  A    between atoms: O_2  and  C_13 
REMARK    4  A    between atoms: O_4  and  C_20 
REMARK    5  A    between atoms: C_8  and  C_9 
ROOT
HETATM    1  S   UNK     0     -18.775  38.298  47.331  0.00  0.00     0.091 S 
HETATM    2  O   UNK     0     -18.074  39.633  47.493  0.00  0.00    -0.249 OA
ENDROOT
BRANCH   1   3
HETATM    3  C   UNK     0     -20.557  38.639  47.246  0.00  0.00     0.177 C 
BRANCH   3   4
HETATM    4  C   UNK     0     -21.369  37.471  47.727  0.00  0.00     0.055 A 
HETATM    5  N   UNK     0     -20.826  36.769  48.742  0.00  0.00    -0.263 NA
HETATM    6  C   UNK     0     -21.545  35.715  49.187  0.00  0.00     0.126 A 
HETATM    7  C   UNK     0     -22.772  35.336  48.665  0.00  0.00    -0.011 A 
HETATM    8  C   UNK     0     -23.293  36.089  47.618  0.00  0.00     0.083 A 
HETATM    9  C   UNK     0     -23.494  34.158  49.220  0.00  0.00     0.052 C 
HETATM   10  C   UNK     0     -22.582  37.181  47.134  0.00  0.00    -0.003 A 
HETATM   11  C   UNK     0     -23.120  38.005  46.012  0.00  0.00     0.053 C 
BRANCH   8  12
HETATM   12  O   UNK     0     -24.498  35.756  47.072  0.00  0.00    -0.355 OA
HETATM   13  C   UNK     0     -25.661  36.302  47.690  0.00  0.00     0.210 C 
ENDBRANCH   8  12
ENDBRANCH   3   4
ENDBRANCH   1   3
BRANCH   1  14
HETATM   14  C   UNK     0     -18.487  37.696  45.672  0.00  0.00     0.198 A 
HETATM   15  N   UNK     0     -18.423  38.496  44.566  0.00  0.00    -0.331 N 
HETATM   16  C   UNK     0     -18.194  37.691  43.479  0.00  0.00     0.066 A 
HETATM   17  H   UNK     0     -18.527  39.502  44.548  0.00  0.00     0.168 HD
HETATM   18  C   UNK     0     -18.130  36.405  44.009  0.00  0.00     0.086 A 
HETATM   19  C   UNK     0     -18.042  37.969  42.120  0.00  0.00     0.068 A 
HETATM   20  N   UNK     0     -18.314  36.428  45.373  0.00  0.00    -0.221 NA
HETATM   21  C   UNK     0     -17.901  35.320  43.146  0.00  0.00     0.037 A 
HETATM   22  C   UNK     0     -17.746  35.575  41.778  0.00  0.00     0.039 A 
HETATM   23  C   UNK     0     -17.815  36.877  41.276  0.00  0.00     0.070 A 
BRANCH  23  24
HETATM   24  O   UNK     0     -17.658  37.089  39.938  0.00  0.00    -0.356 OA
HETATM   25  C   UNK     0     -16.878  36.136  39.220  0.00  0.00     0.210 C 
ENDBRANCH  23  24
ENDBRANCH   1  14
TORSDOF 5
ENDMDL
