MODEL 1
REMARK VINA RESULT:      -8.1      0.000      0.000
REMARK  5 active torsions:
REMARK  status: ('A' for Active; 'I' for Inactive)
REMARK    1  A    between atoms: S_1  and  C_8 
REMARK    2  A    between atoms: S_1  and  C_11 
REMARK    3  A    between atoms: O_2  and  C_13 
REMARK    4  A    between atoms: O_4  and  C_20 
REMARK    5  A    between atoms: C_8  and  C_9 
ROOT
HETATM    1  S   UNK     0       9.510   7.347   8.599  0.00  0.00     0.091 S 
HETATM    2  O   UNK     0       9.718   5.858   8.400  0.00  0.00    -0.249 OA
ENDROOT
BRANCH   1   3
HETATM    3  C   UNK     0      10.866   7.938   9.653  0.00  0.00     0.177 C 
BRANCH   3   4
HETATM    4  C   UNK     0      10.354   8.532  10.934  0.00  0.00     0.055 A 
HETATM    5  N   UNK     0       9.948   7.642  11.862  0.00  0.00    -0.263 NA
HETATM    6  C   UNK     0       9.486   8.161  13.021  0.00  0.00     0.126 A 
HETATM    7  C   UNK     0       9.412   9.519  13.288  0.00  0.00    -0.011 A 
HETATM    8  C   UNK     0       9.841  10.400  12.302  0.00  0.00     0.083 A 
HETATM    9  C   UNK     0       8.888  10.000  14.596  0.00  0.00     0.052 C 
HETATM   10  C   UNK     0      10.324   9.903  11.096  0.00  0.00    -0.003 A 
HETATM   11  C   UNK     0      10.791  10.828  10.022  0.00  0.00     0.053 C 
BRANCH   8  12
HETATM   12  O   UNK     0       9.789  11.745  12.519  0.00  0.00    -0.355 OA
HETATM   13  C   UNK     0      10.863  12.324  13.257  0.00  0.00     0.210 C 
ENDBRANCH   8  12
ENDBRANCH   3   4
ENDBRANCH   1   3
BRANCH   1  14
HETATM   14  C   UNK     0       9.902   8.190   7.072  0.00  0.00     0.198 A 
HETATM   15  N   UNK     0       9.197   9.253   6.580  0.00  0.00    -0.331 N 
HETATM   16  C   UNK     0       9.781   9.632   5.399  0.00  0.00     0.066 A 
HETATM   17  H   UNK     0       8.387   9.682   7.007  0.00  0.00     0.168 HD
HETATM   18  C   UNK     0      10.844   8.747   5.238  0.00  0.00     0.086 A 
HETATM   19  C   UNK     0       9.480  10.643   4.484  0.00  0.00     0.068 A 
HETATM   20  N   UNK     0      10.904   7.859   6.288  0.00  0.00    -0.221 NA
HETATM   21  C   UNK     0      11.666   8.863   4.105  0.00  0.00     0.037 A 
HETATM   22  C   UNK     0      11.383   9.870   3.174  0.00  0.00     0.039 A 
HETATM   23  C   UNK     0      10.309  10.744   3.362  0.00  0.00     0.070 A 
BRANCH  23  24
HETATM   24  O   UNK     0      10.063  11.713   2.435  0.00  0.00    -0.356 OA
HETATM   25  C   UNK     0      10.635  11.531   1.143  0.00  0.00     0.210 C 
ENDBRANCH  23  24
ENDBRANCH   1  14
TORSDOF 5
ENDMDL
MODEL 2
REMARK VINA RESULT:      -8.1      2.126      8.823
REMARK  5 active torsions:
REMARK  status: ('A' for Active; 'I' for Inactive)
REMARK    1  A    between atoms: S_1  and  C_8 
REMARK    2  A    between atoms: S_1  and  C_11 
REMARK    3  A    between atoms: O_2  and  C_13 
REMARK    4  A    between atoms: O_4  and  C_20 
REMARK    5  A    between atoms: C_8  and  C_9 
ROOT
HETATM    1  S   UNK     0      10.838   8.519   6.060  0.00  0.00     0.091 S 
HETATM    2  O   UNK     0      10.722   7.082   5.590  0.00  0.00    -0.249 OA
ENDROOT
BRANCH   1   3
HETATM    3  C   UNK     0       9.383   9.405   5.432  0.00  0.00     0.177 C 
BRANCH   3   4
HETATM    4  C   UNK     0       9.665  10.069   4.114  0.00  0.00     0.055 A 
HETATM    5  N   UNK     0      10.769  10.842   4.081  0.00  0.00    -0.263 NA
HETATM    6  C   UNK     0      11.036  11.446   2.902  0.00  0.00     0.126 A 
HETATM    7  C   UNK     0      10.254  11.312   1.767  0.00  0.00    -0.011 A 
HETATM    8  C   UNK     0       9.124  10.506   1.847  0.00  0.00     0.083 A 
HETATM    9  C   UNK     0      10.626  12.017   0.509  0.00  0.00     0.052 C 
HETATM   10  C   UNK     0       8.817   9.867   3.043  0.00  0.00    -0.003 A 
HETATM   11  C   UNK     0       7.610   8.995   3.155  0.00  0.00     0.053 C 
BRANCH   8  12
HETATM   12  O   UNK     0       8.323  10.341   0.755  0.00  0.00    -0.355 OA
HETATM   13  C   UNK     0       8.711   9.345  -0.188  0.00  0.00     0.210 C 
ENDBRANCH   8  12
ENDBRANCH   3   4
ENDBRANCH   1   3
BRANCH   1  14
HETATM   14  C   UNK     0      10.512   8.577   7.817  0.00  0.00     0.198 A 
HETATM   15  N   UNK     0      10.351   7.471   8.604  0.00  0.00    -0.331 N 
HETATM   16  C   UNK     0      10.114   7.899   9.885  0.00  0.00     0.066 A 
HETATM   17  H   UNK     0      10.395   6.508   8.298  0.00  0.00     0.168 HD
HETATM   18  C   UNK     0      10.147   9.288   9.798  0.00  0.00     0.086 A 
HETATM   19  C   UNK     0       9.881   7.211  11.077  0.00  0.00     0.068 A 
HETATM   20  N   UNK     0      10.396   9.691   8.505  0.00  0.00    -0.221 NA
HETATM   21  C   UNK     0       9.937  10.052  10.957  0.00  0.00     0.037 A 
HETATM   22  C   UNK     0       9.701   9.384  12.165  0.00  0.00     0.039 A 
HETATM   23  C   UNK     0       9.674   7.988  12.222  0.00  0.00     0.070 A 
BRANCH  23  24
HETATM   24  O   UNK     0       9.442   7.370  13.415  0.00  0.00    -0.356 OA
HETATM   25  C   UNK     0       9.661   8.140  14.594  0.00  0.00     0.210 C 
ENDBRANCH  23  24
ENDBRANCH   1  14
TORSDOF 5
ENDMDL
MODEL 3
REMARK VINA RESULT:      -7.8      1.608      8.367
REMARK  5 active torsions:
REMARK  status: ('A' for Active; 'I' for Inactive)
REMARK    1  A    between atoms: S_1  and  C_8 
REMARK    2  A    between atoms: S_1  and  C_11 
REMARK    3  A    between atoms: O_2  and  C_13 
REMARK    4  A    between atoms: O_4  and  C_20 
REMARK    5  A    between atoms: C_8  and  C_9 
ROOT
HETATM    1  S   UNK     0      10.650   7.162   9.208  0.00  0.00     0.091 S 
HETATM    2  O   UNK     0      10.325   5.695   9.413  0.00  0.00    -0.249 OA
ENDROOT
BRANCH   1   3
HETATM    3  C   UNK     0       9.382   7.839   8.099  0.00  0.00     0.177 C 
BRANCH   3   4
HETATM    4  C   UNK     0       9.968   8.271   6.785  0.00  0.00     0.055 A 
HETATM    5  N   UNK     0      10.895   7.441   6.265  0.00  0.00    -0.263 NA
HETATM    6  C   UNK     0      11.431   7.815   5.082  0.00  0.00     0.126 A 
HETATM    7  C   UNK     0      11.082   8.972   4.403  0.00  0.00    -0.011 A 
HETATM    8  C   UNK     0      10.122   9.798   4.977  0.00  0.00     0.083 A 
HETATM    9  C   UNK     0      11.726   9.303   3.102  0.00  0.00     0.052 C 
HETATM   10  C   UNK     0       9.547   9.446   6.194  0.00  0.00    -0.003 A 
HETATM   11  C   UNK     0       8.514  10.315   6.829  0.00  0.00     0.053 C 
BRANCH   8  12
HETATM   12  O   UNK     0       9.745  10.946   4.346  0.00  0.00    -0.355 OA
HETATM   13  C   UNK     0       8.766  10.828   3.316  0.00  0.00     0.210 C 
ENDBRANCH   8  12
ENDBRANCH   3   4
ENDBRANCH   1   3
BRANCH   1  14
HETATM   14  C   UNK     0      10.267   8.051  10.711  0.00  0.00     0.198 A 
HETATM   15  N   UNK     0       9.848   7.456  11.868  0.00  0.00    -0.331 N 
HETATM   16  C   UNK     0       9.649   8.443  12.799  0.00  0.00     0.066 A 
HETATM   17  H   UNK     0       9.706   6.465  12.014  0.00  0.00     0.168 HD
HETATM   18  C   UNK     0       9.971   9.620  12.128  0.00  0.00     0.086 A 
HETATM   19  C   UNK     0       9.228   8.409  14.129  0.00  0.00     0.068 A 
HETATM   20  N   UNK     0      10.353   9.357  10.833  0.00  0.00    -0.221 NA
HETATM   21  C   UNK     0       9.873  10.845  12.810  0.00  0.00     0.037 A 
HETATM   22  C   UNK     0       9.452  10.835  14.145  0.00  0.00     0.039 A 
HETATM   23  C   UNK     0       9.136   9.637  14.792  0.00  0.00     0.070 A 
BRANCH  23  24
HETATM   24  O   UNK     0       8.731   9.665  16.093  0.00  0.00    -0.356 OA
HETATM   25  C   UNK     0       9.332   8.722  16.977  0.00  0.00     0.210 C 
ENDBRANCH  23  24
ENDBRANCH   1  14
TORSDOF 5
ENDMDL
