MODEL 1
REMARK VINA RESULT:     -10.1      0.000      0.000
REMARK  7 active torsions:
REMARK  status: ('A' for Active; 'I' for Inactive)
REMARK    1  A    between atoms: N_2  and  C_19 
REMARK       I    between atoms: N_2  and  C_3 
REMARK    2  A    between atoms: C_3  and  C_5 
REMARK    3  A    between atoms: C_8  and  C_11 
REMARK    4  A    between atoms: C_11  and  N_12 
REMARK    5  A    between atoms: C_21  and  N_26 
REMARK    6  A    between atoms: N_26  and  C_28 
REMARK    7  A    between atoms: C_30  and  C_34 
ROOT
HETATM    1  C   UNK     0      15.165  29.022  19.759  0.00  0.00     0.060 A 
HETATM    2  C   UNK     0      16.150  28.453  18.969  0.00  0.00     0.034 A 
HETATM    3  C   UNK     0      17.349  28.054  19.558  0.00  0.00     0.071 A 
HETATM    4  C   UNK     0      17.546  28.230  20.928  0.00  0.00    -0.006 A 
HETATM    5  C   UNK     0      16.544  28.804  21.708  0.00  0.00    -0.001 A 
HETATM    6  C   UNK     0      18.821  27.811  21.585  0.00  0.00     0.033 C 
HETATM    7  C   UNK     0      15.344  29.204  21.119  0.00  0.00     0.017 A 
ENDROOT
BRANCH   1   8
HETATM    8  N   UNK     0      13.948  29.428  19.161  0.00  0.00    -0.321 N 
HETATM    9  C   UNK     0      12.817  28.652  18.868  0.00  0.00     0.258 C 
HETATM   10  O   UNK     0      12.708  27.436  19.098  0.00  0.00    -0.267 OA
HETATM   11  H   UNK     0      13.908  30.425  18.966  0.00  0.00     0.169 HD
BRANCH   9  12
HETATM   12  C   UNK     0      11.718  29.351  18.222  0.00  0.00     0.056 A 
HETATM   13  C   UNK     0      10.910  28.683  17.301  0.00  0.00     0.004 A 
HETATM   14  C   UNK     0       9.857  29.354  16.680  0.00  0.00    -0.002 A 
HETATM   15  C   UNK     0       9.623  30.687  16.985  0.00  0.00     0.011 A 
HETATM   16  C   UNK     0      10.420  31.363  17.899  0.00  0.00    -0.002 A 
HETATM   17  C   UNK     0      11.473  30.692  18.520  0.00  0.00     0.004 A 
BRANCH  15  18
HETATM   18  C   UNK     0       8.486  31.412  16.316  0.00  0.00     0.277 C 
BRANCH  18  19
HETATM   19  N   UNK     0       8.746  32.847  16.202  0.00  0.00     0.146 N 
HETATM   20  C   UNK     0       7.614  33.624  16.721  0.00  0.00     0.286 C 
HETATM   21  C   UNK     0       7.887  35.128  16.601  0.00  0.00     0.286 C 
HETATM   22  N   UNK     0       8.168  35.500  15.209  0.00  0.00     0.143 N 
HETATM   23  C   UNK     0       9.299  34.720  14.689  0.00  0.00     0.286 C 
HETATM   24  C   UNK     0       8.430  36.932  15.098  0.00  0.00     0.285 C 
HETATM   25  C   UNK     0       9.027  33.217  14.810  0.00  0.00     0.286 C 
ENDBRANCH  18  19
ENDBRANCH  15  18
ENDBRANCH   9  12
ENDBRANCH   1   8
BRANCH   3  26
HETATM   26  N   UNK     0      18.355  27.475  18.753  0.00  0.00    -0.187 N 
HETATM   27  H   UNK     0      18.527  26.490  18.923  0.00  0.00     0.184 HD
BRANCH  26  28
HETATM   28  C   UNK     0      19.103  27.963  17.666  0.00  0.00     0.728 A 
HETATM   29  N   UNK     0      19.998  27.117  17.116  0.00  0.00    -0.059 NA
HETATM   30  C   UNK     0      20.697  27.618  16.076  0.00  0.00     0.120 A 
HETATM   31  C   UNK     0      20.532  28.898  15.587  0.00  0.00     0.041 A 
HETATM   32  C   UNK     0      19.586  29.667  16.234  0.00  0.00     0.103 A 
HETATM   33  N   UNK     0      18.852  29.231  17.278  0.00  0.00    -0.061 NA
BRANCH  32  34
HETATM   34  C   UNK     0      19.318  31.024  15.820  0.00  0.00     0.037 A 
HETATM   35  C   UNK     0      19.352  31.385  14.477  0.00  0.00     0.005 A 
HETATM   36  C   UNK     0      19.090  32.700  14.110  0.00  0.00     0.021 A 
HETATM   37  C   UNK     0      18.802  33.609  15.115  0.00  0.00     0.099 A 
HETATM   38  N   UNK     0      18.760  33.297  16.430  0.00  0.00    -0.242 NA
HETATM   39  C   UNK     0      19.020  32.009  16.748  0.00  0.00     0.100 A 
ENDBRANCH  32  34
ENDBRANCH  26  28
ENDBRANCH   3  26
TORSDOF 7
ENDMDL
MODEL 2
REMARK VINA RESULT:      -8.8      2.716      9.816
REMARK  7 active torsions:
REMARK  status: ('A' for Active; 'I' for Inactive)
REMARK    1  A    between atoms: N_2  and  C_19 
REMARK       I    between atoms: N_2  and  C_3 
REMARK    2  A    between atoms: C_3  and  C_5 
REMARK    3  A    between atoms: C_8  and  C_11 
REMARK    4  A    between atoms: C_11  and  N_12 
REMARK    5  A    between atoms: C_21  and  N_26 
REMARK    6  A    between atoms: N_26  and  C_28 
REMARK    7  A    between atoms: C_30  and  C_34 
ROOT
HETATM    1  C   UNK     0       9.140  31.257  17.606  0.00  0.00     0.060 A 
HETATM    2  C   UNK     0       9.283  32.340  16.754  0.00  0.00     0.034 A 
HETATM    3  C   UNK     0       8.149  32.903  16.173  0.00  0.00     0.071 A 
HETATM    4  C   UNK     0       6.887  32.376  16.452  0.00  0.00    -0.006 A 
HETATM    5  C   UNK     0       6.761  31.287  17.312  0.00  0.00    -0.001 A 
HETATM    6  C   UNK     0       5.654  32.961  15.843  0.00  0.00     0.033 C 
HETATM    7  C   UNK     0       7.897  30.722  17.894  0.00  0.00     0.017 A 
ENDROOT
BRANCH   1   8
HETATM    8  N   UNK     0      10.293  30.684  18.196  0.00  0.00    -0.321 N 
HETATM    9  C   UNK     0      10.995  29.534  17.806  0.00  0.00     0.258 C 
HETATM   10  O   UNK     0      10.697  28.812  16.840  0.00  0.00    -0.267 OA
HETATM   11  H   UNK     0      10.654  31.223  18.980  0.00  0.00     0.169 HD
BRANCH   9  12
HETATM   12  C   UNK     0      12.135  29.176  18.632  0.00  0.00     0.056 A 
HETATM   13  C   UNK     0      12.374  27.839  18.952  0.00  0.00     0.004 A 
HETATM   14  C   UNK     0      13.468  27.496  19.747  0.00  0.00    -0.002 A 
HETATM   15  C   UNK     0      14.312  28.493  20.214  0.00  0.00     0.011 A 
HETATM   16  C   UNK     0      14.084  29.826  19.904  0.00  0.00    -0.002 A 
HETATM   17  C   UNK     0      12.991  30.170  19.109  0.00  0.00     0.004 A 
BRANCH  15  18
HETATM   18  C   UNK     0      15.493  28.123  21.072  0.00  0.00     0.277 C 
BRANCH  18  19
HETATM   19  N   UNK     0      16.762  28.405  20.401  0.00  0.00     0.146 N 
HETATM   20  C   UNK     0      16.745  27.904  19.021  0.00  0.00     0.286 C 
HETATM   21  C   UNK     0      18.075  28.198  18.319  0.00  0.00     0.286 C 
HETATM   22  N   UNK     0      19.199  27.615  19.061  0.00  0.00     0.143 N 
HETATM   23  C   UNK     0      19.215  28.114  20.443  0.00  0.00     0.286 C 
HETATM   24  C   UNK     0      20.466  27.898  18.392  0.00  0.00     0.285 C 
HETATM   25  C   UNK     0      17.884  27.821  21.145  0.00  0.00     0.286 C 
ENDBRANCH  18  19
ENDBRANCH  15  18
ENDBRANCH   9  12
ENDBRANCH   1   8
BRANCH   3  26
HETATM   26  N   UNK     0       8.293  34.006  15.302  0.00  0.00    -0.187 N 
HETATM   27  H   UNK     0       7.430  34.344  14.890  0.00  0.00     0.184 HD
BRANCH  26  28
HETATM   28  C   UNK     0       9.393  34.819  14.971  0.00  0.00     0.728 A 
HETATM   29  N   UNK     0       9.575  35.927  15.720  0.00  0.00    -0.059 NA
HETATM   30  C   UNK     0      10.639  36.682  15.376  0.00  0.00     0.120 A 
HETATM   31  C   UNK     0      11.496  36.373  14.339  0.00  0.00     0.041 A 
HETATM   32  C   UNK     0      11.204  35.214  13.648  0.00  0.00     0.103 A 
HETATM   33  N   UNK     0      10.159  34.412  13.938  0.00  0.00    -0.061 NA
BRANCH  32  34
HETATM   34  C   UNK     0      12.023  34.779  12.542  0.00  0.00     0.037 A 
HETATM   35  C   UNK     0      12.299  33.431  12.340  0.00  0.00     0.005 A 
HETATM   36  C   UNK     0      13.090  33.042  11.266  0.00  0.00     0.021 A 
HETATM   37  C   UNK     0      13.579  34.032  10.428  0.00  0.00     0.099 A 
HETATM   38  N   UNK     0      13.333  35.352  10.592  0.00  0.00    -0.242 NA
HETATM   39  C   UNK     0      12.559  35.691  11.647  0.00  0.00     0.100 A 
ENDBRANCH  32  34
ENDBRANCH  26  28
ENDBRANCH   3  26
TORSDOF 7
ENDMDL
MODEL 3
REMARK VINA RESULT:      -8.4      5.717      7.315
REMARK  7 active torsions:
REMARK  status: ('A' for Active; 'I' for Inactive)
REMARK    1  A    between atoms: N_2  and  C_19 
REMARK       I    between atoms: N_2  and  C_3 
REMARK    2  A    between atoms: C_3  and  C_5 
REMARK    3  A    between atoms: C_8  and  C_11 
REMARK    4  A    between atoms: C_11  and  N_12 
REMARK    5  A    between atoms: C_21  and  N_26 
REMARK    6  A    between atoms: N_26  and  C_28 
REMARK    7  A    between atoms: C_30  and  C_34 
ROOT
HETATM    1  C   UNK     0      13.773  30.836  21.371  0.00  0.00     0.060 A 
HETATM    2  C   UNK     0      14.702  29.923  20.901  0.00  0.00     0.034 A 
HETATM    3  C   UNK     0      14.263  28.685  20.433  0.00  0.00     0.071 A 
HETATM    4  C   UNK     0      12.901  28.380  20.441  0.00  0.00    -0.006 A 
HETATM    5  C   UNK     0      11.980  29.311  20.916  0.00  0.00    -0.001 A 
HETATM    6  C   UNK     0      12.403  27.062  19.943  0.00  0.00     0.033 C 
HETATM    7  C   UNK     0      12.419  30.549  21.386  0.00  0.00     0.017 A 
ENDROOT
BRANCH   1   8
HETATM    8  N   UNK     0      14.219  32.093  21.848  0.00  0.00    -0.321 N 
HETATM    9  C   UNK     0      15.013  32.369  22.972  0.00  0.00     0.258 C 
HETATM   10  O   UNK     0      15.464  31.516  23.753  0.00  0.00    -0.267 OA
HETATM   11  H   UNK     0      13.940  32.870  21.255  0.00  0.00     0.169 HD
BRANCH   9  12
HETATM   12  C   UNK     0      15.286  33.774  23.225  0.00  0.00     0.056 A 
HETATM   13  C   UNK     0      14.729  34.405  24.337  0.00  0.00     0.004 A 
HETATM   14  C   UNK     0      14.989  35.754  24.579  0.00  0.00    -0.002 A 
HETATM   15  C   UNK     0      15.804  36.459  23.705  0.00  0.00     0.011 A 
HETATM   16  C   UNK     0      16.364  35.843  22.594  0.00  0.00    -0.002 A 
HETATM   17  C   UNK     0      16.103  34.494  22.353  0.00  0.00     0.004 A 
BRANCH  15  18
HETATM   18  C   UNK     0      16.086  37.915  23.966  0.00  0.00     0.277 C 
BRANCH  18  19
HETATM   19  N   UNK     0      15.080  38.783  23.355  0.00  0.00     0.146 N 
HETATM   20  C   UNK     0      15.666  40.074  22.978  0.00  0.00     0.286 C 
HETATM   21  C   UNK     0      14.611  40.985  22.339  0.00  0.00     0.286 C 
HETATM   22  N   UNK     0      13.473  41.183  23.245  0.00  0.00     0.143 N 
HETATM   23  C   UNK     0      12.888  39.891  23.624  0.00  0.00     0.286 C 
HETATM   24  C   UNK     0      12.468  42.049  22.633  0.00  0.00     0.285 C 
HETATM   25  C   UNK     0      13.943  38.980  24.262  0.00  0.00     0.286 C 
ENDBRANCH  18  19
ENDBRANCH  15  18
ENDBRANCH   9  12
ENDBRANCH   1   8
BRANCH   3  26
HETATM   26  N   UNK     0      15.209  27.752  19.954  0.00  0.00    -0.187 N 
HETATM   27  H   UNK     0      14.816  26.953  19.469  0.00  0.00     0.184 HD
BRANCH  26  28
HETATM   28  C   UNK     0      16.615  27.759  19.914  0.00  0.00     0.728 A 
HETATM   29  N   UNK     0      17.257  27.368  21.034  0.00  0.00    -0.059 NA
HETATM   30  C   UNK     0      18.604  27.386  20.959  0.00  0.00     0.120 A 
HETATM   31  C   UNK     0      19.305  27.771  19.834  0.00  0.00     0.041 A 
HETATM   32  C   UNK     0      18.536  28.148  18.752  0.00  0.00     0.103 A 
HETATM   33  N   UNK     0      17.187  28.153  18.756  0.00  0.00    -0.061 NA
BRANCH  32  34
HETATM   34  C   UNK     0      19.146  28.572  17.515  0.00  0.00     0.037 A 
HETATM   35  C   UNK     0      19.850  27.675  16.717  0.00  0.00     0.005 A 
HETATM   36  C   UNK     0      20.426  28.114  15.531  0.00  0.00     0.021 A 
HETATM   37  C   UNK     0      20.274  29.448  15.189  0.00  0.00     0.099 A 
HETATM   38  N   UNK     0      19.599  30.349  15.938  0.00  0.00    -0.242 NA
HETATM   39  C   UNK     0      19.051  29.886  17.084  0.00  0.00     0.100 A 
ENDBRANCH  32  34
ENDBRANCH  26  28
ENDBRANCH   3  26
TORSDOF 7
ENDMDL
