MODEL 1
REMARK VINA RESULT:      -9.5      0.000      0.000
REMARK  7 active torsions:
REMARK  status: ('A' for Active; 'I' for Inactive)
REMARK    1  A    between atoms: N_2  and  C_19 
REMARK       I    between atoms: N_2  and  C_3 
REMARK    2  A    between atoms: C_3  and  C_5 
REMARK    3  A    between atoms: C_8  and  C_11 
REMARK    4  A    between atoms: C_11  and  N_12 
REMARK    5  A    between atoms: C_21  and  N_26 
REMARK    6  A    between atoms: N_26  and  C_28 
REMARK    7  A    between atoms: C_30  and  C_34 
ROOT
HETATM    1  C   UNK     0       5.851  13.752   8.761  0.00  0.00     0.060 A 
HETATM    2  C   UNK     0       6.741  14.007   9.791  0.00  0.00     0.034 A 
HETATM    3  C   UNK     0       6.311  13.876  11.110  0.00  0.00     0.071 A 
HETATM    4  C   UNK     0       4.998  13.492  11.381  0.00  0.00    -0.006 A 
HETATM    5  C   UNK     0       4.115  13.239  10.332  0.00  0.00    -0.001 A 
HETATM    6  C   UNK     0       4.510  13.342  12.786  0.00  0.00     0.033 C 
HETATM    7  C   UNK     0       4.545  13.370   9.012  0.00  0.00     0.017 A 
ENDROOT
BRANCH   1   8
HETATM    8  N   UNK     0       6.288  13.886   7.420  0.00  0.00    -0.321 N 
HETATM    9  C   UNK     0       7.551  13.603   6.880  0.00  0.00     0.258 C 
HETATM   10  O   UNK     0       8.521  13.174   7.525  0.00  0.00    -0.267 OA
HETATM   11  H   UNK     0       5.554  14.195   6.788  0.00  0.00     0.169 HD
BRANCH   9  12
HETATM   12  C   UNK     0       7.708  13.870   5.460  0.00  0.00     0.056 A 
HETATM   13  C   UNK     0       8.508  13.039   4.677  0.00  0.00     0.004 A 
HETATM   14  C   UNK     0       8.660  13.296   3.315  0.00  0.00    -0.002 A 
HETATM   15  C   UNK     0       8.010  14.383   2.749  0.00  0.00     0.011 A 
HETATM   16  C   UNK     0       7.211  15.219   3.518  0.00  0.00    -0.002 A 
HETATM   17  C   UNK     0       7.059  14.961   4.880  0.00  0.00     0.004 A 
BRANCH  15  18
HETATM   18  C   UNK     0       8.172  14.661   1.278  0.00  0.00     0.277 C 
BRANCH  18  19
HETATM   19  N   UNK     0       9.570  14.896   0.919  0.00  0.00     0.146 N 
HETATM   20  C   UNK     0      10.270  15.613   1.991  0.00  0.00     0.286 C 
HETATM   21  C   UNK     0      11.736  15.859   1.615  0.00  0.00     0.286 C 
HETATM   22  N   UNK     0      11.834  16.602   0.352  0.00  0.00     0.143 N 
HETATM   23  C   UNK     0      11.132  15.886  -0.720  0.00  0.00     0.286 C 
HETATM   24  C   UNK     0      13.231  16.834  -0.006  0.00  0.00     0.285 C 
HETATM   25  C   UNK     0       9.667  15.638  -0.343  0.00  0.00     0.286 C 
ENDBRANCH  18  19
ENDBRANCH  15  18
ENDBRANCH   9  12
ENDBRANCH   1   8
BRANCH   3  26
HETATM   26  N   UNK     0       7.218  14.136  12.162  0.00  0.00    -0.187 N 
HETATM   27  H   UNK     0       7.581  13.313  12.629  0.00  0.00     0.184 HD
BRANCH  26  28
HETATM   28  C   UNK     0       7.818  15.320  12.629  0.00  0.00     0.728 A 
HETATM   29  N   UNK     0       9.080  15.563  12.222  0.00  0.00    -0.059 NA
HETATM   30  C   UNK     0       9.624  16.706  12.688  0.00  0.00     0.120 A 
HETATM   31  C   UNK     0       8.964  17.585  13.523  0.00  0.00     0.041 A 
HETATM   32  C   UNK     0       7.677  17.226  13.869  0.00  0.00     0.103 A 
HETATM   33  N   UNK     0       7.071  16.100  13.440  0.00  0.00    -0.061 NA
BRANCH  32  34
HETATM   34  C   UNK     0       6.879  18.058  14.736  0.00  0.00     0.037 A 
HETATM   35  C   UNK     0       7.469  19.010  15.562  0.00  0.00     0.005 A 
HETATM   36  C   UNK     0       6.674  19.797  16.387  0.00  0.00     0.021 A 
HETATM   37  C   UNK     0       5.304  19.595  16.351  0.00  0.00     0.099 A 
HETATM   38  N   UNK     0       4.693  18.681  15.564  0.00  0.00    -0.242 NA
HETATM   39  C   UNK     0       5.499  17.935  14.775  0.00  0.00     0.100 A 
ENDBRANCH  32  34
ENDBRANCH  26  28
ENDBRANCH   3  26
TORSDOF 7
ENDMDL
MODEL 2
REMARK VINA RESULT:      -9.5      1.813      3.748
REMARK  7 active torsions:
REMARK  status: ('A' for Active; 'I' for Inactive)
REMARK    1  A    between atoms: N_2  and  C_19 
REMARK       I    between atoms: N_2  and  C_3 
REMARK    2  A    between atoms: C_3  and  C_5 
REMARK    3  A    between atoms: C_8  and  C_11 
REMARK    4  A    between atoms: C_11  and  N_12 
REMARK    5  A    between atoms: C_21  and  N_26 
REMARK    6  A    between atoms: N_26  and  C_28 
REMARK    7  A    between atoms: C_30  and  C_34 
ROOT
HETATM    1  C   UNK     0       5.647  13.466   8.841  0.00  0.00     0.060 A 
HETATM    2  C   UNK     0       6.091  14.097   9.991  0.00  0.00     0.034 A 
HETATM    3  C   UNK     0       5.399  13.902  11.185  0.00  0.00     0.071 A 
HETATM    4  C   UNK     0       4.273  13.079  11.212  0.00  0.00    -0.006 A 
HETATM    5  C   UNK     0       3.840  12.450  10.046  0.00  0.00    -0.001 A 
HETATM    6  C   UNK     0       3.513  12.851  12.479  0.00  0.00     0.033 C 
HETATM    7  C   UNK     0       4.532  12.646   8.850  0.00  0.00     0.017 A 
ENDROOT
BRANCH   1   8
HETATM    8  N   UNK     0       6.349  13.665   7.628  0.00  0.00    -0.321 N 
HETATM    9  C   UNK     0       7.237  12.793   6.979  0.00  0.00     0.258 C 
HETATM   10  O   UNK     0       7.555  11.665   7.389  0.00  0.00    -0.267 OA
HETATM   11  H   UNK     0       6.130  14.549   7.176  0.00  0.00     0.169 HD
BRANCH   9  12
HETATM   12  C   UNK     0       7.830  13.292   5.749  0.00  0.00     0.056 A 
HETATM   13  C   UNK     0       7.475  14.550   5.262  0.00  0.00     0.004 A 
HETATM   14  C   UNK     0       8.043  15.028   4.081  0.00  0.00    -0.002 A 
HETATM   15  C   UNK     0       8.961  14.242   3.399  0.00  0.00     0.011 A 
HETATM   16  C   UNK     0       9.322  12.989   3.873  0.00  0.00    -0.002 A 
HETATM   17  C   UNK     0       8.754  12.511   5.053  0.00  0.00     0.004 A 
BRANCH  15  18
HETATM   18  C   UNK     0       9.575  14.758   2.124  0.00  0.00     0.277 C 
BRANCH  18  19
HETATM   19  N   UNK     0      10.950  15.212   2.327  0.00  0.00     0.146 N 
HETATM   20  C   UNK     0      11.057  16.021   3.548  0.00  0.00     0.286 C 
HETATM   21  C   UNK     0      12.499  16.497   3.760  0.00  0.00     0.286 C 
HETATM   22  N   UNK     0      12.975  17.258   2.598  0.00  0.00     0.143 N 
HETATM   23  C   UNK     0      12.866  16.449   1.377  0.00  0.00     0.286 C 
HETATM   24  C   UNK     0      14.349  17.709   2.802  0.00  0.00     0.285 C 
HETATM   25  C   UNK     0      11.425  15.971   1.165  0.00  0.00     0.286 C 
ENDBRANCH  18  19
ENDBRANCH  15  18
ENDBRANCH   9  12
ENDBRANCH   1   8
BRANCH   3  26
HETATM   26  N   UNK     0       5.849  14.546  12.359  0.00  0.00    -0.187 N 
HETATM   27  H   UNK     0       5.313  14.341  13.194  0.00  0.00     0.184 HD
BRANCH  26  28
HETATM   28  C   UNK     0       6.978  15.340  12.635  0.00  0.00     0.728 A 
HETATM   29  N   UNK     0       6.747  16.572  13.131  0.00  0.00    -0.059 NA
HETATM   30  C   UNK     0       7.851  17.305  13.385  0.00  0.00     0.120 A 
HETATM   31  C   UNK     0       9.137  16.856  13.164  0.00  0.00     0.041 A 
HETATM   32  C   UNK     0       9.244  15.577  12.654  0.00  0.00     0.103 A 
HETATM   33  N   UNK     0       8.184  14.790  12.378  0.00  0.00    -0.061 NA
BRANCH  32  34
HETATM   34  C   UNK     0      10.532  14.989  12.378  0.00  0.00     0.037 A 
HETATM   35  C   UNK     0      11.394  15.555  11.443  0.00  0.00     0.005 A 
HETATM   36  C   UNK     0      12.629  14.966  11.199  0.00  0.00     0.021 A 
HETATM   37  C   UNK     0      12.953  13.820  11.907  0.00  0.00     0.099 A 
HETATM   38  N   UNK     0      12.143  13.241  12.822  0.00  0.00    -0.242 NA
HETATM   39  C   UNK     0      10.951  13.842  13.033  0.00  0.00     0.100 A 
ENDBRANCH  32  34
ENDBRANCH  26  28
ENDBRANCH   3  26
TORSDOF 7
ENDMDL
MODEL 3
REMARK VINA RESULT:      -9.3      1.404      2.121
REMARK  7 active torsions:
REMARK  status: ('A' for Active; 'I' for Inactive)
REMARK    1  A    between atoms: N_2  and  C_19 
REMARK       I    between atoms: N_2  and  C_3 
REMARK    2  A    between atoms: C_3  and  C_5 
REMARK    3  A    between atoms: C_8  and  C_11 
REMARK    4  A    between atoms: C_11  and  N_12 
REMARK    5  A    between atoms: C_21  and  N_26 
REMARK    6  A    between atoms: N_26  and  C_28 
REMARK    7  A    between atoms: C_30  and  C_34 
ROOT
HETATM    1  C   UNK     0       5.978  13.828   9.194  0.00  0.00     0.060 A 
HETATM    2  C   UNK     0       6.663  14.183  10.344  0.00  0.00     0.034 A 
HETATM    3  C   UNK     0       6.023  14.079  11.578  0.00  0.00     0.071 A 
HETATM    4  C   UNK     0       4.707  13.620  11.645  0.00  0.00    -0.006 A 
HETATM    5  C   UNK     0       4.032  13.265  10.477  0.00  0.00    -0.001 A 
HETATM    6  C   UNK     0       3.998  13.497  12.954  0.00  0.00     0.033 C 
HETATM    7  C   UNK     0       4.672  13.370   9.242  0.00  0.00     0.017 A 
ENDROOT
BRANCH   1   8
HETATM    8  N   UNK     0       6.627  13.935   7.941  0.00  0.00    -0.321 N 
HETATM    9  C   UNK     0       7.202  12.917   7.164  0.00  0.00     0.258 C 
HETATM   10  O   UNK     0       7.229  11.715   7.473  0.00  0.00    -0.267 OA
HETATM   11  H   UNK     0       6.627  14.880   7.567  0.00  0.00     0.169 HD
BRANCH   9  12
HETATM   12  C   UNK     0       7.827  13.343   5.923  0.00  0.00     0.056 A 
HETATM   13  C   UNK     0       7.654  14.649   5.466  0.00  0.00     0.004 A 
HETATM   14  C   UNK     0       8.252  15.057   4.274  0.00  0.00    -0.002 A 
HETATM   15  C   UNK     0       9.017  14.154   3.550  0.00  0.00     0.011 A 
HETATM   16  C   UNK     0       9.196  12.851   3.994  0.00  0.00    -0.002 A 
HETATM   17  C   UNK     0       8.598  12.443   5.186  0.00  0.00     0.004 A 
BRANCH  15  18
HETATM   18  C   UNK     0       9.664  14.593   2.263  0.00  0.00     0.277 C 
BRANCH  18  19
HETATM   19  N   UNK     0      10.663  15.638   2.485  0.00  0.00     0.146 N 
HETATM   20  C   UNK     0      11.462  15.860   1.274  0.00  0.00     0.286 C 
HETATM   21  C   UNK     0      12.510  16.955   1.506  0.00  0.00     0.286 C 
HETATM   22  N   UNK     0      13.380  16.615   2.639  0.00  0.00     0.143 N 
HETATM   23  C   UNK     0      12.580  16.391   3.850  0.00  0.00     0.286 C 
HETATM   24  C   UNK     0      14.375  17.661   2.861  0.00  0.00     0.285 C 
HETATM   25  C   UNK     0      11.531  15.297   3.618  0.00  0.00     0.286 C 
ENDBRANCH  18  19
ENDBRANCH  15  18
ENDBRANCH   9  12
ENDBRANCH   1   8
BRANCH   3  26
HETATM   26  N   UNK     0       6.720  14.443  12.751  0.00  0.00    -0.187 N 
HETATM   27  H   UNK     0       7.175  13.677  13.235  0.00  0.00     0.184 HD
BRANCH  26  28
HETATM   28  C   UNK     0       7.013  15.689  13.336  0.00  0.00     0.728 A 
HETATM   29  N   UNK     0       8.305  16.075  13.327  0.00  0.00    -0.059 NA
HETATM   30  C   UNK     0       8.549  17.274  13.894  0.00  0.00     0.120 A 
HETATM   31  C   UNK     0       7.572  18.072  14.454  0.00  0.00     0.041 A 
HETATM   32  C   UNK     0       6.288  17.567  14.402  0.00  0.00     0.103 A 
HETATM   33  N   UNK     0       5.972  16.378  13.849  0.00  0.00    -0.061 NA
BRANCH  32  34
HETATM   34  C   UNK     0       5.175  18.303  14.951  0.00  0.00     0.037 A 
HETATM   35  C   UNK     0       3.904  18.208  14.392  0.00  0.00     0.005 A 
HETATM   36  C   UNK     0       2.852  18.928  14.944  0.00  0.00     0.021 A 
HETATM   37  C   UNK     0       3.118  19.724  16.046  0.00  0.00     0.099 A 
HETATM   38  N   UNK     0       4.337  19.842  16.618  0.00  0.00    -0.242 NA
HETATM   39  C   UNK     0       5.336  19.127  16.054  0.00  0.00     0.100 A 
ENDBRANCH  32  34
ENDBRANCH  26  28
ENDBRANCH   3  26
TORSDOF 7
ENDMDL
