MODEL 1
REMARK VINA RESULT:     -11.8      0.000      0.000
REMARK  7 active torsions:
REMARK  status: ('A' for Active; 'I' for Inactive)
REMARK    1  A    between atoms: N_2  and  C_19 
REMARK       I    between atoms: N_2  and  C_3 
REMARK    2  A    between atoms: C_3  and  C_5 
REMARK    3  A    between atoms: C_8  and  C_11 
REMARK    4  A    between atoms: C_11  and  N_12 
REMARK    5  A    between atoms: C_21  and  N_26 
REMARK    6  A    between atoms: N_26  and  C_28 
REMARK    7  A    between atoms: C_30  and  C_34 
ROOT
HETATM    1  C   UNK     0      51.385  -7.919  30.664  0.00  0.00     0.060 A 
HETATM    2  C   UNK     0      51.892  -9.201  30.525  0.00  0.00     0.034 A 
HETATM    3  C   UNK     0      52.686  -9.503  29.420  0.00  0.00     0.071 A 
HETATM    4  C   UNK     0      52.962  -8.519  28.470  0.00  0.00    -0.006 A 
HETATM    5  C   UNK     0      52.445  -7.234  28.626  0.00  0.00    -0.001 A 
HETATM    6  C   UNK     0      53.812  -8.814  27.277  0.00  0.00     0.033 C 
HETATM    7  C   UNK     0      51.649  -6.932  29.732  0.00  0.00     0.017 A 
ENDROOT
BRANCH   1   8
HETATM    8  N   UNK     0      50.577  -7.613  31.786  0.00  0.00    -0.321 N 
HETATM    9  C   UNK     0      50.393  -6.374  32.418  0.00  0.00     0.258 C 
HETATM   10  O   UNK     0      50.935  -5.311  32.074  0.00  0.00    -0.267 OA
HETATM   11  H   UNK     0      50.047  -8.410  32.130  0.00  0.00     0.169 HD
BRANCH   9  12
HETATM   12  C   UNK     0      49.515  -6.377  33.576  0.00  0.00     0.056 A 
HETATM   13  C   UNK     0      49.937  -6.959  34.772  0.00  0.00     0.004 A 
HETATM   14  C   UNK     0      49.093  -6.964  35.882  0.00  0.00    -0.002 A 
HETATM   15  C   UNK     0      47.835  -6.387  35.786  0.00  0.00     0.011 A 
HETATM   16  C   UNK     0      47.403  -5.806  34.602  0.00  0.00    -0.002 A 
HETATM   17  C   UNK     0      48.247  -5.801  33.492  0.00  0.00     0.004 A 
BRANCH  15  18
HETATM   18  C   UNK     0      46.924  -6.391  36.985  0.00  0.00     0.277 C 
BRANCH  18  19
HETATM   19  N   UNK     0      45.695  -7.141  36.732  0.00  0.00     0.146 N 
HETATM   20  C   UNK     0      44.538  -6.239  36.666  0.00  0.00     0.286 C 
HETATM   21  C   UNK     0      43.249  -7.026  36.402  0.00  0.00     0.286 C 
HETATM   22  N   UNK     0      43.041  -8.051  37.433  0.00  0.00     0.143 N 
HETATM   23  C   UNK     0      44.199  -8.952  37.500  0.00  0.00     0.286 C 
HETATM   24  C   UNK     0      41.814  -8.801  37.178  0.00  0.00     0.285 C 
HETATM   25  C   UNK     0      45.488  -8.165  37.763  0.00  0.00     0.286 C 
ENDBRANCH  18  19
ENDBRANCH  15  18
ENDBRANCH   9  12
ENDBRANCH   1   8
BRANCH   3  26
HETATM   26  N   UNK     0      53.202 -10.810  29.276  0.00  0.00    -0.187 N 
HETATM   27  H   UNK     0      53.034 -11.241  28.374  0.00  0.00     0.184 HD
BRANCH  26  28
HETATM   28  C   UNK     0      54.015 -11.608  30.102  0.00  0.00     0.728 A 
HETATM   29  N   UNK     0      54.704 -12.599  29.500  0.00  0.00    -0.059 NA
HETATM   30  C   UNK     0      55.473 -13.343  30.321  0.00  0.00     0.120 A 
HETATM   31  C   UNK     0      55.571 -13.132  31.681  0.00  0.00     0.041 A 
HETATM   32  C   UNK     0      54.819 -12.087  32.179  0.00  0.00     0.103 A 
HETATM   33  N   UNK     0      54.029 -11.303  31.416  0.00  0.00    -0.061 NA
BRANCH  32  34
HETATM   34  C   UNK     0      54.831 -11.762  33.584  0.00  0.00     0.037 A 
HETATM   35  C   UNK     0      55.493 -12.571  34.503  0.00  0.00     0.005 A 
HETATM   36  C   UNK     0      55.487 -12.232  35.851  0.00  0.00     0.021 A 
HETATM   37  C   UNK     0      54.811 -11.083  36.228  0.00  0.00     0.099 A 
HETATM   38  N   UNK     0      54.156 -10.272  35.366  0.00  0.00    -0.242 NA
HETATM   39  C   UNK     0      54.184 -10.634  34.064  0.00  0.00     0.100 A 
ENDBRANCH  32  34
ENDBRANCH  26  28
ENDBRANCH   3  26
TORSDOF 7
ENDMDL
MODEL 2
REMARK VINA RESULT:     -11.1      5.123      9.508
REMARK  7 active torsions:
REMARK  status: ('A' for Active; 'I' for Inactive)
REMARK    1  A    between atoms: N_2  and  C_19 
REMARK       I    between atoms: N_2  and  C_3 
REMARK    2  A    between atoms: C_3  and  C_5 
REMARK    3  A    between atoms: C_8  and  C_11 
REMARK    4  A    between atoms: C_11  and  N_12 
REMARK    5  A    between atoms: C_21  and  N_26 
REMARK    6  A    between atoms: N_26  and  C_28 
REMARK    7  A    between atoms: C_30  and  C_34 
ROOT
HETATM    1  C   UNK     0      50.863  -3.099  30.459  0.00  0.00     0.060 A 
HETATM    2  C   UNK     0      51.780  -2.413  31.238  0.00  0.00     0.034 A 
HETATM    3  C   UNK     0      51.497  -1.106  31.631  0.00  0.00     0.071 A 
HETATM    4  C   UNK     0      50.300  -0.504  31.240  0.00  0.00    -0.006 A 
HETATM    5  C   UNK     0      49.388  -1.209  30.457  0.00  0.00    -0.001 A 
HETATM    6  C   UNK     0      49.970   0.895  31.649  0.00  0.00     0.033 C 
HETATM    7  C   UNK     0      49.672  -2.517  30.063  0.00  0.00     0.017 A 
ENDROOT
BRANCH   1   8
HETATM    8  N   UNK     0      51.152  -4.426  30.058  0.00  0.00    -0.321 N 
HETATM    9  C   UNK     0      51.019  -5.610  30.798  0.00  0.00     0.258 C 
HETATM   10  O   UNK     0      50.610  -5.677  31.969  0.00  0.00    -0.267 OA
HETATM   11  H   UNK     0      51.458  -4.497  29.091  0.00  0.00     0.169 HD
BRANCH   9  12
HETATM   12  C   UNK     0      51.425  -6.830  30.120  0.00  0.00     0.056 A 
HETATM   13  C   UNK     0      50.979  -8.068  30.583  0.00  0.00     0.004 A 
HETATM   14  C   UNK     0      51.370  -9.239  29.934  0.00  0.00    -0.002 A 
HETATM   15  C   UNK     0      52.203  -9.160  28.827  0.00  0.00     0.011 A 
HETATM   16  C   UNK     0      52.654  -7.934  28.357  0.00  0.00    -0.002 A 
HETATM   17  C   UNK     0      52.263  -6.763  29.006  0.00  0.00     0.004 A 
BRANCH  15  18
HETATM   18  C   UNK     0      52.625 -10.423  28.124  0.00  0.00     0.277 C 
BRANCH  18  19
HETATM   19  N   UNK     0      52.973 -11.482  29.070  0.00  0.00     0.146 N 
HETATM   20  C   UNK     0      54.338 -11.968  28.830  0.00  0.00     0.286 C 
HETATM   21  C   UNK     0      54.702 -13.079  29.821  0.00  0.00     0.286 C 
HETATM   22  N   UNK     0      53.743 -14.187  29.742  0.00  0.00     0.143 N 
HETATM   23  C   UNK     0      52.377 -13.702  29.980  0.00  0.00     0.286 C 
HETATM   24  C   UNK     0      54.090 -15.244  30.688  0.00  0.00     0.285 C 
HETATM   25  C   UNK     0      52.013 -12.589  28.989  0.00  0.00     0.286 C 
ENDBRANCH  18  19
ENDBRANCH  15  18
ENDBRANCH   9  12
ENDBRANCH   1   8
BRANCH   3  26
HETATM   26  N   UNK     0      52.431  -0.404  32.424  0.00  0.00    -0.187 N 
HETATM   27  H   UNK     0      52.433   0.602  32.297  0.00  0.00     0.184 HD
BRANCH  26  28
HETATM   28  C   UNK     0      53.298  -0.810  33.456  0.00  0.00     0.728 A 
HETATM   29  N   UNK     0      54.215   0.090  33.867  0.00  0.00    -0.059 NA
HETATM   30  C   UNK     0      55.029  -0.332  34.857  0.00  0.00     0.120 A 
HETATM   31  C   UNK     0      54.954  -1.586  35.429  0.00  0.00     0.041 A 
HETATM   32  C   UNK     0      53.974  -2.415  34.924  0.00  0.00     0.103 A 
HETATM   33  N   UNK     0      53.127  -2.059  33.936  0.00  0.00    -0.061 NA
BRANCH  32  34
HETATM   34  C   UNK     0      53.791  -3.752  35.435  0.00  0.00     0.037 A 
HETATM   35  C   UNK     0      52.715  -4.536  35.030  0.00  0.00     0.005 A 
HETATM   36  C   UNK     0      52.566  -5.820  35.540  0.00  0.00     0.021 A 
HETATM   37  C   UNK     0      53.512  -6.272  36.446  0.00  0.00     0.099 A 
HETATM   38  N   UNK     0      54.570  -5.541  36.865  0.00  0.00    -0.242 NA
HETATM   39  C   UNK     0      54.682  -4.297  36.347  0.00  0.00     0.100 A 
ENDBRANCH  32  34
ENDBRANCH  26  28
ENDBRANCH   3  26
TORSDOF 7
ENDMDL
MODEL 3
REMARK VINA RESULT:     -11.0      3.433     10.201
REMARK  7 active torsions:
REMARK  status: ('A' for Active; 'I' for Inactive)
REMARK    1  A    between atoms: N_2  and  C_19 
REMARK       I    between atoms: N_2  and  C_3 
REMARK    2  A    between atoms: C_3  and  C_5 
REMARK    3  A    between atoms: C_8  and  C_11 
REMARK    4  A    between atoms: C_11  and  N_12 
REMARK    5  A    between atoms: C_21  and  N_26 
REMARK    6  A    between atoms: N_26  and  C_28 
REMARK    7  A    between atoms: C_30  and  C_34 
ROOT
HETATM    1  C   UNK     0      53.734  -8.912  36.409  0.00  0.00     0.060 A 
HETATM    2  C   UNK     0      52.569  -9.016  37.151  0.00  0.00     0.034 A 
HETATM    3  C   UNK     0      52.339  -8.115  38.189  0.00  0.00     0.071 A 
HETATM    4  C   UNK     0      53.277  -7.121  38.470  0.00  0.00    -0.006 A 
HETATM    5  C   UNK     0      54.444  -7.029  37.713  0.00  0.00    -0.001 A 
HETATM    6  C   UNK     0      53.056  -6.140  39.576  0.00  0.00     0.033 C 
HETATM    7  C   UNK     0      54.675  -7.932  36.675  0.00  0.00     0.017 A 
ENDROOT
BRANCH   1   8
HETATM    8  N   UNK     0      53.968  -9.828  35.356  0.00  0.00    -0.321 N 
HETATM    9  C   UNK     0      55.146 -10.527  35.051  0.00  0.00     0.258 C 
HETATM   10  O   UNK     0      56.209 -10.443  35.687  0.00  0.00    -0.267 OA
HETATM   11  H   UNK     0      53.143 -10.008  34.788  0.00  0.00     0.169 HD
BRANCH   9  12
HETATM   12  C   UNK     0      55.088 -11.385  33.879  0.00  0.00     0.056 A 
HETATM   13  C   UNK     0      54.298 -11.026  32.788  0.00  0.00     0.004 A 
HETATM   14  C   UNK     0      54.241 -11.850  31.664  0.00  0.00    -0.002 A 
HETATM   15  C   UNK     0      54.977 -13.027  31.643  0.00  0.00     0.011 A 
HETATM   16  C   UNK     0      55.767 -13.395  32.723  0.00  0.00    -0.002 A 
HETATM   17  C   UNK     0      55.823 -12.571  33.847  0.00  0.00     0.004 A 
BRANCH  15  18
HETATM   18  C   UNK     0      54.918 -13.917  30.430  0.00  0.00     0.277 C 
BRANCH  18  19
HETATM   19  N   UNK     0      53.657 -14.653  30.356  0.00  0.00     0.146 N 
HETATM   20  C   UNK     0      52.549 -13.756  30.009  0.00  0.00     0.286 C 
HETATM   21  C   UNK     0      51.226 -14.528  29.932  0.00  0.00     0.286 C 
HETATM   22  N   UNK     0      50.949 -15.218  31.197  0.00  0.00     0.143 N 
HETATM   23  C   UNK     0      52.058 -16.115  31.546  0.00  0.00     0.286 C 
HETATM   24  C   UNK     0      49.690 -15.955  31.121  0.00  0.00     0.285 C 
HETATM   25  C   UNK     0      53.381 -15.343  31.622  0.00  0.00     0.286 C 
ENDBRANCH  18  19
ENDBRANCH  15  18
ENDBRANCH   9  12
ENDBRANCH   1   8
BRANCH   3  26
HETATM   26  N   UNK     0      51.152  -8.221  38.947  0.00  0.00    -0.187 N 
HETATM   27  H   UNK     0      51.123  -7.648  39.783  0.00  0.00     0.184 HD
BRANCH  26  28
HETATM   28  C   UNK     0      49.932  -8.885  38.717  0.00  0.00     0.728 A 
HETATM   29  N   UNK     0      49.856 -10.169  39.120  0.00  0.00    -0.059 NA
HETATM   30  C   UNK     0      48.673 -10.774  38.885  0.00  0.00     0.120 A 
HETATM   31  C   UNK     0      47.600 -10.153  38.279  0.00  0.00     0.041 A 
HETATM   32  C   UNK     0      47.802  -8.837  37.912  0.00  0.00     0.103 A 
HETATM   33  N   UNK     0      48.957  -8.171  38.117  0.00  0.00    -0.061 NA
BRANCH  32  34
HETATM   34  C   UNK     0      46.760  -8.074  37.269  0.00  0.00     0.037 A 
HETATM   35  C   UNK     0      45.417  -8.381  37.467  0.00  0.00     0.005 A 
HETATM   36  C   UNK     0      44.436  -7.628  36.834  0.00  0.00     0.021 A 
HETATM   37  C   UNK     0      44.845  -6.586  36.017  0.00  0.00     0.099 A 
HETATM   38  N   UNK     0      46.138  -6.257  35.799  0.00  0.00    -0.242 NA
HETATM   39  C   UNK     0      47.064  -7.012  36.432  0.00  0.00     0.100 A 
ENDBRANCH  32  34
ENDBRANCH  26  28
ENDBRANCH   3  26
TORSDOF 7
ENDMDL
