MODEL 1
REMARK VINA RESULT:     -11.2      0.000      0.000
REMARK  7 active torsions:
REMARK  status: ('A' for Active; 'I' for Inactive)
REMARK    1  A    between atoms: N_2  and  C_19 
REMARK       I    between atoms: N_2  and  C_3 
REMARK    2  A    between atoms: C_3  and  C_5 
REMARK    3  A    between atoms: C_8  and  C_11 
REMARK    4  A    between atoms: C_11  and  N_12 
REMARK    5  A    between atoms: C_21  and  N_26 
REMARK    6  A    between atoms: N_26  and  C_28 
REMARK    7  A    between atoms: C_30  and  C_34 
ROOT
HETATM    1  C   UNK     0     -22.597 -14.117  29.468  0.00  0.00     0.060 A 
HETATM    2  C   UNK     0     -23.558 -14.328  28.493  0.00  0.00     0.034 A 
HETATM    3  C   UNK     0     -23.264 -14.010  27.168  0.00  0.00     0.071 A 
HETATM    4  C   UNK     0     -22.014 -13.485  26.837  0.00  0.00    -0.006 A 
HETATM    5  C   UNK     0     -21.059 -13.280  27.831  0.00  0.00    -0.001 A 
HETATM    6  C   UNK     0     -21.673 -13.136  25.425  0.00  0.00     0.033 C 
HETATM    7  C   UNK     0     -21.353 -13.597  29.157  0.00  0.00     0.017 A 
ENDROOT
BRANCH   1   8
HETATM    8  N   UNK     0     -22.896 -14.439  30.815  0.00  0.00    -0.321 N 
HETATM    9  C   UNK     0     -24.036 -15.073  31.329  0.00  0.00     0.258 C 
HETATM   10  O   UNK     0     -25.000 -15.465  30.651  0.00  0.00    -0.267 OA
HETATM   11  H   UNK     0     -22.148 -14.199  31.461  0.00  0.00     0.169 HD
BRANCH   9  12
HETATM   12  C   UNK     0     -24.070 -15.244  32.772  0.00  0.00     0.056 A 
HETATM   13  C   UNK     0     -25.126 -15.932  33.370  0.00  0.00     0.004 A 
HETATM   14  C   UNK     0     -25.160 -16.094  34.755  0.00  0.00    -0.002 A 
HETATM   15  C   UNK     0     -24.136 -15.567  35.528  0.00  0.00     0.011 A 
HETATM   16  C   UNK     0     -23.079 -14.881  34.946  0.00  0.00    -0.002 A 
HETATM   17  C   UNK     0     -23.046 -14.718  33.561  0.00  0.00     0.004 A 
BRANCH  15  18
HETATM   18  C   UNK     0     -24.170 -15.743  37.023  0.00  0.00     0.277 C 
BRANCH  18  19
HETATM   19  N   UNK     0     -23.080 -16.595  37.497  0.00  0.00     0.146 N 
HETATM   20  C   UNK     0     -23.546 -17.971  37.705  0.00  0.00     0.286 C 
HETATM   21  C   UNK     0     -22.404 -18.864  38.202  0.00  0.00     0.286 C 
HETATM   22  N   UNK     0     -21.821 -18.328  39.439  0.00  0.00     0.143 N 
HETATM   23  C   UNK     0     -21.356 -16.950  39.232  0.00  0.00     0.286 C 
HETATM   24  C   UNK     0     -20.731 -19.178  39.910  0.00  0.00     0.285 C 
HETATM   25  C   UNK     0     -22.499 -16.058  38.733  0.00  0.00     0.286 C 
ENDBRANCH  18  19
ENDBRANCH  15  18
ENDBRANCH   9  12
ENDBRANCH   1   8
BRANCH   3  26
HETATM   26  N   UNK     0     -24.243 -14.224  26.173  0.00  0.00    -0.187 N 
HETATM   27  H   UNK     0     -24.536 -13.392  25.673  0.00  0.00     0.184 HD
BRANCH  26  28
HETATM   28  C   UNK     0     -24.824 -15.392  25.645  0.00  0.00     0.728 A 
HETATM   29  N   UNK     0     -24.035 -16.165  24.870  0.00  0.00    -0.059 NA
HETATM   30  C   UNK     0     -24.624 -17.276  24.382  0.00  0.00     0.120 A 
HETATM   31  C   UNK     0     -25.935 -17.625  24.637  0.00  0.00     0.041 A 
HETATM   32  C   UNK     0     -26.639 -16.754  25.443  0.00  0.00     0.103 A 
HETATM   33  N   UNK     0     -26.114 -15.627  25.965  0.00  0.00    -0.061 NA
BRANCH  32  34
HETATM   34  C   UNK     0     -28.018 -17.003  25.785  0.00  0.00     0.037 A 
HETATM   35  C   UNK     0     -28.394 -18.164  26.453  0.00  0.00     0.005 A 
HETATM   36  C   UNK     0     -29.731 -18.376  26.769  0.00  0.00     0.021 A 
HETATM   37  C   UNK     0     -30.647 -17.406  26.397  0.00  0.00     0.099 A 
HETATM   38  N   UNK     0     -30.321 -16.266  25.747  0.00  0.00    -0.242 NA
HETATM   39  C   UNK     0     -29.012 -16.094  25.458  0.00  0.00     0.100 A 
ENDBRANCH  32  34
ENDBRANCH  26  28
ENDBRANCH   3  26
TORSDOF 7
ENDMDL
MODEL 2
REMARK VINA RESULT:     -11.0      2.115      5.492
REMARK  7 active torsions:
REMARK  status: ('A' for Active; 'I' for Inactive)
REMARK    1  A    between atoms: N_2  and  C_19 
REMARK       I    between atoms: N_2  and  C_3 
REMARK    2  A    between atoms: C_3  and  C_5 
REMARK    3  A    between atoms: C_8  and  C_11 
REMARK    4  A    between atoms: C_11  and  N_12 
REMARK    5  A    between atoms: C_21  and  N_26 
REMARK    6  A    between atoms: N_26  and  C_28 
REMARK    7  A    between atoms: C_30  and  C_34 
ROOT
HETATM    1  C   UNK     0     -27.901 -17.145  29.063  0.00  0.00     0.060 A 
HETATM    2  C   UNK     0     -27.122 -16.416  28.180  0.00  0.00     0.034 A 
HETATM    3  C   UNK     0     -27.621 -16.127  26.910  0.00  0.00     0.071 A 
HETATM    4  C   UNK     0     -28.892 -16.571  26.543  0.00  0.00    -0.006 A 
HETATM    5  C   UNK     0     -29.663 -17.303  27.445  0.00  0.00    -0.001 A 
HETATM    6  C   UNK     0     -29.452 -16.275  25.190  0.00  0.00     0.033 C 
HETATM    7  C   UNK     0     -29.163 -17.593  28.715  0.00  0.00     0.017 A 
ENDROOT
BRANCH   1   8
HETATM    8  N   UNK     0     -27.393 -17.439  30.352  0.00  0.00    -0.321 N 
HETATM    9  C   UNK     0     -27.740 -16.858  31.581  0.00  0.00     0.258 C 
HETATM   10  O   UNK     0     -28.581 -15.958  31.731  0.00  0.00    -0.267 OA
HETATM   11  H   UNK     0     -26.719 -18.200  30.354  0.00  0.00     0.169 HD
BRANCH   9  12
HETATM   12  C   UNK     0     -27.020 -17.355  32.742  0.00  0.00     0.056 A 
HETATM   13  C   UNK     0     -27.674 -18.153  33.681  0.00  0.00     0.004 A 
HETATM   14  C   UNK     0     -26.983 -18.627  34.796  0.00  0.00    -0.002 A 
HETATM   15  C   UNK     0     -25.646 -18.299  34.961  0.00  0.00     0.011 A 
HETATM   16  C   UNK     0     -24.984 -17.505  34.035  0.00  0.00    -0.002 A 
HETATM   17  C   UNK     0     -25.674 -17.030  32.919  0.00  0.00     0.004 A 
BRANCH  15  18
HETATM   18  C   UNK     0     -24.899 -18.811  36.164  0.00  0.00     0.277 C 
BRANCH  18  19
HETATM   19  N   UNK     0     -23.899 -17.854  36.634  0.00  0.00     0.146 N 
HETATM   20  C   UNK     0     -22.757 -18.548  37.241  0.00  0.00     0.286 C 
HETATM   21  C   UNK     0     -21.709 -17.544  37.734  0.00  0.00     0.286 C 
HETATM   22  N   UNK     0     -22.299 -16.597  38.688  0.00  0.00     0.143 N 
HETATM   23  C   UNK     0     -23.443 -15.904  38.081  0.00  0.00     0.286 C 
HETATM   24  C   UNK     0     -21.300 -15.640  39.155  0.00  0.00     0.285 C 
HETATM   25  C   UNK     0     -24.491 -16.908  37.587  0.00  0.00     0.286 C 
ENDBRANCH  18  19
ENDBRANCH  15  18
ENDBRANCH   9  12
ENDBRANCH   1   8
BRANCH   3  26
HETATM   26  N   UNK     0     -26.828 -15.385  26.008  0.00  0.00    -0.187 N 
HETATM   27  H   UNK     0     -27.217 -14.491  25.728  0.00  0.00     0.184 HD
BRANCH  26  28
HETATM   28  C   UNK     0     -25.532 -15.582  25.495  0.00  0.00     0.728 A 
HETATM   29  N   UNK     0     -25.308 -16.741  24.842  0.00  0.00    -0.059 NA
HETATM   30  C   UNK     0     -24.057 -16.897  24.364  0.00  0.00     0.120 A 
HETATM   31  C   UNK     0     -23.055 -15.959  24.514  0.00  0.00     0.041 A 
HETATM   32  C   UNK     0     -23.408 -14.814  25.200  0.00  0.00     0.103 A 
HETATM   33  N   UNK     0     -24.639 -14.592  25.704  0.00  0.00    -0.061 NA
BRANCH  32  34
HETATM   34  C   UNK     0     -22.454 -13.756  25.426  0.00  0.00     0.037 A 
HETATM   35  C   UNK     0     -22.127 -12.855  24.416  0.00  0.00     0.005 A 
HETATM   36  C   UNK     0     -21.204 -11.847  24.664  0.00  0.00     0.021 A 
HETATM   37  C   UNK     0     -20.638 -11.781  25.927  0.00  0.00     0.099 A 
HETATM   38  N   UNK     0     -20.929 -12.636  26.933  0.00  0.00    -0.242 NA
HETATM   39  C   UNK     0     -21.831 -13.604  26.655  0.00  0.00     0.100 A 
ENDBRANCH  32  34
ENDBRANCH  26  28
ENDBRANCH   3  26
TORSDOF 7
ENDMDL
MODEL 3
REMARK VINA RESULT:     -10.9      5.676     11.167
REMARK  7 active torsions:
REMARK  status: ('A' for Active; 'I' for Inactive)
REMARK    1  A    between atoms: N_2  and  C_19 
REMARK       I    between atoms: N_2  and  C_3 
REMARK    2  A    between atoms: C_3  and  C_5 
REMARK    3  A    between atoms: C_8  and  C_11 
REMARK    4  A    between atoms: C_11  and  N_12 
REMARK    5  A    between atoms: C_21  and  N_26 
REMARK    6  A    between atoms: N_26  and  C_28 
REMARK    7  A    between atoms: C_30  and  C_34 
ROOT
HETATM    1  C   UNK     0     -27.072 -17.291  25.903  0.00  0.00     0.060 A 
HETATM    2  C   UNK     0     -26.519 -16.054  26.188  0.00  0.00     0.034 A 
HETATM    3  C   UNK     0     -25.270 -15.729  25.661  0.00  0.00     0.071 A 
HETATM    4  C   UNK     0     -24.593 -16.645  24.856  0.00  0.00    -0.006 A 
HETATM    5  C   UNK     0     -25.164 -17.886  24.579  0.00  0.00    -0.001 A 
HETATM    6  C   UNK     0     -23.254 -16.322  24.277  0.00  0.00     0.033 C 
HETATM    7  C   UNK     0     -26.414 -18.212  25.107  0.00  0.00     0.017 A 
ENDROOT
BRANCH   1   8
HETATM    8  N   UNK     0     -28.340 -17.623  26.440  0.00  0.00    -0.321 N 
HETATM    9  C   UNK     0     -29.603 -17.153  26.051  0.00  0.00     0.258 C 
HETATM   10  O   UNK     0     -29.810 -16.338  25.136  0.00  0.00    -0.267 OA
HETATM   11  H   UNK     0     -28.295 -18.322  27.176  0.00  0.00     0.169 HD
BRANCH   9  12
HETATM   12  C   UNK     0     -30.731 -17.659  26.816  0.00  0.00     0.056 A 
HETATM   13  C   UNK     0     -30.654 -18.908  27.431  0.00  0.00     0.004 A 
HETATM   14  C   UNK     0     -31.737 -19.394  28.163  0.00  0.00    -0.002 A 
HETATM   15  C   UNK     0     -32.887 -18.626  28.272  0.00  0.00     0.011 A 
HETATM   16  C   UNK     0     -32.976 -17.381  27.664  0.00  0.00    -0.002 A 
HETATM   17  C   UNK     0     -31.893 -16.895  26.932  0.00  0.00     0.004 A 
BRANCH  15  18
HETATM   18  C   UNK     0     -34.056 -19.149  29.063  0.00  0.00     0.277 C 
BRANCH  18  19
HETATM   19  N   UNK     0     -35.334 -18.747  28.477  0.00  0.00     0.146 N 
HETATM   20  C   UNK     0     -36.161 -18.042  29.463  0.00  0.00     0.286 C 
HETATM   21  C   UNK     0     -37.501 -17.621  28.849  0.00  0.00     0.286 C 
HETATM   22  N   UNK     0     -38.221 -18.784  28.315  0.00  0.00     0.143 N 
HETATM   23  C   UNK     0     -37.393 -19.491  27.330  0.00  0.00     0.286 C 
HETATM   24  C   UNK     0     -39.496 -18.381  27.728  0.00  0.00     0.285 C 
HETATM   25  C   UNK     0     -36.052 -19.911  27.944  0.00  0.00     0.286 C 
ENDBRANCH  18  19
ENDBRANCH  15  18
ENDBRANCH   9  12
ENDBRANCH   1   8
BRANCH   3  26
HETATM   26  N   UNK     0     -24.704 -14.467  25.952  0.00  0.00    -0.187 N 
HETATM   27  H   UNK     0     -25.189 -13.675  25.546  0.00  0.00     0.184 HD
BRANCH  26  28
HETATM   28  C   UNK     0     -23.652 -14.069  26.798  0.00  0.00     0.728 A 
HETATM   29  N   UNK     0     -23.773 -14.380  28.104  0.00  0.00    -0.059 NA
HETATM   30  C   UNK     0     -22.747 -13.985  28.886  0.00  0.00     0.120 A 
HETATM   31  C   UNK     0     -21.640 -13.308  28.414  0.00  0.00     0.041 A 
HETATM   32  C   UNK     0     -21.633 -13.048  27.058  0.00  0.00     0.103 A 
HETATM   33  N   UNK     0     -22.623 -13.415  26.219  0.00  0.00    -0.061 NA
BRANCH  32  34
HETATM   34  C   UNK     0     -20.534 -12.347  26.439  0.00  0.00     0.037 A 
HETATM   35  C   UNK     0     -20.607 -11.921  25.117  0.00  0.00     0.005 A 
HETATM   36  C   UNK     0     -19.532 -11.248  24.548  0.00  0.00     0.021 A 
HETATM   37  C   UNK     0     -18.414 -11.027  25.337  0.00  0.00     0.099 A 
HETATM   38  N   UNK     0     -18.305 -11.426  26.624  0.00  0.00    -0.242 NA
HETATM   39  C   UNK     0     -19.371 -12.077  27.143  0.00  0.00     0.100 A 
ENDBRANCH  32  34
ENDBRANCH  26  28
ENDBRANCH   3  26
TORSDOF 7
ENDMDL
