MODEL 1
REMARK VINA RESULT:     -10.3      0.000      0.000
REMARK  7 active torsions:
REMARK  status: ('A' for Active; 'I' for Inactive)
REMARK    1  A    between atoms: N_2  and  C_19 
REMARK       I    between atoms: N_2  and  C_3 
REMARK    2  A    between atoms: C_3  and  C_5 
REMARK    3  A    between atoms: C_8  and  C_11 
REMARK    4  A    between atoms: C_11  and  N_12 
REMARK    5  A    between atoms: C_21  and  N_26 
REMARK    6  A    between atoms: N_26  and  C_28 
REMARK    7  A    between atoms: C_30  and  C_34 
ROOT
HETATM    1  C   UNK     0     -23.306 -14.000  29.075  0.00  0.00     0.060 A 
HETATM    2  C   UNK     0     -24.348 -14.342  28.230  0.00  0.00     0.034 A 
HETATM    3  C   UNK     0     -24.246 -14.051  26.870  0.00  0.00     0.071 A 
HETATM    4  C   UNK     0     -23.102 -13.423  26.375  0.00  0.00    -0.006 A 
HETATM    5  C   UNK     0     -22.062 -13.086  27.240  0.00  0.00    -0.001 A 
HETATM    6  C   UNK     0     -22.965 -13.101  24.922  0.00  0.00     0.033 C 
HETATM    7  C   UNK     0     -22.165 -13.377  28.601  0.00  0.00     0.017 A 
ENDROOT
BRANCH   1   8
HETATM    8  N   UNK     0     -23.410 -14.294  30.456  0.00  0.00    -0.321 N 
HETATM    9  C   UNK     0     -23.082 -15.484  31.123  0.00  0.00     0.258 C 
HETATM   10  O   UNK     0     -22.631 -16.505  30.579  0.00  0.00    -0.267 OA
HETATM   11  H   UNK     0     -23.733 -13.506  31.012  0.00  0.00     0.169 HD
BRANCH   9  12
HETATM   12  C   UNK     0     -23.327 -15.495  32.556  0.00  0.00     0.056 A 
HETATM   13  C   UNK     0     -24.634 -15.492  33.042  0.00  0.00     0.004 A 
HETATM   14  C   UNK     0     -24.869 -15.501  34.416  0.00  0.00    -0.002 A 
HETATM   15  C   UNK     0     -23.793 -15.513  35.292  0.00  0.00     0.011 A 
HETATM   16  C   UNK     0     -22.488 -15.516  34.822  0.00  0.00    -0.002 A 
HETATM   17  C   UNK     0     -22.253 -15.507  33.447  0.00  0.00     0.004 A 
BRANCH  15  18
HETATM   18  C   UNK     0     -24.046 -15.524  36.777  0.00  0.00     0.277 C 
BRANCH  18  19
HETATM   19  N   UNK     0     -23.302 -16.589  37.448  0.00  0.00     0.146 N 
HETATM   20  C   UNK     0     -23.919 -17.897  37.192  0.00  0.00     0.286 C 
HETATM   21  C   UNK     0     -23.139 -19.013  37.897  0.00  0.00     0.286 C 
HETATM   22  N   UNK     0     -23.053 -18.761  39.340  0.00  0.00     0.143 N 
HETATM   23  C   UNK     0     -22.438 -17.452  39.596  0.00  0.00     0.286 C 
HETATM   24  C   UNK     0     -22.308 -19.825  40.009  0.00  0.00     0.285 C 
HETATM   25  C   UNK     0     -23.216 -16.336  38.891  0.00  0.00     0.286 C 
ENDBRANCH  18  19
ENDBRANCH  15  18
ENDBRANCH   9  12
ENDBRANCH   1   8
BRANCH   3  26
HETATM   26  N   UNK     0     -25.308 -14.399  26.007  0.00  0.00    -0.187 N 
HETATM   27  H   UNK     0     -25.696 -13.629  25.472  0.00  0.00     0.184 HD
BRANCH  26  28
HETATM   28  C   UNK     0     -25.876 -15.635  25.645  0.00  0.00     0.728 A 
HETATM   29  N   UNK     0     -25.107 -16.463  24.909  0.00  0.00    -0.059 NA
HETATM   30  C   UNK     0     -25.682 -17.639  24.581  0.00  0.00     0.120 A 
HETATM   31  C   UNK     0     -26.961 -17.998  24.956  0.00  0.00     0.041 A 
HETATM   32  C   UNK     0     -27.646 -17.067  25.709  0.00  0.00     0.103 A 
HETATM   33  N   UNK     0     -27.134 -15.873  26.073  0.00  0.00    -0.061 NA
BRANCH  32  34
HETATM   34  C   UNK     0     -28.992 -17.320  26.165  0.00  0.00     0.037 A 
HETATM   35  C   UNK     0     -29.394 -18.598  26.541  0.00  0.00     0.005 A 
HETATM   36  C   UNK     0     -30.697 -18.811  26.975  0.00  0.00     0.021 A 
HETATM   37  C   UNK     0     -31.554 -17.722  27.015  0.00  0.00     0.099 A 
HETATM   38  N   UNK     0     -31.200 -16.467  26.658  0.00  0.00    -0.242 NA
HETATM   39  C   UNK     0     -29.925 -16.299  26.241  0.00  0.00     0.100 A 
ENDBRANCH  32  34
ENDBRANCH  26  28
ENDBRANCH   3  26
TORSDOF 7
ENDMDL
MODEL 2
REMARK VINA RESULT:     -10.0      4.334     10.779
REMARK  7 active torsions:
REMARK  status: ('A' for Active; 'I' for Inactive)
REMARK    1  A    between atoms: N_2  and  C_19 
REMARK       I    between atoms: N_2  and  C_3 
REMARK    2  A    between atoms: C_3  and  C_5 
REMARK    3  A    between atoms: C_8  and  C_11 
REMARK    4  A    between atoms: C_11  and  N_12 
REMARK    5  A    between atoms: C_21  and  N_26 
REMARK    6  A    between atoms: N_26  and  C_28 
REMARK    7  A    between atoms: C_30  and  C_34 
ROOT
HETATM    1  C   UNK     0     -26.863 -15.817  30.393  0.00  0.00     0.060 A 
HETATM    2  C   UNK     0     -25.898 -14.894  30.027  0.00  0.00     0.034 A 
HETATM    3  C   UNK     0     -24.737 -14.784  30.790  0.00  0.00     0.071 A 
HETATM    4  C   UNK     0     -24.556 -15.599  31.908  0.00  0.00    -0.006 A 
HETATM    5  C   UNK     0     -25.538 -16.524  32.262  0.00  0.00    -0.001 A 
HETATM    6  C   UNK     0     -23.321 -15.504  32.742  0.00  0.00     0.033 C 
HETATM    7  C   UNK     0     -26.701 -16.633  31.499  0.00  0.00     0.017 A 
ENDROOT
BRANCH   1   8
HETATM    8  N   UNK     0     -28.044 -15.928  29.619  0.00  0.00    -0.321 N 
HETATM    9  C   UNK     0     -29.069 -14.985  29.450  0.00  0.00     0.258 C 
HETATM   10  O   UNK     0     -29.098 -13.861  29.976  0.00  0.00    -0.267 OA
HETATM   11  H   UNK     0     -28.106 -16.802  29.104  0.00  0.00     0.169 HD
BRANCH   9  12
HETATM   12  C   UNK     0     -30.179 -15.400  28.607  0.00  0.00     0.056 A 
HETATM   13  C   UNK     0     -30.764 -14.492  27.725  0.00  0.00     0.004 A 
HETATM   14  C   UNK     0     -31.829 -14.890  26.918  0.00  0.00    -0.002 A 
HETATM   15  C   UNK     0     -32.300 -16.192  27.002  0.00  0.00     0.011 A 
HETATM   16  C   UNK     0     -31.727 -17.105  27.877  0.00  0.00    -0.002 A 
HETATM   17  C   UNK     0     -30.661 -16.707  28.684  0.00  0.00     0.004 A 
BRANCH  15  18
HETATM   18  C   UNK     0     -33.450 -16.623  26.131  0.00  0.00     0.277 C 
BRANCH  18  19
HETATM   19  N   UNK     0     -34.526 -17.233  26.912  0.00  0.00     0.146 N 
HETATM   20  C   UNK     0     -34.981 -18.481  26.287  0.00  0.00     0.286 C 
HETATM   21  C   UNK     0     -36.109 -19.120  27.104  0.00  0.00     0.286 C 
HETATM   22  N   UNK     0     -37.232 -18.188  27.263  0.00  0.00     0.143 N 
HETATM   23  C   UNK     0     -36.778 -16.938  27.887  0.00  0.00     0.286 C 
HETATM   24  C   UNK     0     -38.306 -18.797  28.045  0.00  0.00     0.285 C 
HETATM   25  C   UNK     0     -35.648 -16.300  27.070  0.00  0.00     0.286 C 
ENDBRANCH  18  19
ENDBRANCH  15  18
ENDBRANCH   9  12
ENDBRANCH   1   8
BRANCH   3  26
HETATM   26  N   UNK     0     -23.752 -13.842  30.418  0.00  0.00    -0.187 N 
HETATM   27  H   UNK     0     -23.840 -12.933  30.858  0.00  0.00     0.184 HD
BRANCH  26  28
HETATM   28  C   UNK     0     -22.586 -13.943  29.636  0.00  0.00     0.728 A 
HETATM   29  N   UNK     0     -21.568 -14.660  30.153  0.00  0.00    -0.059 NA
HETATM   30  C   UNK     0     -20.468 -14.736  29.376  0.00  0.00     0.120 A 
HETATM   31  C   UNK     0     -20.359 -14.135  28.139  0.00  0.00     0.041 A 
HETATM   32  C   UNK     0     -21.468 -13.429  27.719  0.00  0.00     0.103 A 
HETATM   33  N   UNK     0     -22.600 -13.312  28.442  0.00  0.00    -0.061 NA
BRANCH  32  34
HETATM   34  C   UNK     0     -21.484 -12.754  26.444  0.00  0.00     0.037 A 
HETATM   35  C   UNK     0     -22.670 -12.575  25.740  0.00  0.00     0.005 A 
HETATM   36  C   UNK     0     -22.653 -11.920  24.514  0.00  0.00     0.021 A 
HETATM   37  C   UNK     0     -21.434 -11.466  24.038  0.00  0.00     0.099 A 
HETATM   38  N   UNK     0     -20.260 -11.621  24.691  0.00  0.00    -0.242 NA
HETATM   39  C   UNK     0     -20.316 -12.263  25.880  0.00  0.00     0.100 A 
ENDBRANCH  32  34
ENDBRANCH  26  28
ENDBRANCH   3  26
TORSDOF 7
ENDMDL
MODEL 3
REMARK VINA RESULT:     -10.0      3.476      9.465
REMARK  7 active torsions:
REMARK  status: ('A' for Active; 'I' for Inactive)
REMARK    1  A    between atoms: N_2  and  C_19 
REMARK       I    between atoms: N_2  and  C_3 
REMARK    2  A    between atoms: C_3  and  C_5 
REMARK    3  A    between atoms: C_8  and  C_11 
REMARK    4  A    between atoms: C_11  and  N_12 
REMARK    5  A    between atoms: C_21  and  N_26 
REMARK    6  A    between atoms: N_26  and  C_28 
REMARK    7  A    between atoms: C_30  and  C_34 
ROOT
HETATM    1  C   UNK     0     -24.930 -13.853  25.822  0.00  0.00     0.060 A 
HETATM    2  C   UNK     0     -23.762 -13.877  26.565  0.00  0.00     0.034 A 
HETATM    3  C   UNK     0     -22.719 -13.018  26.223  0.00  0.00     0.071 A 
HETATM    4  C   UNK     0     -22.859 -12.147  25.142  0.00  0.00    -0.006 A 
HETATM    5  C   UNK     0     -24.043 -12.135  24.405  0.00  0.00    -0.001 A 
HETATM    6  C   UNK     0     -21.758 -11.214  24.754  0.00  0.00     0.033 C 
HETATM    7  C   UNK     0     -25.086 -12.995  24.747  0.00  0.00     0.017 A 
ENDROOT
BRANCH   1   8
HETATM    8  N   UNK     0     -25.989 -14.727  26.169  0.00  0.00    -0.321 N 
HETATM    9  C   UNK     0     -26.225 -16.035  25.721  0.00  0.00     0.258 C 
HETATM   10  O   UNK     0     -25.508 -16.653  24.916  0.00  0.00    -0.267 OA
HETATM   11  H   UNK     0     -26.621 -14.336  26.863  0.00  0.00     0.169 HD
BRANCH   9  12
HETATM   12  C   UNK     0     -27.422 -16.677  26.239  0.00  0.00     0.056 A 
HETATM   13  C   UNK     0     -27.876 -17.868  25.675  0.00  0.00     0.004 A 
HETATM   14  C   UNK     0     -29.026 -18.483  26.171  0.00  0.00    -0.002 A 
HETATM   15  C   UNK     0     -29.710 -17.899  27.227  0.00  0.00     0.011 A 
HETATM   16  C   UNK     0     -29.268 -16.713  27.797  0.00  0.00    -0.002 A 
HETATM   17  C   UNK     0     -28.119 -16.099  27.301  0.00  0.00     0.004 A 
BRANCH  15  18
HETATM   18  C   UNK     0     -30.951 -18.562  27.764  0.00  0.00     0.277 C 
BRANCH  18  19
HETATM   19  N   UNK     0     -32.098 -17.655  27.762  0.00  0.00     0.146 N 
HETATM   20  C   UNK     0     -33.128 -18.116  28.699  0.00  0.00     0.286 C 
HETATM   21  C   UNK     0     -34.331 -17.165  28.696  0.00  0.00     0.286 C 
HETATM   22  N   UNK     0     -34.890 -17.033  27.345  0.00  0.00     0.143 N 
HETATM   23  C   UNK     0     -33.859 -16.574  26.406  0.00  0.00     0.286 C 
HETATM   24  C   UNK     0     -36.035 -16.125  27.344  0.00  0.00     0.285 C 
HETATM   25  C   UNK     0     -32.655 -17.524  26.410  0.00  0.00     0.286 C 
ENDBRANCH  18  19
ENDBRANCH  15  18
ENDBRANCH   9  12
ENDBRANCH   1   8
BRANCH   3  26
HETATM   26  N   UNK     0     -21.526 -13.043  26.979  0.00  0.00    -0.187 N 
HETATM   27  H   UNK     0     -20.784 -12.447  26.629  0.00  0.00     0.184 HD
BRANCH  26  28
HETATM   28  C   UNK     0     -21.188 -13.648  28.204  0.00  0.00     0.728 A 
HETATM   29  N   UNK     0     -19.878 -13.684  28.522  0.00  0.00    -0.059 NA
HETATM   30  C   UNK     0     -19.590 -14.269  29.703  0.00  0.00     0.120 A 
HETATM   31  C   UNK     0     -20.543 -14.803  30.546  0.00  0.00     0.041 A 
HETATM   32  C   UNK     0     -21.849 -14.705  30.110  0.00  0.00     0.103 A 
HETATM   33  N   UNK     0     -22.208 -14.132  28.943  0.00  0.00    -0.061 NA
BRANCH  32  34
HETATM   34  C   UNK     0     -22.940 -15.225  30.899  0.00  0.00     0.037 A 
HETATM   35  C   UNK     0     -22.729 -15.707  32.186  0.00  0.00     0.005 A 
HETATM   36  C   UNK     0     -23.800 -16.202  32.922  0.00  0.00     0.021 A 
HETATM   37  C   UNK     0     -25.053 -16.193  32.330  0.00  0.00     0.099 A 
HETATM   38  N   UNK     0     -25.298 -15.733  31.082  0.00  0.00    -0.242 NA
HETATM   39  C   UNK     0     -24.232 -15.260  30.398  0.00  0.00     0.100 A 
ENDBRANCH  32  34
ENDBRANCH  26  28
ENDBRANCH   3  26
TORSDOF 7
ENDMDL
