MODEL 1
REMARK VINA RESULT:     -10.2      0.000      0.000
REMARK  7 active torsions:
REMARK  status: ('A' for Active; 'I' for Inactive)
REMARK    1  A    between atoms: N_2  and  C_19 
REMARK       I    between atoms: N_2  and  C_3 
REMARK    2  A    between atoms: C_3  and  C_5 
REMARK    3  A    between atoms: C_8  and  C_11 
REMARK    4  A    between atoms: C_11  and  N_12 
REMARK    5  A    between atoms: C_21  and  N_26 
REMARK    6  A    between atoms: N_26  and  C_28 
REMARK    7  A    between atoms: C_30  and  C_34 
ROOT
HETATM    1  C   UNK     0     -41.882  49.843  14.574  0.00  0.00     0.060 A 
HETATM    2  C   UNK     0     -42.544  49.279  15.652  0.00  0.00     0.034 A 
HETATM    3  C   UNK     0     -43.841  48.798  15.479  0.00  0.00     0.071 A 
HETATM    4  C   UNK     0     -44.457  48.888  14.231  0.00  0.00    -0.006 A 
HETATM    5  C   UNK     0     -43.776  49.457  13.156  0.00  0.00    -0.001 A 
HETATM    6  C   UNK     0     -45.846  48.379  14.017  0.00  0.00     0.033 C 
HETATM    7  C   UNK     0     -42.479  49.939  13.329  0.00  0.00     0.017 A 
ENDROOT
BRANCH   1   8
HETATM    8  N   UNK     0     -40.565  50.332  14.750  0.00  0.00    -0.321 N 
HETATM    9  C   UNK     0     -39.441  49.657  15.248  0.00  0.00     0.258 C 
HETATM   10  O   UNK     0     -39.431  48.475  15.628  0.00  0.00    -0.267 OA
HETATM   11  H   UNK     0     -40.446  51.290  14.429  0.00  0.00     0.169 HD
BRANCH   9  12
HETATM   12  C   UNK     0     -38.219  50.439  15.338  0.00  0.00     0.056 A 
HETATM   13  C   UNK     0     -37.085  49.897  15.942  0.00  0.00     0.004 A 
HETATM   14  C   UNK     0     -35.913  50.648  16.029  0.00  0.00    -0.002 A 
HETATM   15  C   UNK     0     -35.887  51.935  15.511  0.00  0.00     0.011 A 
HETATM   16  C   UNK     0     -37.010  52.486  14.908  0.00  0.00    -0.002 A 
HETATM   17  C   UNK     0     -38.181  51.735  14.821  0.00  0.00     0.004 A 
BRANCH  15  18
HETATM   18  C   UNK     0     -34.623  52.747  15.604  0.00  0.00     0.277 C 
BRANCH  18  19
HETATM   19  N   UNK     0     -33.429  51.904  15.550  0.00  0.00     0.146 N 
HETATM   20  C   UNK     0     -32.535  52.193  16.677  0.00  0.00     0.286 C 
HETATM   21  C   UNK     0     -31.283  51.310  16.619  0.00  0.00     0.286 C 
HETATM   22  N   UNK     0     -30.575  51.487  15.345  0.00  0.00     0.143 N 
HETATM   23  C   UNK     0     -31.471  51.199  14.217  0.00  0.00     0.286 C 
HETATM   24  C   UNK     0     -29.385  50.643  15.292  0.00  0.00     0.285 C 
HETATM   25  C   UNK     0     -32.723  52.082  14.275  0.00  0.00     0.286 C 
ENDBRANCH  18  19
ENDBRANCH  15  18
ENDBRANCH   9  12
ENDBRANCH   1   8
BRANCH   3  26
HETATM   26  N   UNK     0     -44.518  48.224  16.578  0.00  0.00    -0.187 N 
HETATM   27  H   UNK     0     -45.504  48.452  16.642  0.00  0.00     0.184 HD
BRANCH  26  28
HETATM   28  C   UNK     0     -44.124  47.293  17.557  0.00  0.00     0.728 A 
HETATM   29  N   UNK     0     -44.860  46.166  17.653  0.00  0.00    -0.059 NA
HETATM   30  C   UNK     0     -44.454  45.296  18.601  0.00  0.00     0.120 A 
HETATM   31  C   UNK     0     -43.370  45.512  19.428  0.00  0.00     0.041 A 
HETATM   32  C   UNK     0     -42.698  46.701  19.232  0.00  0.00     0.103 A 
HETATM   33  N   UNK     0     -43.047  47.616  18.304  0.00  0.00    -0.061 NA
BRANCH  32  34
HETATM   34  C   UNK     0     -41.548  47.048  20.031  0.00  0.00     0.037 A 
HETATM   35  C   UNK     0     -41.034  48.341  20.028  0.00  0.00     0.005 A 
HETATM   36  C   UNK     0     -39.925  48.645  20.808  0.00  0.00     0.021 A 
HETATM   37  C   UNK     0     -39.369  47.629  21.568  0.00  0.00     0.099 A 
HETATM   38  N   UNK     0     -39.838  46.362  21.598  0.00  0.00    -0.242 NA
HETATM   39  C   UNK     0     -40.918  46.104  20.826  0.00  0.00     0.100 A 
ENDBRANCH  32  34
ENDBRANCH  26  28
ENDBRANCH   3  26
TORSDOF 7
ENDMDL
MODEL 2
REMARK VINA RESULT:     -10.0      2.781      9.528
REMARK  7 active torsions:
REMARK  status: ('A' for Active; 'I' for Inactive)
REMARK    1  A    between atoms: N_2  and  C_19 
REMARK       I    between atoms: N_2  and  C_3 
REMARK    2  A    between atoms: C_3  and  C_5 
REMARK    3  A    between atoms: C_8  and  C_11 
REMARK    4  A    between atoms: C_11  and  N_12 
REMARK    5  A    between atoms: C_21  and  N_26 
REMARK    6  A    between atoms: N_26  and  C_28 
REMARK    7  A    between atoms: C_30  and  C_34 
ROOT
HETATM    1  C   UNK     0     -40.076  49.114  16.293  0.00  0.00     0.060 A 
HETATM    2  C   UNK     0     -38.908  49.681  15.812  0.00  0.00     0.034 A 
HETATM    3  C   UNK     0     -38.935  50.378  14.605  0.00  0.00     0.071 A 
HETATM    4  C   UNK     0     -40.131  50.498  13.896  0.00  0.00    -0.006 A 
HETATM    5  C   UNK     0     -41.298  49.922  14.395  0.00  0.00    -0.001 A 
HETATM    6  C   UNK     0     -40.189  51.241  12.601  0.00  0.00     0.033 C 
HETATM    7  C   UNK     0     -41.270  49.224  15.602  0.00  0.00     0.017 A 
ENDROOT
BRANCH   1   8
HETATM    8  N   UNK     0     -40.048  48.406  17.518  0.00  0.00    -0.321 N 
HETATM    9  C   UNK     0     -40.303  47.045  17.747  0.00  0.00     0.258 C 
HETATM   10  O   UNK     0     -40.607  46.220  16.870  0.00  0.00    -0.267 OA
HETATM   11  H   UNK     0     -39.767  48.980  18.309  0.00  0.00     0.169 HD
BRANCH   9  12
HETATM   12  C   UNK     0     -40.224  46.609  19.131  0.00  0.00     0.056 A 
HETATM   13  C   UNK     0     -40.014  47.542  20.147  0.00  0.00     0.004 A 
HETATM   14  C   UNK     0     -39.935  47.123  21.475  0.00  0.00    -0.002 A 
HETATM   15  C   UNK     0     -40.067  45.774  21.774  0.00  0.00     0.011 A 
HETATM   16  C   UNK     0     -40.276  44.836  20.772  0.00  0.00    -0.002 A 
HETATM   17  C   UNK     0     -40.354  45.255  19.444  0.00  0.00     0.004 A 
BRANCH  15  18
HETATM   18  C   UNK     0     -39.984  45.321  23.207  0.00  0.00     0.277 C 
BRANCH  18  19
HETATM   19  N   UNK     0     -38.757  44.570  23.471  0.00  0.00     0.146 N 
HETATM   20  C   UNK     0     -38.879  43.788  24.707  0.00  0.00     0.286 C 
HETATM   21  C   UNK     0     -37.593  43.002  24.983  0.00  0.00     0.286 C 
HETATM   22  N   UNK     0     -36.436  43.901  25.059  0.00  0.00     0.143 N 
HETATM   23  C   UNK     0     -36.314  44.685  23.823  0.00  0.00     0.286 C 
HETATM   24  C   UNK     0     -35.211  43.150  25.320  0.00  0.00     0.285 C 
HETATM   25  C   UNK     0     -37.601  45.471  23.546  0.00  0.00     0.286 C 
ENDBRANCH  18  19
ENDBRANCH  15  18
ENDBRANCH   9  12
ENDBRANCH   1   8
BRANCH   3  26
HETATM   26  N   UNK     0     -37.744  50.956  14.113  0.00  0.00    -0.187 N 
HETATM   27  H   UNK     0     -37.502  50.698  13.163  0.00  0.00     0.184 HD
BRANCH  26  28
HETATM   28  C   UNK     0     -36.866  51.922  14.640  0.00  0.00     0.728 A 
HETATM   29  N   UNK     0     -37.409  53.103  14.998  0.00  0.00    -0.059 NA
HETATM   30  C   UNK     0     -36.540  54.005  15.500  0.00  0.00     0.120 A 
HETATM   31  C   UNK     0     -35.189  53.768  15.648  0.00  0.00     0.041 A 
HETATM   32  C   UNK     0     -34.754  52.521  15.246  0.00  0.00     0.103 A 
HETATM   33  N   UNK     0     -35.566  51.572  14.737  0.00  0.00    -0.061 NA
BRANCH  32  34
HETATM   34  C   UNK     0     -33.364  52.147  15.348  0.00  0.00     0.037 A 
HETATM   35  C   UNK     0     -32.707  52.150  16.575  0.00  0.00     0.005 A 
HETATM   36  C   UNK     0     -31.368  51.784  16.641  0.00  0.00     0.021 A 
HETATM   37  C   UNK     0     -30.733  51.429  15.462  0.00  0.00     0.099 A 
HETATM   38  N   UNK     0     -31.336  51.414  14.252  0.00  0.00    -0.242 NA
HETATM   39  C   UNK     0     -32.639  51.775  14.227  0.00  0.00     0.100 A 
ENDBRANCH  32  34
ENDBRANCH  26  28
ENDBRANCH   3  26
TORSDOF 7
ENDMDL
MODEL 3
REMARK VINA RESULT:      -9.6      3.075     10.217
REMARK  7 active torsions:
REMARK  status: ('A' for Active; 'I' for Inactive)
REMARK    1  A    between atoms: N_2  and  C_19 
REMARK       I    between atoms: N_2  and  C_3 
REMARK    2  A    between atoms: C_3  and  C_5 
REMARK    3  A    between atoms: C_8  and  C_11 
REMARK    4  A    between atoms: C_11  and  N_12 
REMARK    5  A    between atoms: C_21  and  N_26 
REMARK    6  A    between atoms: N_26  and  C_28 
REMARK    7  A    between atoms: C_30  and  C_34 
ROOT
HETATM    1  C   UNK     0     -40.053  48.885  16.832  0.00  0.00     0.060 A 
HETATM    2  C   UNK     0     -38.874  49.372  16.294  0.00  0.00     0.034 A 
HETATM    3  C   UNK     0     -38.911  50.061  15.083  0.00  0.00     0.071 A 
HETATM    4  C   UNK     0     -40.128  50.255  14.428  0.00  0.00    -0.006 A 
HETATM    5  C   UNK     0     -41.306  49.759  14.985  0.00  0.00    -0.001 A 
HETATM    6  C   UNK     0     -40.197  50.992  13.130  0.00  0.00     0.033 C 
HETATM    7  C   UNK     0     -41.268  49.069  16.196  0.00  0.00     0.017 A 
ENDROOT
BRANCH   1   8
HETATM    8  N   UNK     0     -40.015  48.184  18.062  0.00  0.00    -0.321 N 
HETATM    9  C   UNK     0     -40.310  46.834  18.307  0.00  0.00     0.258 C 
HETATM   10  O   UNK     0     -40.665  46.014  17.445  0.00  0.00    -0.267 OA
HETATM   11  H   UNK     0     -39.693  48.753  18.840  0.00  0.00     0.169 HD
BRANCH   9  12
HETATM   12  C   UNK     0     -40.206  46.404  19.692  0.00  0.00     0.056 A 
HETATM   13  C   UNK     0     -39.072  45.721  20.128  0.00  0.00     0.004 A 
HETATM   14  C   UNK     0     -38.973  45.307  21.457  0.00  0.00    -0.002 A 
HETATM   15  C   UNK     0     -40.012  45.580  22.335  0.00  0.00     0.011 A 
HETATM   16  C   UNK     0     -41.146  46.259  21.913  0.00  0.00    -0.002 A 
HETATM   17  C   UNK     0     -41.245  46.673  20.585  0.00  0.00     0.004 A 
BRANCH  15  18
HETATM   18  C   UNK     0     -39.906  45.134  23.770  0.00  0.00     0.277 C 
BRANCH  18  19
HETATM   19  N   UNK     0     -39.382  43.774  23.880  0.00  0.00     0.146 N 
HETATM   20  C   UNK     0     -40.475  42.796  23.927  0.00  0.00     0.286 C 
HETATM   21  C   UNK     0     -39.925  41.370  24.043  0.00  0.00     0.286 C 
HETATM   22  N   UNK     0     -39.067  41.235  25.227  0.00  0.00     0.143 N 
HETATM   23  C   UNK     0     -37.974  42.215  25.181  0.00  0.00     0.286 C 
HETATM   24  C   UNK     0     -38.542  39.876  25.335  0.00  0.00     0.285 C 
HETATM   25  C   UNK     0     -38.524  43.641  25.063  0.00  0.00     0.286 C 
ENDBRANCH  18  19
ENDBRANCH  15  18
ENDBRANCH   9  12
ENDBRANCH   1   8
BRANCH   3  26
HETATM   26  N   UNK     0     -37.708  50.557  14.532  0.00  0.00    -0.187 N 
HETATM   27  H   UNK     0     -37.418  50.115  13.668  0.00  0.00     0.184 HD
BRANCH  26  28
HETATM   28  C   UNK     0     -36.875  51.635  14.883  0.00  0.00     0.728 A 
HETATM   29  N   UNK     0     -37.480  52.815  15.128  0.00  0.00    -0.059 NA
HETATM   30  C   UNK     0     -36.651  53.826  15.462  0.00  0.00     0.120 A 
HETATM   31  C   UNK     0     -35.280  53.696  15.555  0.00  0.00     0.041 A 
HETATM   32  C   UNK     0     -34.780  52.438  15.281  0.00  0.00     0.103 A 
HETATM   33  N   UNK     0     -35.550  51.384  14.942  0.00  0.00    -0.061 NA
BRANCH  32  34
HETATM   34  C   UNK     0     -33.364  52.169  15.342  0.00  0.00     0.037 A 
HETATM   35  C   UNK     0     -32.682  52.184  16.554  0.00  0.00     0.005 A 
HETATM   36  C   UNK     0     -31.317  51.921  16.581  0.00  0.00     0.021 A 
HETATM   37  C   UNK     0     -30.685  51.651  15.378  0.00  0.00     0.099 A 
HETATM   38  N   UNK     0     -31.313  51.628  14.181  0.00  0.00    -0.242 NA
HETATM   39  C   UNK     0     -32.639  51.888  14.194  0.00  0.00     0.100 A 
ENDBRANCH  32  34
ENDBRANCH  26  28
ENDBRANCH   3  26
TORSDOF 7
ENDMDL
