MODEL 1
REMARK VINA RESULT:      -9.0      0.000      0.000
REMARK  7 active torsions:
REMARK  status: ('A' for Active; 'I' for Inactive)
REMARK    1  A    between atoms: N_2  and  C_19 
REMARK       I    between atoms: N_2  and  C_3 
REMARK    2  A    between atoms: C_3  and  C_5 
REMARK    3  A    between atoms: C_8  and  C_11 
REMARK    4  A    between atoms: C_11  and  N_12 
REMARK    5  A    between atoms: C_21  and  N_26 
REMARK    6  A    between atoms: N_26  and  C_28 
REMARK    7  A    between atoms: C_30  and  C_34 
ROOT
HETATM    1  C   UNK     0     -29.890 -47.467   0.740  0.00  0.00     0.060 A 
HETATM    2  C   UNK     0     -29.135 -48.540   1.182  0.00  0.00     0.034 A 
HETATM    3  C   UNK     0     -27.770 -48.366   1.406  0.00  0.00     0.071 A 
HETATM    4  C   UNK     0     -27.180 -47.121   1.186  0.00  0.00    -0.006 A 
HETATM    5  C   UNK     0     -27.955 -46.051   0.742  0.00  0.00    -0.001 A 
HETATM    6  C   UNK     0     -25.720 -46.906   1.420  0.00  0.00     0.033 C 
HETATM    7  C   UNK     0     -29.321 -46.225   0.517  0.00  0.00     0.017 A 
ENDROOT
BRANCH   1   8
HETATM    8  N   UNK     0     -31.276 -47.644   0.511  0.00  0.00    -0.321 N 
HETATM    9  C   UNK     0     -32.356 -47.136   1.249  0.00  0.00     0.258 C 
HETATM   10  O   UNK     0     -32.254 -46.423   2.261  0.00  0.00    -0.267 OA
HETATM   11  H   UNK     0     -31.480 -48.183  -0.327  0.00  0.00     0.169 HD
BRANCH   9  12
HETATM   12  C   UNK     0     -33.679 -47.515   0.781  0.00  0.00     0.056 A 
HETATM   13  C   UNK     0     -34.789 -46.743   1.122  0.00  0.00     0.004 A 
HETATM   14  C   UNK     0     -36.058 -47.108   0.674  0.00  0.00    -0.002 A 
HETATM   15  C   UNK     0     -36.205 -48.243  -0.111  0.00  0.00     0.011 A 
HETATM   16  C   UNK     0     -35.108 -49.020  -0.457  0.00  0.00    -0.002 A 
HETATM   17  C   UNK     0     -33.838 -48.655  -0.009  0.00  0.00     0.004 A 
BRANCH  15  18
HETATM   18  C   UNK     0     -37.574 -48.637  -0.596  0.00  0.00     0.277 C 
BRANCH  18  19
HETATM   19  N   UNK     0     -38.624 -47.822   0.013  0.00  0.00     0.146 N 
HETATM   20  C   UNK     0     -39.517 -48.649   0.833  0.00  0.00     0.286 C 
HETATM   21  C   UNK     0     -40.618 -47.794   1.471  0.00  0.00     0.286 C 
HETATM   22  N   UNK     0     -41.383 -47.076   0.445  0.00  0.00     0.143 N 
HETATM   23  C   UNK     0     -40.490 -46.249  -0.376  0.00  0.00     0.286 C 
HETATM   24  C   UNK     0     -42.430 -46.260   1.055  0.00  0.00     0.285 C 
HETATM   25  C   UNK     0     -39.388 -47.104  -1.013  0.00  0.00     0.286 C 
ENDBRANCH  18  19
ENDBRANCH  15  18
ENDBRANCH   9  12
ENDBRANCH   1   8
BRANCH   3  26
HETATM   26  N   UNK     0     -26.998 -49.461   1.855  0.00  0.00    -0.187 N 
HETATM   27  H   UNK     0     -26.139 -49.213   2.334  0.00  0.00     0.184 HD
BRANCH  26  28
HETATM   28  C   UNK     0     -27.235 -50.848   1.875  0.00  0.00     0.728 A 
HETATM   29  N   UNK     0     -26.183 -51.639   2.169  0.00  0.00    -0.059 NA
HETATM   30  C   UNK     0     -26.446 -52.962   2.180  0.00  0.00     0.120 A 
HETATM   31  C   UNK     0     -27.690 -53.499   1.914  0.00  0.00     0.041 A 
HETATM   32  C   UNK     0     -28.685 -52.587   1.628  0.00  0.00     0.103 A 
HETATM   33  N   UNK     0     -28.493 -51.252   1.600  0.00  0.00    -0.061 NA
BRANCH  32  34
HETATM   34  C   UNK     0     -30.030 -53.019   1.333  0.00  0.00     0.037 A 
HETATM   35  C   UNK     0     -30.826 -52.321   0.430  0.00  0.00     0.005 A 
HETATM   36  C   UNK     0     -32.117 -52.762   0.165  0.00  0.00     0.021 A 
HETATM   37  C   UNK     0     -32.564 -53.896   0.824  0.00  0.00     0.099 A 
HETATM   38  N   UNK     0     -31.821 -54.600   1.708  0.00  0.00    -0.242 NA
HETATM   39  C   UNK     0     -30.570 -54.142   1.939  0.00  0.00     0.100 A 
ENDBRANCH  32  34
ENDBRANCH  26  28
ENDBRANCH   3  26
TORSDOF 7
ENDMDL
MODEL 2
REMARK VINA RESULT:      -8.9      1.894      2.373
REMARK  7 active torsions:
REMARK  status: ('A' for Active; 'I' for Inactive)
REMARK    1  A    between atoms: N_2  and  C_19 
REMARK       I    between atoms: N_2  and  C_3 
REMARK    2  A    between atoms: C_3  and  C_5 
REMARK    3  A    between atoms: C_8  and  C_11 
REMARK    4  A    between atoms: C_11  and  N_12 
REMARK    5  A    between atoms: C_21  and  N_26 
REMARK    6  A    between atoms: N_26  and  C_28 
REMARK    7  A    between atoms: C_30  and  C_34 
ROOT
HETATM    1  C   UNK     0     -30.419 -48.833   0.965  0.00  0.00     0.060 A 
HETATM    2  C   UNK     0     -29.580 -49.832   1.428  0.00  0.00     0.034 A 
HETATM    3  C   UNK     0     -28.215 -49.574   1.550  0.00  0.00     0.071 A 
HETATM    4  C   UNK     0     -27.709 -48.320   1.207  0.00  0.00    -0.006 A 
HETATM    5  C   UNK     0     -28.568 -47.325   0.744  0.00  0.00    -0.001 A 
HETATM    6  C   UNK     0     -26.251 -48.016   1.329  0.00  0.00     0.033 C 
HETATM    7  C   UNK     0     -29.934 -47.583   0.621  0.00  0.00     0.017 A 
ENDROOT
BRANCH   1   8
HETATM    8  N   UNK     0     -31.805 -49.095   0.841  0.00  0.00    -0.321 N 
HETATM    9  C   UNK     0     -32.465 -49.857  -0.134  0.00  0.00     0.258 C 
HETATM   10  O   UNK     0     -31.910 -50.443  -1.077  0.00  0.00    -0.267 OA
HETATM   11  H   UNK     0     -32.359 -48.694   1.593  0.00  0.00     0.169 HD
BRANCH   9  12
HETATM   12  C   UNK     0     -33.913 -49.923  -0.014  0.00  0.00     0.056 A 
HETATM   13  C   UNK     0     -34.553 -51.160   0.052  0.00  0.00     0.004 A 
HETATM   14  C   UNK     0     -35.942 -51.223   0.165  0.00  0.00    -0.002 A 
HETATM   15  C   UNK     0     -36.677 -50.047   0.210  0.00  0.00     0.011 A 
HETATM   16  C   UNK     0     -36.051 -48.809   0.144  0.00  0.00    -0.002 A 
HETATM   17  C   UNK     0     -34.663 -48.747   0.032  0.00  0.00     0.004 A 
BRANCH  15  18
HETATM   18  C   UNK     0     -38.176 -50.113   0.333  0.00  0.00     0.277 C 
BRANCH  18  19
HETATM   19  N   UNK     0     -38.792 -48.793   0.210  0.00  0.00     0.146 N 
HETATM   20  C   UNK     0     -39.737 -48.554   1.307  0.00  0.00     0.286 C 
HETATM   21  C   UNK     0     -40.383 -47.170   1.177  0.00  0.00     0.286 C 
HETATM   22  N   UNK     0     -41.056 -47.026  -0.119  0.00  0.00     0.143 N 
HETATM   23  C   UNK     0     -40.111 -47.266  -1.217  0.00  0.00     0.286 C 
HETATM   24  C   UNK     0     -41.669 -45.706  -0.242  0.00  0.00     0.285 C 
HETATM   25  C   UNK     0     -39.464 -48.650  -1.087  0.00  0.00     0.286 C 
ENDBRANCH  18  19
ENDBRANCH  15  18
ENDBRANCH   9  12
ENDBRANCH   1   8
BRANCH   3  26
HETATM   26  N   UNK     0     -27.358 -50.594   2.021  0.00  0.00    -0.187 N 
HETATM   27  H   UNK     0     -26.447 -50.278   2.333  0.00  0.00     0.184 HD
BRANCH  26  28
HETATM   28  C   UNK     0     -27.553 -51.967   2.256  0.00  0.00     0.728 A 
HETATM   29  N   UNK     0     -26.561 -52.796   1.869  0.00  0.00    -0.059 NA
HETATM   30  C   UNK     0     -26.780 -54.105   2.110  0.00  0.00     0.120 A 
HETATM   31  C   UNK     0     -27.925 -54.594   2.706  0.00  0.00     0.041 A 
HETATM   32  C   UNK     0     -28.866 -53.647   3.057  0.00  0.00     0.103 A 
HETATM   33  N   UNK     0     -28.712 -52.324   2.847  0.00  0.00    -0.061 NA
BRANCH  32  34
HETATM   34  C   UNK     0     -30.107 -54.027   3.688  0.00  0.00     0.037 A 
HETATM   35  C   UNK     0     -31.089 -54.718   2.984  0.00  0.00     0.005 A 
HETATM   36  C   UNK     0     -32.274 -55.070   3.618  0.00  0.00     0.021 A 
HETATM   37  C   UNK     0     -32.430 -54.712   4.947  0.00  0.00     0.099 A 
HETATM   38  N   UNK     0     -31.501 -54.041   5.665  0.00  0.00    -0.242 NA
HETATM   39  C   UNK     0     -30.361 -53.715   5.014  0.00  0.00     0.100 A 
ENDBRANCH  32  34
ENDBRANCH  26  28
ENDBRANCH   3  26
TORSDOF 7
ENDMDL
MODEL 3
REMARK VINA RESULT:      -8.8      4.717     10.287
REMARK  7 active torsions:
REMARK  status: ('A' for Active; 'I' for Inactive)
REMARK    1  A    between atoms: N_2  and  C_19 
REMARK       I    between atoms: N_2  and  C_3 
REMARK    2  A    between atoms: C_3  and  C_5 
REMARK    3  A    between atoms: C_8  and  C_11 
REMARK    4  A    between atoms: C_11  and  N_12 
REMARK    5  A    between atoms: C_21  and  N_26 
REMARK    6  A    between atoms: N_26  and  C_28 
REMARK    7  A    between atoms: C_30  and  C_34 
ROOT
HETATM    1  C   UNK     0     -32.499 -53.493   0.370  0.00  0.00     0.060 A 
HETATM    2  C   UNK     0     -32.320 -52.138   0.144  0.00  0.00     0.034 A 
HETATM    3  C   UNK     0     -32.204 -51.676  -1.166  0.00  0.00     0.071 A 
HETATM    4  C   UNK     0     -32.269 -52.575  -2.231  0.00  0.00    -0.006 A 
HETATM    5  C   UNK     0     -32.450 -53.935  -1.985  0.00  0.00    -0.001 A 
HETATM    6  C   UNK     0     -32.149 -52.107  -3.645  0.00  0.00     0.033 C 
HETATM    7  C   UNK     0     -32.566 -54.398  -0.674  0.00  0.00     0.017 A 
ENDROOT
BRANCH   1   8
HETATM    8  N   UNK     0     -32.616 -53.963   1.701  0.00  0.00    -0.321 N 
HETATM    9  C   UNK     0     -31.673 -54.665   2.466  0.00  0.00     0.258 C 
HETATM   10  O   UNK     0     -30.542 -54.997   2.073  0.00  0.00    -0.267 OA
HETATM   11  H   UNK     0     -33.496 -53.708   2.142  0.00  0.00     0.169 HD
BRANCH   9  12
HETATM   12  C   UNK     0     -32.095 -55.040   3.805  0.00  0.00     0.056 A 
HETATM   13  C   UNK     0     -31.533 -54.412   4.916  0.00  0.00     0.004 A 
HETATM   14  C   UNK     0     -31.937 -54.773   6.202  0.00  0.00    -0.002 A 
HETATM   15  C   UNK     0     -32.899 -55.760   6.363  0.00  0.00     0.011 A 
HETATM   16  C   UNK     0     -33.465 -56.393   5.265  0.00  0.00    -0.002 A 
HETATM   17  C   UNK     0     -33.061 -56.032   3.980  0.00  0.00     0.004 A 
BRANCH  15  18
HETATM   18  C   UNK     0     -33.336 -56.150   7.750  0.00  0.00     0.277 C 
BRANCH  18  19
HETATM   19  N   UNK     0     -32.273 -56.836   8.484  0.00  0.00     0.146 N 
HETATM   20  C   UNK     0     -31.929 -58.107   7.836  0.00  0.00     0.286 C 
HETATM   21  C   UNK     0     -30.816 -58.827   8.605  0.00  0.00     0.286 C 
HETATM   22  N   UNK     0     -31.206 -59.052  10.002  0.00  0.00     0.143 N 
HETATM   23  C   UNK     0     -31.552 -57.780  10.650  0.00  0.00     0.286 C 
HETATM   24  C   UNK     0     -30.143 -59.735  10.735  0.00  0.00     0.285 C 
HETATM   25  C   UNK     0     -32.665 -57.060   9.880  0.00  0.00     0.286 C 
ENDBRANCH  18  19
ENDBRANCH  15  18
ENDBRANCH   9  12
ENDBRANCH   1   8
BRANCH   3  26
HETATM   26  N   UNK     0     -32.020 -50.295  -1.398  0.00  0.00    -0.187 N 
HETATM   27  H   UNK     0     -32.210 -49.990  -2.346  0.00  0.00     0.184 HD
BRANCH  26  28
HETATM   28  C   UNK     0     -31.731 -49.216  -0.542  0.00  0.00     0.728 A 
HETATM   29  N   UNK     0     -32.784 -48.518  -0.070  0.00  0.00    -0.059 NA
HETATM   30  C   UNK     0     -32.471 -47.492   0.749  0.00  0.00     0.120 A 
HETATM   31  C   UNK     0     -31.179 -47.155   1.097  0.00  0.00     0.041 A 
HETATM   32  C   UNK     0     -30.188 -47.946   0.551  0.00  0.00     0.103 A 
HETATM   33  N   UNK     0     -30.429 -48.986  -0.273  0.00  0.00    -0.061 NA
BRANCH  32  34
HETATM   34  C   UNK     0     -28.795 -47.699   0.835  0.00  0.00     0.037 A 
HETATM   35  C   UNK     0     -28.269 -46.412   0.787  0.00  0.00     0.005 A 
HETATM   36  C   UNK     0     -26.923 -46.206   1.066  0.00  0.00     0.021 A 
HETATM   37  C   UNK     0     -26.150 -47.311   1.385  0.00  0.00     0.099 A 
HETATM   38  N   UNK     0     -26.624 -48.576   1.441  0.00  0.00    -0.242 NA
HETATM   39  C   UNK     0     -27.937 -48.737   1.164  0.00  0.00     0.100 A 
ENDBRANCH  32  34
ENDBRANCH  26  28
ENDBRANCH   3  26
TORSDOF 7
ENDMDL
