MODEL 1
REMARK VINA RESULT:      -9.9      0.000      0.000
REMARK  7 active torsions:
REMARK  status: ('A' for Active; 'I' for Inactive)
REMARK    1  A    between atoms: N_2  and  C_19 
REMARK       I    between atoms: N_2  and  C_3 
REMARK    2  A    between atoms: C_3  and  C_5 
REMARK    3  A    between atoms: C_8  and  C_11 
REMARK    4  A    between atoms: C_11  and  N_12 
REMARK    5  A    between atoms: C_21  and  N_26 
REMARK    6  A    between atoms: N_26  and  C_28 
REMARK    7  A    between atoms: C_30  and  C_34 
ROOT
HETATM    1  C   UNK     0      -6.007  23.602 -27.798  0.00  0.00     0.060 A 
HETATM    2  C   UNK     0      -6.527  22.380 -27.404  0.00  0.00     0.034 A 
HETATM    3  C   UNK     0      -5.988  21.209 -27.933  0.00  0.00     0.071 A 
HETATM    4  C   UNK     0      -4.937  21.276 -28.848  0.00  0.00    -0.006 A 
HETATM    5  C   UNK     0      -4.425  22.514 -29.233  0.00  0.00    -0.001 A 
HETATM    6  C   UNK     0      -4.339  20.036 -29.430  0.00  0.00     0.033 C 
HETATM    7  C   UNK     0      -4.965  23.687 -28.704  0.00  0.00     0.017 A 
ENDROOT
BRANCH   1   8
HETATM    8  N   UNK     0      -6.556  24.792 -27.261  0.00  0.00    -0.321 N 
HETATM    9  C   UNK     0      -7.556  25.614 -27.801  0.00  0.00     0.258 C 
HETATM   10  O   UNK     0      -8.137  25.414 -28.880  0.00  0.00    -0.267 OA
HETATM   11  H   UNK     0      -6.179  25.033 -26.348  0.00  0.00     0.169 HD
BRANCH   9  12
HETATM   12  C   UNK     0      -7.893  26.796 -27.025  0.00  0.00     0.056 A 
HETATM   13  C   UNK     0      -6.953  27.357 -26.161  0.00  0.00     0.004 A 
HETATM   14  C   UNK     0      -7.277  28.489 -25.414  0.00  0.00    -0.002 A 
HETATM   15  C   UNK     0      -8.540  29.050 -25.539  0.00  0.00     0.011 A 
HETATM   16  C   UNK     0      -9.485  28.501 -26.394  0.00  0.00    -0.002 A 
HETATM   17  C   UNK     0      -9.161  27.368 -27.141  0.00  0.00     0.004 A 
BRANCH  15  18
HETATM   18  C   UNK     0      -8.891  30.273 -24.734  0.00  0.00     0.277 C 
BRANCH  18  19
HETATM   19  N   UNK     0     -10.336  30.493 -24.679  0.00  0.00     0.146 N 
HETATM   20  C   UNK     0     -10.655  31.911 -24.878  0.00  0.00     0.286 C 
HETATM   21  C   UNK     0     -12.170  32.142 -24.820  0.00  0.00     0.286 C 
HETATM   22  N   UNK     0     -12.723  31.666 -23.546  0.00  0.00     0.143 N 
HETATM   23  C   UNK     0     -12.402  30.247 -23.345  0.00  0.00     0.286 C 
HETATM   24  C   UNK     0     -14.166  31.885 -23.493  0.00  0.00     0.285 C 
HETATM   25  C   UNK     0     -10.887  30.017 -23.405  0.00  0.00     0.286 C 
ENDBRANCH  18  19
ENDBRANCH  15  18
ENDBRANCH   9  12
ENDBRANCH   1   8
BRANCH   3  26
HETATM   26  N   UNK     0      -6.517  19.962 -27.533  0.00  0.00    -0.187 N 
HETATM   27  H   UNK     0      -7.450  19.761 -27.877  0.00  0.00     0.184 HD
BRANCH  26  28
HETATM   28  C   UNK     0      -5.963  18.872 -26.836  0.00  0.00     0.728 A 
HETATM   29  N   UNK     0      -6.655  17.715 -26.870  0.00  0.00    -0.059 NA
HETATM   30  C   UNK     0      -6.094  16.691 -26.193  0.00  0.00     0.120 A 
HETATM   31  C   UNK     0      -4.901  16.788 -25.506  0.00  0.00     0.041 A 
HETATM   32  C   UNK     0      -4.287  18.024 -25.547  0.00  0.00     0.103 A 
HETATM   33  N   UNK     0      -4.790  19.089 -26.204  0.00  0.00    -0.061 NA
BRANCH  32  34
HETATM   34  C   UNK     0      -3.035  18.258 -24.869  0.00  0.00     0.037 A 
HETATM   35  C   UNK     0      -1.882  18.576 -25.580  0.00  0.00     0.005 A 
HETATM   36  C   UNK     0      -0.690  18.796 -24.898  0.00  0.00     0.021 A 
HETATM   37  C   UNK     0      -0.703  18.685 -23.517  0.00  0.00     0.099 A 
HETATM   38  N   UNK     0      -1.801  18.378 -22.792  0.00  0.00    -0.242 NA
HETATM   39  C   UNK     0      -2.942  18.172 -23.489  0.00  0.00     0.100 A 
ENDBRANCH  32  34
ENDBRANCH  26  28
ENDBRANCH   3  26
TORSDOF 7
ENDMDL
MODEL 2
REMARK VINA RESULT:      -9.9      6.757      8.972
REMARK  7 active torsions:
REMARK  status: ('A' for Active; 'I' for Inactive)
REMARK    1  A    between atoms: N_2  and  C_19 
REMARK       I    between atoms: N_2  and  C_3 
REMARK    2  A    between atoms: C_3  and  C_5 
REMARK    3  A    between atoms: C_8  and  C_11 
REMARK    4  A    between atoms: C_11  and  N_12 
REMARK    5  A    between atoms: C_21  and  N_26 
REMARK    6  A    between atoms: N_26  and  C_28 
REMARK    7  A    between atoms: C_30  and  C_34 
ROOT
HETATM    1  C   UNK     0      -3.575  19.747 -27.464  0.00  0.00     0.060 A 
HETATM    2  C   UNK     0      -4.126  18.501 -27.219  0.00  0.00     0.034 A 
HETATM    3  C   UNK     0      -3.638  17.736 -26.161  0.00  0.00     0.071 A 
HETATM    4  C   UNK     0      -2.606  18.229 -25.362  0.00  0.00    -0.006 A 
HETATM    5  C   UNK     0      -2.063  19.486 -25.622  0.00  0.00    -0.001 A 
HETATM    6  C   UNK     0      -2.064  17.431 -24.221  0.00  0.00     0.033 C 
HETATM    7  C   UNK     0      -2.551  20.251 -26.681  0.00  0.00     0.017 A 
ENDROOT
BRANCH   1   8
HETATM    8  N   UNK     0      -4.070  20.524 -28.539  0.00  0.00    -0.321 N 
HETATM    9  C   UNK     0      -5.081  21.496 -28.522  0.00  0.00     0.258 C 
HETATM   10  O   UNK     0      -5.723  21.839 -27.516  0.00  0.00    -0.267 OA
HETATM   11  H   UNK     0      -3.582  20.355 -29.415  0.00  0.00     0.169 HD
BRANCH   9  12
HETATM   12  C   UNK     0      -5.391  22.111 -29.802  0.00  0.00     0.056 A 
HETATM   13  C   UNK     0      -4.780  23.310 -30.169  0.00  0.00     0.004 A 
HETATM   14  C   UNK     0      -5.080  23.900 -31.396  0.00  0.00    -0.002 A 
HETATM   15  C   UNK     0      -5.988  23.286 -32.245  0.00  0.00     0.011 A 
HETATM   16  C   UNK     0      -6.604  22.093 -31.892  0.00  0.00    -0.002 A 
HETATM   17  C   UNK     0      -6.304  21.502 -30.665  0.00  0.00     0.004 A 
BRANCH  15  18
HETATM   18  C   UNK     0      -6.312  23.922 -33.571  0.00  0.00     0.277 C 
BRANCH  18  19
HETATM   19  N   UNK     0      -5.175  24.668 -34.109  0.00  0.00     0.146 N 
HETATM   20  C   UNK     0      -5.625  25.898 -34.771  0.00  0.00     0.286 C 
HETATM   21  C   UNK     0      -4.433  26.680 -35.336  0.00  0.00     0.286 C 
HETATM   22  N   UNK     0      -3.659  25.852 -36.268  0.00  0.00     0.143 N 
HETATM   23  C   UNK     0      -3.210  24.619 -35.607  0.00  0.00     0.286 C 
HETATM   24  C   UNK     0      -2.522  26.597 -36.803  0.00  0.00     0.285 C 
HETATM   25  C   UNK     0      -4.401  23.838 -35.041  0.00  0.00     0.286 C 
ENDBRANCH  18  19
ENDBRANCH  15  18
ENDBRANCH   9  12
ENDBRANCH   1   8
BRANCH   3  26
HETATM   26  N   UNK     0      -4.198  16.463 -25.911  0.00  0.00    -0.187 N 
HETATM   27  H   UNK     0      -4.125  16.142 -24.952  0.00  0.00     0.184 HD
BRANCH  26  28
HETATM   28  C   UNK     0      -4.951  15.582 -26.709  0.00  0.00     0.728 A 
HETATM   29  N   UNK     0      -4.285  14.553 -27.272  0.00  0.00    -0.059 NA
HETATM   30  C   UNK     0      -5.037  13.728 -28.029  0.00  0.00     0.120 A 
HETATM   31  C   UNK     0      -6.392  13.897 -28.234  0.00  0.00     0.041 A 
HETATM   32  C   UNK     0      -6.960  14.986 -27.604  0.00  0.00     0.103 A 
HETATM   33  N   UNK     0      -6.268  15.850 -26.833  0.00  0.00    -0.061 NA
BRANCH  32  34
HETATM   34  C   UNK     0      -8.367  15.275 -27.737  0.00  0.00     0.037 A 
HETATM   35  C   UNK     0      -9.117  14.731 -28.776  0.00  0.00     0.005 A 
HETATM   36  C   UNK     0     -10.470  15.027 -28.878  0.00  0.00     0.021 A 
HETATM   37  C   UNK     0     -11.024  15.867 -27.925  0.00  0.00     0.099 A 
HETATM   38  N   UNK     0     -10.330  16.415 -26.903  0.00  0.00    -0.242 NA
HETATM   39  C   UNK     0      -9.016  16.103 -26.836  0.00  0.00     0.100 A 
ENDBRANCH  32  34
ENDBRANCH  26  28
ENDBRANCH   3  26
TORSDOF 7
ENDMDL
MODEL 3
REMARK VINA RESULT:      -9.5      6.951     10.857
REMARK  7 active torsions:
REMARK  status: ('A' for Active; 'I' for Inactive)
REMARK    1  A    between atoms: N_2  and  C_19 
REMARK       I    between atoms: N_2  and  C_3 
REMARK    2  A    between atoms: C_3  and  C_5 
REMARK    3  A    between atoms: C_8  and  C_11 
REMARK    4  A    between atoms: C_11  and  N_12 
REMARK    5  A    between atoms: C_21  and  N_26 
REMARK    6  A    between atoms: N_26  and  C_28 
REMARK    7  A    between atoms: C_30  and  C_34 
ROOT
HETATM    1  C   UNK     0      -8.567  15.139 -27.444  0.00  0.00     0.060 A 
HETATM    2  C   UNK     0      -7.746  15.733 -26.500  0.00  0.00     0.034 A 
HETATM    3  C   UNK     0      -6.386  15.431 -26.494  0.00  0.00     0.071 A 
HETATM    4  C   UNK     0      -5.865  14.539 -27.432  0.00  0.00    -0.006 A 
HETATM    5  C   UNK     0      -6.705  13.950 -28.376  0.00  0.00    -0.001 A 
HETATM    6  C   UNK     0      -4.410  14.198 -27.450  0.00  0.00     0.033 C 
HETATM    7  C   UNK     0      -8.067  14.252 -28.382  0.00  0.00     0.017 A 
ENDROOT
BRANCH   1   8
HETATM    8  N   UNK     0      -9.950  15.445 -27.449  0.00  0.00    -0.321 N 
HETATM    9  C   UNK     0     -10.586  16.604 -27.918  0.00  0.00     0.258 C 
HETATM   10  O   UNK     0     -10.007  17.580 -28.421  0.00  0.00    -0.267 OA
HETATM   11  H   UNK     0     -10.530  14.689 -27.094  0.00  0.00     0.169 HD
BRANCH   9  12
HETATM   12  C   UNK     0     -12.031  16.641 -27.763  0.00  0.00     0.056 A 
HETATM   13  C   UNK     0     -12.656  15.804 -26.839  0.00  0.00     0.004 A 
HETATM   14  C   UNK     0     -14.042  15.838 -26.691  0.00  0.00    -0.002 A 
HETATM   15  C   UNK     0     -14.791  16.709 -27.470  0.00  0.00     0.011 A 
HETATM   16  C   UNK     0     -14.180  17.546 -28.394  0.00  0.00    -0.002 A 
HETATM   17  C   UNK     0     -12.794  17.512 -28.541  0.00  0.00     0.004 A 
BRANCH  15  18
HETATM   18  C   UNK     0     -16.287  16.747 -27.311  0.00  0.00     0.277 C 
BRANCH  18  19
HETATM   19  N   UNK     0     -16.976  16.533 -28.583  0.00  0.00     0.146 N 
HETATM   20  C   UNK     0     -18.385  16.932 -28.486  0.00  0.00     0.286 C 
HETATM   21  C   UNK     0     -19.108  16.708 -29.820  0.00  0.00     0.286 C 
HETATM   22  N   UNK     0     -19.000  15.306 -30.243  0.00  0.00     0.143 N 
HETATM   23  C   UNK     0     -17.590  14.906 -30.338  0.00  0.00     0.286 C 
HETATM   24  C   UNK     0     -19.687  15.095 -31.515  0.00  0.00     0.285 C 
HETATM   25  C   UNK     0     -16.868  15.132 -29.005  0.00  0.00     0.286 C 
ENDBRANCH  18  19
ENDBRANCH  15  18
ENDBRANCH   9  12
ENDBRANCH   1   8
BRANCH   3  26
HETATM   26  N   UNK     0      -5.547  16.035 -25.531  0.00  0.00    -0.187 N 
HETATM   27  H   UNK     0      -5.423  15.504 -24.676  0.00  0.00     0.184 HD
BRANCH  26  28
HETATM   28  C   UNK     0      -4.744  17.190 -25.560  0.00  0.00     0.728 A 
HETATM   29  N   UNK     0      -3.811  17.304 -24.593  0.00  0.00    -0.059 NA
HETATM   30  C   UNK     0      -3.058  18.422 -24.651  0.00  0.00     0.120 A 
HETATM   31  C   UNK     0      -3.208  19.398 -25.616  0.00  0.00     0.041 A 
HETATM   32  C   UNK     0      -4.196  19.167 -26.551  0.00  0.00     0.103 A 
HETATM   33  N   UNK     0      -4.984  18.072 -26.553  0.00  0.00    -0.061 NA
BRANCH  32  34
HETATM   34  C   UNK     0      -4.455  20.109 -27.612  0.00  0.00     0.037 A 
HETATM   35  C   UNK     0      -5.113  19.720 -28.774  0.00  0.00     0.005 A 
HETATM   36  C   UNK     0      -5.348  20.651 -29.779  0.00  0.00     0.021 A 
HETATM   37  C   UNK     0      -4.907  21.949 -29.577  0.00  0.00     0.099 A 
HETATM   38  N   UNK     0      -4.264  22.365 -28.463  0.00  0.00    -0.242 NA
HETATM   39  C   UNK     0      -4.054  21.432 -27.507  0.00  0.00     0.100 A 
ENDBRANCH  32  34
ENDBRANCH  26  28
ENDBRANCH   3  26
TORSDOF 7
ENDMDL
