MODEL 1
REMARK VINA RESULT:      -8.1      0.000      0.000
REMARK  7 active torsions:
REMARK  status: ('A' for Active; 'I' for Inactive)
REMARK    1  A    between atoms: N_2  and  C_19 
REMARK       I    between atoms: N_2  and  C_3 
REMARK    2  A    between atoms: C_3  and  C_5 
REMARK    3  A    between atoms: C_8  and  C_11 
REMARK    4  A    between atoms: C_11  and  N_12 
REMARK    5  A    between atoms: C_21  and  N_26 
REMARK    6  A    between atoms: N_26  and  C_28 
REMARK    7  A    between atoms: C_30  and  C_34 
ROOT
HETATM    1  C   UNK     0      11.081  22.545  27.747  0.00  0.00     0.060 A 
HETATM    2  C   UNK     0       9.779  22.466  27.282  0.00  0.00     0.034 A 
HETATM    3  C   UNK     0       8.736  22.335  28.198  0.00  0.00     0.071 A 
HETATM    4  C   UNK     0       9.010  22.286  29.565  0.00  0.00    -0.006 A 
HETATM    5  C   UNK     0      10.327  22.368  30.016  0.00  0.00    -0.001 A 
HETATM    6  C   UNK     0       7.911  22.147  30.568  0.00  0.00     0.033 C 
HETATM    7  C   UNK     0      11.371  22.498  29.100  0.00  0.00     0.017 A 
ENDROOT
BRANCH   1   8
HETATM    8  N   UNK     0      12.141  22.677  26.818  0.00  0.00    -0.321 N 
HETATM    9  C   UNK     0      12.560  23.824  26.127  0.00  0.00     0.258 C 
HETATM   10  O   UNK     0      12.041  24.948  26.231  0.00  0.00    -0.267 OA
HETATM   11  H   UNK     0      12.669  21.818  26.685  0.00  0.00     0.169 HD
BRANCH   9  12
HETATM   12  C   UNK     0      13.672  23.641  25.208  0.00  0.00     0.056 A 
HETATM   13  C   UNK     0      14.910  23.214  25.687  0.00  0.00     0.004 A 
HETATM   14  C   UNK     0      15.977  23.039  24.806  0.00  0.00    -0.002 A 
HETATM   15  C   UNK     0      15.795  23.294  23.454  0.00  0.00     0.011 A 
HETATM   16  C   UNK     0      14.568  23.720  22.966  0.00  0.00    -0.002 A 
HETATM   17  C   UNK     0      13.501  23.895  23.847  0.00  0.00     0.004 A 
BRANCH  15  18
HETATM   18  C   UNK     0      16.946  23.106  22.502  0.00  0.00     0.277 C 
BRANCH  18  19
HETATM   19  N   UNK     0      16.569  23.415  21.124  0.00  0.00     0.146 N 
HETATM   20  C   UNK     0      16.798  22.259  20.249  0.00  0.00     0.286 C 
HETATM   21  C   UNK     0      16.404  22.584  18.803  0.00  0.00     0.286 C 
HETATM   22  N   UNK     0      17.141  23.753  18.310  0.00  0.00     0.143 N 
HETATM   23  C   UNK     0      16.913  24.910  19.186  0.00  0.00     0.286 C 
HETATM   24  C   UNK     0      16.762  24.063  16.934  0.00  0.00     0.285 C 
HETATM   25  C   UNK     0      17.307  24.585  20.632  0.00  0.00     0.286 C 
ENDBRANCH  18  19
ENDBRANCH  15  18
ENDBRANCH   9  12
ENDBRANCH   1   8
BRANCH   3  26
HETATM   26  N   UNK     0       7.408  22.252  27.725  0.00  0.00    -0.187 N 
HETATM   27  H   UNK     0       7.003  21.323  27.742  0.00  0.00     0.184 HD
BRANCH  26  28
HETATM   28  C   UNK     0       6.475  23.230  27.333  0.00  0.00     0.728 A 
HETATM   29  N   UNK     0       6.636  24.465  27.853  0.00  0.00    -0.059 NA
HETATM   30  C   UNK     0       5.725  25.377  27.455  0.00  0.00     0.120 A 
HETATM   31  C   UNK     0       4.691  25.100  26.583  0.00  0.00     0.041 A 
HETATM   32  C   UNK     0       4.633  23.801  26.120  0.00  0.00     0.103 A 
HETATM   33  N   UNK     0       5.510  22.839  26.475  0.00  0.00    -0.061 NA
BRANCH  32  34
HETATM   34  C   UNK     0       3.601  23.382  25.204  0.00  0.00     0.037 A 
HETATM   35  C   UNK     0       3.704  22.183  24.506  0.00  0.00     0.005 A 
HETATM   36  C   UNK     0       2.693  21.805  23.629  0.00  0.00     0.021 A 
HETATM   37  C   UNK     0       1.608  22.655  23.486  0.00  0.00     0.099 A 
HETATM   38  N   UNK     0       1.472  23.827  24.146  0.00  0.00    -0.242 NA
HETATM   39  C   UNK     0       2.475  24.161  24.989  0.00  0.00     0.100 A 
ENDBRANCH  32  34
ENDBRANCH  26  28
ENDBRANCH   3  26
TORSDOF 7
ENDMDL
MODEL 2
REMARK VINA RESULT:      -8.1      3.844     13.540
REMARK  7 active torsions:
REMARK  status: ('A' for Active; 'I' for Inactive)
REMARK    1  A    between atoms: N_2  and  C_19 
REMARK       I    between atoms: N_2  and  C_3 
REMARK    2  A    between atoms: C_3  and  C_5 
REMARK    3  A    between atoms: C_8  and  C_11 
REMARK    4  A    between atoms: C_11  and  N_12 
REMARK    5  A    between atoms: C_21  and  N_26 
REMARK    6  A    between atoms: N_26  and  C_28 
REMARK    7  A    between atoms: C_30  and  C_34 
ROOT
HETATM    1  C   UNK     0      15.625  23.409  20.328  0.00  0.00     0.060 A 
HETATM    2  C   UNK     0      15.855  22.177  19.739  0.00  0.00     0.034 A 
HETATM    3  C   UNK     0      16.382  22.127  18.449  0.00  0.00     0.071 A 
HETATM    4  C   UNK     0      16.673  23.310  17.768  0.00  0.00    -0.006 A 
HETATM    5  C   UNK     0      16.436  24.541  18.376  0.00  0.00    -0.001 A 
HETATM    6  C   UNK     0      17.240  23.285  16.385  0.00  0.00     0.033 C 
HETATM    7  C   UNK     0      15.908  24.592  19.667  0.00  0.00     0.017 A 
ENDROOT
BRANCH   1   8
HETATM    8  N   UNK     0      15.089  23.460  21.637  0.00  0.00    -0.321 N 
HETATM    9  C   UNK     0      15.769  23.406  22.863  0.00  0.00     0.258 C 
HETATM   10  O   UNK     0      16.999  23.300  22.991  0.00  0.00    -0.267 OA
HETATM   11  H   UNK     0      14.080  23.591  21.654  0.00  0.00     0.169 HD
BRANCH   9  12
HETATM   12  C   UNK     0      14.935  23.454  24.053  0.00  0.00     0.056 A 
HETATM   13  C   UNK     0      13.623  23.917  23.969  0.00  0.00     0.004 A 
HETATM   14  C   UNK     0      12.824  23.965  25.111  0.00  0.00    -0.002 A 
HETATM   15  C   UNK     0      13.346  23.548  26.327  0.00  0.00     0.011 A 
HETATM   16  C   UNK     0      14.651  23.086  26.424  0.00  0.00    -0.002 A 
HETATM   17  C   UNK     0      15.450  23.039  25.282  0.00  0.00     0.004 A 
BRANCH  15  18
HETATM   18  C   UNK     0      12.485  23.598  27.561  0.00  0.00     0.277 C 
BRANCH  18  19
HETATM   19  N   UNK     0      11.062  23.507  27.236  0.00  0.00     0.146 N 
HETATM   20  C   UNK     0      10.295  24.529  27.957  0.00  0.00     0.286 C 
HETATM   21  C   UNK     0       8.804  24.433  27.617  0.00  0.00     0.286 C 
HETATM   22  N   UNK     0       8.283  23.094  27.920  0.00  0.00     0.143 N 
HETATM   23  C   UNK     0       9.051  22.070  27.200  0.00  0.00     0.286 C 
HETATM   24  C   UNK     0       6.863  23.003  27.593  0.00  0.00     0.285 C 
HETATM   25  C   UNK     0      10.543  22.168  27.539  0.00  0.00     0.286 C 
ENDBRANCH  18  19
ENDBRANCH  15  18
ENDBRANCH   9  12
ENDBRANCH   1   8
BRANCH   3  26
HETATM   26  N   UNK     0      16.616  20.871  17.846  0.00  0.00    -0.187 N 
HETATM   27  H   UNK     0      15.845  20.509  17.296  0.00  0.00     0.184 HD
BRANCH  26  28
HETATM   28  C   UNK     0      17.760  20.057  17.757  0.00  0.00     0.728 A 
HETATM   29  N   UNK     0      18.349  19.709  18.919  0.00  0.00    -0.059 NA
HETATM   30  C   UNK     0      19.442  18.927  18.796  0.00  0.00     0.120 A 
HETATM   31  C   UNK     0      19.947  18.499  17.585  0.00  0.00     0.041 A 
HETATM   32  C   UNK     0      19.256  18.921  16.467  0.00  0.00     0.103 A 
HETATM   33  N   UNK     0      18.157  19.702  16.516  0.00  0.00    -0.061 NA
BRANCH  32  34
HETATM   34  C   UNK     0      19.681  18.544  15.141  0.00  0.00     0.037 A 
HETATM   35  C   UNK     0      20.015  17.227  14.842  0.00  0.00     0.005 A 
HETATM   36  C   UNK     0      20.421  16.894  13.555  0.00  0.00     0.021 A 
HETATM   37  C   UNK     0      20.476  17.906  12.610  0.00  0.00     0.099 A 
HETATM   38  N   UNK     0      20.160  19.196  12.862  0.00  0.00    -0.242 NA
HETATM   39  C   UNK     0      19.770  19.482  14.124  0.00  0.00     0.100 A 
ENDBRANCH  32  34
ENDBRANCH  26  28
ENDBRANCH   3  26
TORSDOF 7
ENDMDL
MODEL 3
REMARK VINA RESULT:      -8.0     19.434     24.639
REMARK  7 active torsions:
REMARK  status: ('A' for Active; 'I' for Inactive)
REMARK    1  A    between atoms: N_2  and  C_19 
REMARK       I    between atoms: N_2  and  C_3 
REMARK    2  A    between atoms: C_3  and  C_5 
REMARK    3  A    between atoms: C_8  and  C_11 
REMARK    4  A    between atoms: C_11  and  N_12 
REMARK    5  A    between atoms: C_21  and  N_26 
REMARK    6  A    between atoms: N_26  and  C_28 
REMARK    7  A    between atoms: C_30  and  C_34 
ROOT
HETATM    1  C   UNK     0      11.777  25.391   3.735  0.00  0.00     0.060 A 
HETATM    2  C   UNK     0      12.996  24.936   4.211  0.00  0.00     0.034 A 
HETATM    3  C   UNK     0      13.629  25.634   5.239  0.00  0.00     0.071 A 
HETATM    4  C   UNK     0      13.034  26.777   5.775  0.00  0.00    -0.006 A 
HETATM    5  C   UNK     0      11.807  27.220   5.285  0.00  0.00    -0.001 A 
HETATM    6  C   UNK     0      13.690  27.543   6.878  0.00  0.00     0.033 C 
HETATM    7  C   UNK     0      11.174  26.522   4.256  0.00  0.00     0.017 A 
ENDROOT
BRANCH   1   8
HETATM    8  N   UNK     0      11.135  24.683   2.691  0.00  0.00    -0.321 N 
HETATM    9  C   UNK     0      10.406  23.486   2.766  0.00  0.00     0.258 C 
HETATM   10  O   UNK     0      10.206  22.838   3.806  0.00  0.00    -0.267 OA
HETATM   11  H   UNK     0      11.199  25.149   1.790  0.00  0.00     0.169 HD
BRANCH   9  12
HETATM   12  C   UNK     0       9.883  22.983   1.507  0.00  0.00     0.056 A 
HETATM   13  C   UNK     0       9.907  23.788   0.368  0.00  0.00     0.004 A 
HETATM   14  C   UNK     0       9.403  23.305  -0.840  0.00  0.00    -0.002 A 
HETATM   15  C   UNK     0       8.880  22.021  -0.897  0.00  0.00     0.011 A 
HETATM   16  C   UNK     0       8.850  21.211   0.230  0.00  0.00    -0.002 A 
HETATM   17  C   UNK     0       9.354  21.693   1.437  0.00  0.00     0.004 A 
BRANCH  15  18
HETATM   18  C   UNK     0       8.337  21.499  -2.200  0.00  0.00     0.277 C 
BRANCH  18  19
HETATM   19  N   UNK     0       6.973  20.990  -2.057  0.00  0.00     0.146 N 
HETATM   20  C   UNK     0       6.845  19.663  -2.669  0.00  0.00     0.286 C 
HETATM   21  C   UNK     0       5.415  19.130  -2.520  0.00  0.00     0.286 C 
HETATM   22  N   UNK     0       4.446  20.061  -3.110  0.00  0.00     0.143 N 
HETATM   23  C   UNK     0       4.575  21.390  -2.499  0.00  0.00     0.286 C 
HETATM   24  C   UNK     0       3.084  19.553  -2.965  0.00  0.00     0.285 C 
HETATM   25  C   UNK     0       6.005  21.922  -2.647  0.00  0.00     0.286 C 
ENDBRANCH  18  19
ENDBRANCH  15  18
ENDBRANCH   9  12
ENDBRANCH   1   8
BRANCH   3  26
HETATM   26  N   UNK     0      14.872  25.173   5.724  0.00  0.00    -0.187 N 
HETATM   27  H   UNK     0      15.491  25.895   6.076  0.00  0.00     0.184 HD
BRANCH  26  28
HETATM   28  C   UNK     0      15.394  23.882   5.929  0.00  0.00     0.728 A 
HETATM   29  N   UNK     0      15.581  23.499   7.209  0.00  0.00    -0.059 NA
HETATM   30  C   UNK     0      16.081  22.256   7.369  0.00  0.00     0.120 A 
HETATM   31  C   UNK     0      16.389  21.413   6.320  0.00  0.00     0.041 A 
HETATM   32  C   UNK     0      16.152  21.918   5.058  0.00  0.00     0.103 A 
HETATM   33  N   UNK     0      15.654  23.150   4.826  0.00  0.00    -0.061 NA
BRANCH  32  34
HETATM   34  C   UNK     0      16.433  21.138   3.877  0.00  0.00     0.037 A 
HETATM   35  C   UNK     0      17.553  20.316   3.809  0.00  0.00     0.005 A 
HETATM   36  C   UNK     0      17.796  19.576   2.658  0.00  0.00     0.021 A 
HETATM   37  C   UNK     0      16.897  19.692   1.610  0.00  0.00     0.099 A 
HETATM   38  N   UNK     0      15.799  20.479   1.638  0.00  0.00    -0.242 NA
HETATM   39  C   UNK     0      15.595  21.183   2.774  0.00  0.00     0.100 A 
ENDBRANCH  32  34
ENDBRANCH  26  28
ENDBRANCH   3  26
TORSDOF 7
ENDMDL
