MODEL 1
REMARK VINA RESULT:      -9.7      0.000      0.000
REMARK  7 active torsions:
REMARK  status: ('A' for Active; 'I' for Inactive)
REMARK    1  A    between atoms: N_2  and  C_19 
REMARK       I    between atoms: N_2  and  C_3 
REMARK    2  A    between atoms: C_3  and  C_5 
REMARK    3  A    between atoms: C_8  and  C_11 
REMARK    4  A    between atoms: C_11  and  N_12 
REMARK    5  A    between atoms: C_21  and  N_26 
REMARK    6  A    between atoms: N_26  and  C_28 
REMARK    7  A    between atoms: C_30  and  C_34 
ROOT
HETATM    1  C   UNK     0      25.411  12.044   4.145  0.00  0.00     0.060 A 
HETATM    2  C   UNK     0      24.913  12.457   5.369  0.00  0.00     0.034 A 
HETATM    3  C   UNK     0      24.103  11.592   6.102  0.00  0.00     0.071 A 
HETATM    4  C   UNK     0      23.803  10.324   5.601  0.00  0.00    -0.006 A 
HETATM    5  C   UNK     0      24.314   9.924   4.367  0.00  0.00    -0.001 A 
HETATM    6  C   UNK     0      22.938   9.376   6.366  0.00  0.00     0.033 C 
HETATM    7  C   UNK     0      25.124  10.790   3.633  0.00  0.00     0.017 A 
ENDROOT
BRANCH   1   8
HETATM    8  N   UNK     0      26.233  12.923   3.400  0.00  0.00    -0.321 N 
HETATM    9  C   UNK     0      25.847  13.975   2.555  0.00  0.00     0.258 C 
HETATM   10  O   UNK     0      24.674  14.308   2.323  0.00  0.00    -0.267 OA
HETATM   11  H   UNK     0      27.227  12.768   3.548  0.00  0.00     0.169 HD
BRANCH   9  12
HETATM   12  C   UNK     0      26.929  14.691   1.899  0.00  0.00     0.056 A 
HETATM   13  C   UNK     0      26.845  14.989   0.539  0.00  0.00     0.004 A 
HETATM   14  C   UNK     0      27.884  15.674  -0.091  0.00  0.00    -0.002 A 
HETATM   15  C   UNK     0      28.997  16.054   0.645  0.00  0.00     0.011 A 
HETATM   16  C   UNK     0      29.092  15.762   1.999  0.00  0.00    -0.002 A 
HETATM   17  C   UNK     0      28.054  15.078   2.629  0.00  0.00     0.004 A 
BRANCH  15  18
HETATM   18  C   UNK     0      30.118  16.794  -0.034  0.00  0.00     0.277 C 
BRANCH  18  19
HETATM   19  N   UNK     0      31.038  17.395   0.931  0.00  0.00     0.146 N 
HETATM   20  C   UNK     0      30.504  18.664   1.440  0.00  0.00     0.286 C 
HETATM   21  C   UNK     0      31.469  19.294   2.451  0.00  0.00     0.286 C 
HETATM   22  N   UNK     0      32.794  19.498   1.853  0.00  0.00     0.143 N 
HETATM   23  C   UNK     0      33.327  18.229   1.343  0.00  0.00     0.286 C 
HETATM   24  C   UNK     0      33.712  20.096   2.819  0.00  0.00     0.285 C 
HETATM   25  C   UNK     0      32.362  17.598   0.332  0.00  0.00     0.286 C 
ENDBRANCH  18  19
ENDBRANCH  15  18
ENDBRANCH   9  12
ENDBRANCH   1   8
BRANCH   3  26
HETATM   26  N   UNK     0      23.592  12.013   7.350  0.00  0.00    -0.187 N 
HETATM   27  H   UNK     0      22.601  11.847   7.487  0.00  0.00     0.184 HD
BRANCH  26  28
HETATM   28  C   UNK     0      24.209  12.521   8.508  0.00  0.00     0.728 A 
HETATM   29  N   UNK     0      23.472  13.349   9.275  0.00  0.00    -0.059 NA
HETATM   30  C   UNK     0      24.094  13.816  10.377  0.00  0.00     0.120 A 
HETATM   31  C   UNK     0      25.390  13.491  10.722  0.00  0.00     0.041 A 
HETATM   32  C   UNK     0      26.041  12.634   9.858  0.00  0.00     0.103 A 
HETATM   33  N   UNK     0      25.480  12.129   8.740  0.00  0.00    -0.061 NA
BRANCH  32  34
HETATM   34  C   UNK     0      27.400  12.217  10.104  0.00  0.00     0.037 A 
HETATM   35  C   UNK     0      27.976  12.351  11.363  0.00  0.00     0.005 A 
HETATM   36  C   UNK     0      29.287  11.939  11.569  0.00  0.00     0.021 A 
HETATM   37  C   UNK     0      29.977  11.405  10.493  0.00  0.00     0.099 A 
HETATM   38  N   UNK     0      29.452  11.259   9.255  0.00  0.00    -0.242 NA
HETATM   39  C   UNK     0      28.175  11.669   9.093  0.00  0.00     0.100 A 
ENDBRANCH  32  34
ENDBRANCH  26  28
ENDBRANCH   3  26
TORSDOF 7
ENDMDL
MODEL 2
REMARK VINA RESULT:      -9.0      1.716     10.075
REMARK  7 active torsions:
REMARK  status: ('A' for Active; 'I' for Inactive)
REMARK    1  A    between atoms: N_2  and  C_19 
REMARK       I    between atoms: N_2  and  C_3 
REMARK    2  A    between atoms: C_3  and  C_5 
REMARK    3  A    between atoms: C_8  and  C_11 
REMARK    4  A    between atoms: C_11  and  N_12 
REMARK    5  A    between atoms: C_21  and  N_26 
REMARK    6  A    between atoms: N_26  and  C_28 
REMARK    7  A    between atoms: C_30  and  C_34 
ROOT
HETATM    1  C   UNK     0      26.444  14.314   0.202  0.00  0.00     0.060 A 
HETATM    2  C   UNK     0      27.466  15.247   0.142  0.00  0.00     0.034 A 
HETATM    3  C   UNK     0      27.916  15.686  -1.102  0.00  0.00     0.071 A 
HETATM    4  C   UNK     0      27.337  15.186  -2.269  0.00  0.00    -0.006 A 
HETATM    5  C   UNK     0      26.308  14.249  -2.191  0.00  0.00    -0.001 A 
HETATM    6  C   UNK     0      27.798  15.640  -3.616  0.00  0.00     0.033 C 
HETATM    7  C   UNK     0      25.859  13.809  -0.946  0.00  0.00     0.017 A 
ENDROOT
BRANCH   1   8
HETATM    8  N   UNK     0      25.989  13.867   1.466  0.00  0.00    -0.321 N 
HETATM    9  C   UNK     0      24.881  14.313   2.202  0.00  0.00     0.258 C 
HETATM   10  O   UNK     0      24.097  15.206   1.841  0.00  0.00    -0.267 OA
HETATM   11  H   UNK     0      26.537  13.098   1.842  0.00  0.00     0.169 HD
BRANCH   9  12
HETATM   12  C   UNK     0      24.680  13.675   3.494  0.00  0.00     0.056 A 
HETATM   13  C   UNK     0      23.398  13.581   4.034  0.00  0.00     0.004 A 
HETATM   14  C   UNK     0      23.206  12.971   5.274  0.00  0.00    -0.002 A 
HETATM   15  C   UNK     0      24.299  12.462   5.961  0.00  0.00     0.011 A 
HETATM   16  C   UNK     0      25.580  12.550   5.433  0.00  0.00    -0.002 A 
HETATM   17  C   UNK     0      25.772  13.160   4.194  0.00  0.00     0.004 A 
BRANCH  15  18
HETATM   18  C   UNK     0      24.093  11.802   7.299  0.00  0.00     0.277 C 
BRANCH  18  19
HETATM   19  N   UNK     0      25.329  11.755   8.079  0.00  0.00     0.146 N 
HETATM   20  C   UNK     0      25.465  10.463   8.761  0.00  0.00     0.286 C 
HETATM   21  C   UNK     0      26.760  10.413   9.580  0.00  0.00     0.286 C 
HETATM   22  N   UNK     0      26.808  11.512  10.551  0.00  0.00     0.143 N 
HETATM   23  C   UNK     0      26.670  12.806   9.869  0.00  0.00     0.286 C 
HETATM   24  C   UNK     0      28.044  11.465  11.328  0.00  0.00     0.285 C 
HETATM   25  C   UNK     0      25.375  12.855   9.049  0.00  0.00     0.286 C 
ENDBRANCH  18  19
ENDBRANCH  15  18
ENDBRANCH   9  12
ENDBRANCH   1   8
BRANCH   3  26
HETATM   26  N   UNK     0      28.959  16.636  -1.165  0.00  0.00    -0.187 N 
HETATM   27  H   UNK     0      28.707  17.524  -1.585  0.00  0.00     0.184 HD
BRANCH  26  28
HETATM   28  C   UNK     0      30.270  16.646  -0.652  0.00  0.00     0.728 A 
HETATM   29  N   UNK     0      31.123  15.728  -1.152  0.00  0.00    -0.059 NA
HETATM   30  C   UNK     0      32.370  15.766  -0.639  0.00  0.00     0.120 A 
HETATM   31  C   UNK     0      32.776  16.665   0.327  0.00  0.00     0.041 A 
HETATM   32  C   UNK     0      31.811  17.553   0.758  0.00  0.00     0.103 A 
HETATM   33  N   UNK     0      30.547  17.572   0.289  0.00  0.00    -0.061 NA
BRANCH  32  34
HETATM   34  C   UNK     0      32.106  18.543   1.765  0.00  0.00     0.037 A 
HETATM   35  C   UNK     0      31.137  18.951   2.677  0.00  0.00     0.005 A 
HETATM   36  C   UNK     0      31.451  19.907   3.636  0.00  0.00     0.021 A 
HETATM   37  C   UNK     0      32.738  20.421   3.642  0.00  0.00     0.099 A 
HETATM   38  N   UNK     0      33.706  20.051   2.774  0.00  0.00    -0.242 NA
HETATM   39  C   UNK     0      33.364  19.119   1.856  0.00  0.00     0.100 A 
ENDBRANCH  32  34
ENDBRANCH  26  28
ENDBRANCH   3  26
TORSDOF 7
ENDMDL
MODEL 3
REMARK VINA RESULT:      -9.0      1.212      1.646
REMARK  7 active torsions:
REMARK  status: ('A' for Active; 'I' for Inactive)
REMARK    1  A    between atoms: N_2  and  C_19 
REMARK       I    between atoms: N_2  and  C_3 
REMARK    2  A    between atoms: C_3  and  C_5 
REMARK    3  A    between atoms: C_8  and  C_11 
REMARK    4  A    between atoms: C_11  and  N_12 
REMARK    5  A    between atoms: C_21  and  N_26 
REMARK    6  A    between atoms: N_26  and  C_28 
REMARK    7  A    between atoms: C_30  and  C_34 
ROOT
HETATM    1  C   UNK     0      25.308  11.958   4.189  0.00  0.00     0.060 A 
HETATM    2  C   UNK     0      25.252  12.090   5.566  0.00  0.00     0.034 A 
HETATM    3  C   UNK     0      24.443  11.225   6.301  0.00  0.00     0.071 A 
HETATM    4  C   UNK     0      23.701  10.240   5.647  0.00  0.00    -0.006 A 
HETATM    5  C   UNK     0      23.769  10.121   4.260  0.00  0.00    -0.001 A 
HETATM    6  C   UNK     0      22.826   9.299   6.410  0.00  0.00     0.033 C 
HETATM    7  C   UNK     0      24.578  10.987   3.525  0.00  0.00     0.017 A 
ENDROOT
BRANCH   1   8
HETATM    8  N   UNK     0      26.129  12.838   3.442  0.00  0.00    -0.321 N 
HETATM    9  C   UNK     0      25.748  13.948   2.675  0.00  0.00     0.258 C 
HETATM   10  O   UNK     0      24.581  14.346   2.527  0.00  0.00    -0.267 OA
HETATM   11  H   UNK     0      27.121  12.630   3.526  0.00  0.00     0.169 HD
BRANCH   9  12
HETATM   12  C   UNK     0      26.826  14.648   1.994  0.00  0.00     0.056 A 
HETATM   13  C   UNK     0      27.948  15.067   2.708  0.00  0.00     0.004 A 
HETATM   14  C   UNK     0      28.981  15.739   2.055  0.00  0.00    -0.002 A 
HETATM   15  C   UNK     0      28.880  15.987   0.693  0.00  0.00     0.011 A 
HETATM   16  C   UNK     0      27.768  15.575  -0.028  0.00  0.00    -0.002 A 
HETATM   17  C   UNK     0      26.736  14.903   0.625  0.00  0.00     0.004 A 
BRANCH  15  18
HETATM   18  C   UNK     0      29.995  16.712  -0.013  0.00  0.00     0.277 C 
BRANCH  18  19
HETATM   19  N   UNK     0      30.931  17.322   0.930  0.00  0.00     0.146 N 
HETATM   20  C   UNK     0      30.437  18.626   1.385  0.00  0.00     0.286 C 
HETATM   21  C   UNK     0      31.419  19.267   2.373  0.00  0.00     0.286 C 
HETATM   22  N   UNK     0      32.750  19.406   1.771  0.00  0.00     0.143 N 
HETATM   23  C   UNK     0      33.245  18.101   1.314  0.00  0.00     0.286 C 
HETATM   24  C   UNK     0      33.685  20.013   2.715  0.00  0.00     0.285 C 
HETATM   25  C   UNK     0      32.262  17.460   0.327  0.00  0.00     0.286 C 
ENDBRANCH  18  19
ENDBRANCH  15  18
ENDBRANCH   9  12
ENDBRANCH   1   8
BRANCH   3  26
HETATM   26  N   UNK     0      24.384  11.358   7.706  0.00  0.00    -0.187 N 
HETATM   27  H   UNK     0      23.661  11.982   8.048  0.00  0.00     0.184 HD
BRANCH  26  28
HETATM   28  C   UNK     0      25.061  10.706   8.753  0.00  0.00     0.728 A 
HETATM   29  N   UNK     0      24.408   9.693   9.359  0.00  0.00    -0.059 NA
HETATM   30  C   UNK     0      25.086   9.089  10.357  0.00  0.00     0.120 A 
HETATM   31  C   UNK     0      26.356   9.457  10.753  0.00  0.00     0.041 A 
HETATM   32  C   UNK     0      26.919  10.506  10.055  0.00  0.00     0.103 A 
HETATM   33  N   UNK     0      26.299  11.154   9.048  0.00  0.00    -0.061 NA
BRANCH  32  34
HETATM   34  C   UNK     0      28.242  10.988  10.371  0.00  0.00     0.037 A 
HETATM   35  C   UNK     0      28.610  11.266  11.684  0.00  0.00     0.005 A 
HETATM   36  C   UNK     0      29.892  11.729  11.957  0.00  0.00     0.021 A 
HETATM   37  C   UNK     0      30.762  11.898  10.892  0.00  0.00     0.099 A 
HETATM   38  N   UNK     0      30.441  11.639   9.604  0.00  0.00    -0.242 NA
HETATM   39  C   UNK     0      29.186  11.190   9.377  0.00  0.00     0.100 A 
ENDBRANCH  32  34
ENDBRANCH  26  28
ENDBRANCH   3  26
TORSDOF 7
ENDMDL
