MODEL 1
REMARK VINA RESULT:     -10.3      0.000      0.000
REMARK  7 active torsions:
REMARK  status: ('A' for Active; 'I' for Inactive)
REMARK    1  A    between atoms: N_2  and  C_19 
REMARK       I    between atoms: N_2  and  C_3 
REMARK    2  A    between atoms: C_3  and  C_5 
REMARK    3  A    between atoms: C_8  and  C_11 
REMARK    4  A    between atoms: C_11  and  N_12 
REMARK    5  A    between atoms: C_21  and  N_26 
REMARK    6  A    between atoms: N_26  and  C_28 
REMARK    7  A    between atoms: C_30  and  C_34 
ROOT
HETATM    1  C   UNK     0      13.894  53.144  23.996  0.00  0.00     0.060 A 
HETATM    2  C   UNK     0      15.276  53.092  23.914  0.00  0.00     0.034 A 
HETATM    3  C   UNK     0      16.039  53.568  24.980  0.00  0.00     0.071 A 
HETATM    4  C   UNK     0      15.410  54.087  26.112  0.00  0.00    -0.006 A 
HETATM    5  C   UNK     0      14.018  54.131  26.177  0.00  0.00    -0.001 A 
HETATM    6  C   UNK     0      16.203  54.602  27.269  0.00  0.00     0.033 C 
HETATM    7  C   UNK     0      13.254  53.656  25.111  0.00  0.00     0.017 A 
ENDROOT
BRANCH   1   8
HETATM    8  N   UNK     0      13.119  52.663  22.913  0.00  0.00    -0.321 N 
HETATM    9  C   UNK     0      12.954  51.340  22.476  0.00  0.00     0.258 C 
HETATM   10  O   UNK     0      13.488  50.346  22.996  0.00  0.00    -0.267 OA
HETATM   11  H   UNK     0      12.599  53.394  22.435  0.00  0.00     0.169 HD
BRANCH   9  12
HETATM   12  C   UNK     0      12.109  51.159  21.307  0.00  0.00     0.056 A 
HETATM   13  C   UNK     0      11.549  52.266  20.671  0.00  0.00     0.004 A 
HETATM   14  C   UNK     0      10.737  52.092  19.551  0.00  0.00    -0.002 A 
HETATM   15  C   UNK     0      10.493  50.811  19.078  0.00  0.00     0.011 A 
HETATM   16  C   UNK     0      11.044  49.700  19.702  0.00  0.00    -0.002 A 
HETATM   17  C   UNK     0      11.856  49.875  20.823  0.00  0.00     0.004 A 
BRANCH  15  18
HETATM   18  C   UNK     0       9.617  50.621  17.868  0.00  0.00     0.277 C 
BRANCH  18  19
HETATM   19  N   UNK     0       8.277  51.170  18.074  0.00  0.00     0.146 N 
HETATM   20  C   UNK     0       7.532  50.371  19.054  0.00  0.00     0.286 C 
HETATM   21  C   UNK     0       6.127  50.945  19.269  0.00  0.00     0.286 C 
HETATM   22  N   UNK     0       5.391  51.018  18.001  0.00  0.00     0.143 N 
HETATM   23  C   UNK     0       6.137  51.816  17.020  0.00  0.00     0.286 C 
HETATM   24  C   UNK     0       4.054  51.568  18.208  0.00  0.00     0.285 C 
HETATM   25  C   UNK     0       7.543  51.242  16.806  0.00  0.00     0.286 C 
ENDBRANCH  18  19
ENDBRANCH  15  18
ENDBRANCH   9  12
ENDBRANCH   1   8
BRANCH   3  26
HETATM   26  N   UNK     0      17.448  53.517  24.898  0.00  0.00    -0.187 N 
HETATM   27  H   UNK     0      17.864  52.641  25.194  0.00  0.00     0.184 HD
BRANCH  26  28
HETATM   28  C   UNK     0      18.404  54.407  24.374  0.00  0.00     0.728 A 
HETATM   29  N   UNK     0      19.548  53.865  23.910  0.00  0.00    -0.059 NA
HETATM   30  C   UNK     0      20.441  54.747  23.415  0.00  0.00     0.120 A 
HETATM   31  C   UNK     0      20.229  56.111  23.372  0.00  0.00     0.041 A 
HETATM   32  C   UNK     0      19.019  56.543  23.876  0.00  0.00     0.103 A 
HETATM   33  N   UNK     0      18.082  55.718  24.386  0.00  0.00    -0.061 NA
BRANCH  32  34
HETATM   34  C   UNK     0      18.675  57.944  23.891  0.00  0.00     0.037 A 
HETATM   35  C   UNK     0      18.183  58.575  22.752  0.00  0.00     0.005 A 
HETATM   36  C   UNK     0      17.860  59.926  22.797  0.00  0.00     0.021 A 
HETATM   37  C   UNK     0      18.047  60.598  23.994  0.00  0.00     0.099 A 
HETATM   38  N   UNK     0      18.523  60.022  25.120  0.00  0.00    -0.242 NA
HETATM   39  C   UNK     0      18.826  58.706  25.038  0.00  0.00     0.100 A 
ENDBRANCH  32  34
ENDBRANCH  26  28
ENDBRANCH   3  26
TORSDOF 7
ENDMDL
MODEL 2
REMARK VINA RESULT:      -9.2      6.386     13.611
REMARK  7 active torsions:
REMARK  status: ('A' for Active; 'I' for Inactive)
REMARK    1  A    between atoms: N_2  and  C_19 
REMARK       I    between atoms: N_2  and  C_3 
REMARK    2  A    between atoms: C_3  and  C_5 
REMARK    3  A    between atoms: C_8  and  C_11 
REMARK    4  A    between atoms: C_11  and  N_12 
REMARK    5  A    between atoms: C_21  and  N_26 
REMARK    6  A    between atoms: N_26  and  C_28 
REMARK    7  A    between atoms: C_30  and  C_34 
ROOT
HETATM    1  C   UNK     0      20.598  58.436  26.048  0.00  0.00     0.060 A 
HETATM    2  C   UNK     0      20.587  57.158  25.514  0.00  0.00     0.034 A 
HETATM    3  C   UNK     0      21.130  56.945  24.248  0.00  0.00     0.071 A 
HETATM    4  C   UNK     0      21.676  58.011  23.534  0.00  0.00    -0.006 A 
HETATM    5  C   UNK     0      21.680  59.291  24.087  0.00  0.00    -0.001 A 
HETATM    6  C   UNK     0      22.266  57.810  22.176  0.00  0.00     0.033 C 
HETATM    7  C   UNK     0      21.136  59.505  25.353  0.00  0.00     0.017 A 
ENDROOT
BRANCH   1   8
HETATM    8  N   UNK     0      20.046  58.654  27.333  0.00  0.00    -0.321 N 
HETATM    9  C   UNK     0      20.715  58.868  28.547  0.00  0.00     0.258 C 
HETATM   10  O   UNK     0      21.949  58.900  28.684  0.00  0.00    -0.267 OA
HETATM   11  H   UNK     0      19.029  58.690  27.333  0.00  0.00     0.169 HD
BRANCH   9  12
HETATM   12  C   UNK     0      19.869  59.035  29.717  0.00  0.00     0.056 A 
HETATM   13  C   UNK     0      19.507  57.926  30.482  0.00  0.00     0.004 A 
HETATM   14  C   UNK     0      18.693  58.085  31.603  0.00  0.00    -0.002 A 
HETATM   15  C   UNK     0      18.250  59.353  31.949  0.00  0.00     0.011 A 
HETATM   16  C   UNK     0      18.602  60.465  31.196  0.00  0.00    -0.002 A 
HETATM   17  C   UNK     0      19.416  60.305  30.075  0.00  0.00     0.004 A 
BRANCH  15  18
HETATM   18  C   UNK     0      17.372  59.527  33.160  0.00  0.00     0.277 C 
BRANCH  18  19
HETATM   19  N   UNK     0      18.103  59.282  34.403  0.00  0.00     0.146 N 
HETATM   20  C   UNK     0      17.295  58.487  35.335  0.00  0.00     0.286 C 
HETATM   21  C   UNK     0      18.062  58.231  36.638  0.00  0.00     0.286 C 
HETATM   22  N   UNK     0      18.469  59.495  37.263  0.00  0.00     0.143 N 
HETATM   23  C   UNK     0      19.276  60.292  36.329  0.00  0.00     0.286 C 
HETATM   24  C   UNK     0      19.201  59.249  38.502  0.00  0.00     0.285 C 
HETATM   25  C   UNK     0      18.510  60.547  35.026  0.00  0.00     0.286 C 
ENDBRANCH  18  19
ENDBRANCH  15  18
ENDBRANCH   9  12
ENDBRANCH   1   8
BRANCH   3  26
HETATM   26  N   UNK     0      21.118  55.642  23.701  0.00  0.00    -0.187 N 
HETATM   27  H   UNK     0      22.015  55.308  23.367  0.00  0.00     0.184 HD
BRANCH  26  28
HETATM   28  C   UNK     0      20.122  54.650  23.627  0.00  0.00     0.728 A 
HETATM   29  N   UNK     0      20.505  53.438  23.178  0.00  0.00    -0.059 NA
HETATM   30  C   UNK     0      19.526  52.512  23.120  0.00  0.00     0.120 A 
HETATM   31  C   UNK     0      18.217  52.755  23.486  0.00  0.00     0.041 A 
HETATM   32  C   UNK     0      17.950  54.034  23.930  0.00  0.00     0.103 A 
HETATM   33  N   UNK     0      18.879  55.008  24.013  0.00  0.00    -0.061 NA
BRANCH  32  34
HETATM   34  C   UNK     0      16.621  54.418  24.341  0.00  0.00     0.037 A 
HETATM   35  C   UNK     0      16.341  55.722  24.739  0.00  0.00     0.005 A 
HETATM   36  C   UNK     0      15.051  56.061  25.130  0.00  0.00     0.021 A 
HETATM   37  C   UNK     0      14.084  55.070  25.108  0.00  0.00     0.099 A 
HETATM   38  N   UNK     0      14.317  53.793  24.728  0.00  0.00    -0.242 NA
HETATM   39  C   UNK     0      15.583  53.500  24.354  0.00  0.00     0.100 A 
ENDBRANCH  32  34
ENDBRANCH  26  28
ENDBRANCH   3  26
TORSDOF 7
ENDMDL
MODEL 3
REMARK VINA RESULT:      -9.1      3.999      5.859
REMARK  7 active torsions:
REMARK  status: ('A' for Active; 'I' for Inactive)
REMARK    1  A    between atoms: N_2  and  C_19 
REMARK       I    between atoms: N_2  and  C_3 
REMARK    2  A    between atoms: C_3  and  C_5 
REMARK    3  A    between atoms: C_8  and  C_11 
REMARK    4  A    between atoms: C_11  and  N_12 
REMARK    5  A    between atoms: C_21  and  N_26 
REMARK    6  A    between atoms: N_26  and  C_28 
REMARK    7  A    between atoms: C_30  and  C_34 
ROOT
HETATM    1  C   UNK     0      13.967  52.745  23.925  0.00  0.00     0.060 A 
HETATM    2  C   UNK     0      15.153  53.294  23.468  0.00  0.00     0.034 A 
HETATM    3  C   UNK     0      15.563  54.533  23.958  0.00  0.00     0.071 A 
HETATM    4  C   UNK     0      14.782  55.204  24.899  0.00  0.00    -0.006 A 
HETATM    5  C   UNK     0      13.591  54.637  25.348  0.00  0.00    -0.001 A 
HETATM    6  C   UNK     0      15.198  56.532  25.442  0.00  0.00     0.033 C 
HETATM    7  C   UNK     0      13.180  53.397  24.857  0.00  0.00     0.017 A 
ENDROOT
BRANCH   1   8
HETATM    8  N   UNK     0      13.549  51.487  23.426  0.00  0.00    -0.321 N 
HETATM    9  C   UNK     0      12.755  51.213  22.302  0.00  0.00     0.258 C 
HETATM   10  O   UNK     0      12.276  52.070  21.542  0.00  0.00    -0.267 OA
HETATM   11  H   UNK     0      13.922  50.702  23.952  0.00  0.00     0.169 HD
BRANCH   9  12
HETATM   12  C   UNK     0      12.469  49.809  22.055  0.00  0.00     0.056 A 
HETATM   13  C   UNK     0      13.109  48.823  22.806  0.00  0.00     0.004 A 
HETATM   14  C   UNK     0      12.836  47.476  22.567  0.00  0.00    -0.002 A 
HETATM   15  C   UNK     0      11.926  47.129  21.580  0.00  0.00     0.011 A 
HETATM   16  C   UNK     0      11.283  48.101  20.825  0.00  0.00    -0.002 A 
HETATM   17  C   UNK     0      11.556  49.447  21.064  0.00  0.00     0.004 A 
BRANCH  15  18
HETATM   18  C   UNK     0      11.630  45.675  21.322  0.00  0.00     0.277 C 
BRANCH  18  19
HETATM   19  N   UNK     0      12.762  44.818  21.673  0.00  0.00     0.146 N 
HETATM   20  C   UNK     0      13.411  44.292  20.466  0.00  0.00     0.286 C 
HETATM   21  C   UNK     0      14.597  43.393  20.834  0.00  0.00     0.286 C 
HETATM   22  N   UNK     0      14.169  42.293  21.707  0.00  0.00     0.143 N 
HETATM   23  C   UNK     0      13.518  42.819  22.913  0.00  0.00     0.286 C 
HETATM   24  C   UNK     0      15.301  41.439  22.058  0.00  0.00     0.285 C 
HETATM   25  C   UNK     0      12.333  43.719  22.546  0.00  0.00     0.286 C 
ENDBRANCH  18  19
ENDBRANCH  15  18
ENDBRANCH   9  12
ENDBRANCH   1   8
BRANCH   3  26
HETATM   26  N   UNK     0      16.773  55.095  23.492  0.00  0.00    -0.187 N 
HETATM   27  H   UNK     0      16.678  55.724  22.703  0.00  0.00     0.184 HD
BRANCH  26  28
HETATM   28  C   UNK     0      18.093  55.048  23.977  0.00  0.00     0.728 A 
HETATM   29  N   UNK     0      18.923  54.160  23.394  0.00  0.00    -0.059 NA
HETATM   30  C   UNK     0      20.180  54.143  23.882  0.00  0.00     0.120 A 
HETATM   31  C   UNK     0      20.617  54.961  24.905  0.00  0.00     0.041 A 
HETATM   32  C   UNK     0      19.674  55.827  25.420  0.00  0.00     0.103 A 
HETATM   33  N   UNK     0      18.401  55.898  24.980  0.00  0.00    -0.061 NA
BRANCH  32  34
HETATM   34  C   UNK     0      20.003  56.735  26.493  0.00  0.00     0.037 A 
HETATM   35  C   UNK     0      19.451  56.578  27.761  0.00  0.00     0.005 A 
HETATM   36  C   UNK     0      19.787  57.468  28.774  0.00  0.00     0.021 A 
HETATM   37  C   UNK     0      20.670  58.491  28.472  0.00  0.00     0.099 A 
HETATM   38  N   UNK     0      21.226  58.677  27.254  0.00  0.00    -0.242 NA
HETATM   39  C   UNK     0      20.877  57.792  26.294  0.00  0.00     0.100 A 
ENDBRANCH  32  34
ENDBRANCH  26  28
ENDBRANCH   3  26
TORSDOF 7
ENDMDL
