MODEL 1
REMARK VINA RESULT:      -8.5      0.000      0.000
REMARK  7 active torsions:
REMARK  status: ('A' for Active; 'I' for Inactive)
REMARK    1  A    between atoms: N_2  and  C_19 
REMARK       I    between atoms: N_2  and  C_3 
REMARK    2  A    between atoms: C_3  and  C_5 
REMARK    3  A    between atoms: C_8  and  C_11 
REMARK    4  A    between atoms: C_11  and  N_12 
REMARK    5  A    between atoms: C_21  and  N_26 
REMARK    6  A    between atoms: N_26  and  C_28 
REMARK    7  A    between atoms: C_30  and  C_34 
ROOT
HETATM    1  C   UNK     0      29.049  41.270  50.279  0.00  0.00     0.060 A 
HETATM    2  C   UNK     0      28.805  40.084  50.951  0.00  0.00     0.034 A 
HETATM    3  C   UNK     0      28.058  39.088  50.325  0.00  0.00     0.071 A 
HETATM    4  C   UNK     0      27.566  39.291  49.036  0.00  0.00    -0.006 A 
HETATM    5  C   UNK     0      27.821  40.490  48.373  0.00  0.00    -0.001 A 
HETATM    6  C   UNK     0      26.764  38.239  48.341  0.00  0.00     0.033 C 
HETATM    7  C   UNK     0      28.568  41.488  49.000  0.00  0.00     0.017 A 
ENDROOT
BRANCH   1   8
HETATM    8  N   UNK     0      29.807  42.283  50.915  0.00  0.00    -0.321 N 
HETATM    9  C   UNK     0      31.201  42.424  50.974  0.00  0.00     0.258 C 
HETATM   10  O   UNK     0      32.019  41.647  50.454  0.00  0.00    -0.267 OA
HETATM   11  H   UNK     0      29.233  43.006  51.343  0.00  0.00     0.169 HD
BRANCH   9  12
HETATM   12  C   UNK     0      31.692  43.564  51.732  0.00  0.00     0.056 A 
HETATM   13  C   UNK     0      31.235  44.848  51.437  0.00  0.00     0.004 A 
HETATM   14  C   UNK     0      31.707  45.942  52.162  0.00  0.00    -0.002 A 
HETATM   15  C   UNK     0      32.632  45.740  53.176  0.00  0.00     0.011 A 
HETATM   16  C   UNK     0      33.095  44.467  53.479  0.00  0.00    -0.002 A 
HETATM   17  C   UNK     0      32.623  43.373  52.753  0.00  0.00     0.004 A 
BRANCH  15  18
HETATM   18  C   UNK     0      33.141  46.919  53.961  0.00  0.00     0.277 C 
BRANCH  18  19
HETATM   19  N   UNK     0      32.288  48.095  53.794  0.00  0.00     0.146 N 
HETATM   20  C   UNK     0      33.071  49.245  53.328  0.00  0.00     0.286 C 
HETATM   21  C   UNK     0      32.177  50.478  53.153  0.00  0.00     0.286 C 
HETATM   22  N   UNK     0      31.484  50.804  54.405  0.00  0.00     0.143 N 
HETATM   23  C   UNK     0      30.701  49.652  54.873  0.00  0.00     0.286 C 
HETATM   24  C   UNK     0      30.630  51.977  54.236  0.00  0.00     0.285 C 
HETATM   25  C   UNK     0      31.596  48.419  55.046  0.00  0.00     0.286 C 
ENDBRANCH  18  19
ENDBRANCH  15  18
ENDBRANCH   9  12
ENDBRANCH   1   8
BRANCH   3  26
HETATM   26  N   UNK     0      27.808  37.878  51.011  0.00  0.00    -0.187 N 
HETATM   27  H   UNK     0      27.101  37.285  50.591  0.00  0.00     0.184 HD
BRANCH  26  28
HETATM   28  C   UNK     0      28.429  37.263  52.113  0.00  0.00     0.728 A 
HETATM   29  N   UNK     0      27.617  36.751  53.060  0.00  0.00    -0.059 NA
HETATM   30  C   UNK     0      28.245  36.168  54.102  0.00  0.00     0.120 A 
HETATM   31  C   UNK     0      29.618  36.086  54.221  0.00  0.00     0.041 A 
HETATM   32  C   UNK     0      30.341  36.646  53.187  0.00  0.00     0.103 A 
HETATM   33  N   UNK     0      29.779  37.243  52.116  0.00  0.00    -0.061 NA
BRANCH  32  34
HETATM   34  C   UNK     0      31.784  36.627  53.191  0.00  0.00     0.037 A 
HETATM   35  C   UNK     0      32.499  36.135  52.103  0.00  0.00     0.005 A 
HETATM   36  C   UNK     0      33.888  36.130  52.135  0.00  0.00     0.021 A 
HETATM   37  C   UNK     0      34.512  36.623  53.270  0.00  0.00     0.099 A 
HETATM   38  N   UNK     0      33.853  37.108  54.346  0.00  0.00    -0.242 NA
HETATM   39  C   UNK     0      32.503  37.097  54.278  0.00  0.00     0.100 A 
ENDBRANCH  32  34
ENDBRANCH  26  28
ENDBRANCH   3  26
TORSDOF 7
ENDMDL
MODEL 2
REMARK VINA RESULT:      -8.3     20.109     24.814
REMARK  7 active torsions:
REMARK  status: ('A' for Active; 'I' for Inactive)
REMARK    1  A    between atoms: N_2  and  C_19 
REMARK       I    between atoms: N_2  and  C_3 
REMARK    2  A    between atoms: C_3  and  C_5 
REMARK    3  A    between atoms: C_8  and  C_11 
REMARK    4  A    between atoms: C_11  and  N_12 
REMARK    5  A    between atoms: C_21  and  N_26 
REMARK    6  A    between atoms: N_26  and  C_28 
REMARK    7  A    between atoms: C_30  and  C_34 
ROOT
HETATM    1  C   UNK     0      47.061  31.837  37.726  0.00  0.00     0.060 A 
HETATM    2  C   UNK     0      46.065  32.767  37.485  0.00  0.00     0.034 A 
HETATM    3  C   UNK     0      46.409  34.013  36.962  0.00  0.00     0.071 A 
HETATM    4  C   UNK     0      47.744  34.309  36.687  0.00  0.00    -0.006 A 
HETATM    5  C   UNK     0      48.734  33.360  36.936  0.00  0.00    -0.001 A 
HETATM    6  C   UNK     0      48.141  35.636  36.125  0.00  0.00     0.033 C 
HETATM    7  C   UNK     0      48.390  32.114  37.460  0.00  0.00     0.017 A 
ENDROOT
BRANCH   1   8
HETATM    8  N   UNK     0      46.712  30.572  38.259  0.00  0.00    -0.321 N 
HETATM    9  C   UNK     0      45.544  29.825  38.042  0.00  0.00     0.258 C 
HETATM   10  O   UNK     0      44.598  30.176  37.319  0.00  0.00    -0.267 OA
HETATM   11  H   UNK     0      47.440  30.165  38.840  0.00  0.00     0.169 HD
BRANCH   9  12
HETATM   12  C   UNK     0      45.458  28.561  38.756  0.00  0.00     0.056 A 
HETATM   13  C   UNK     0      45.518  28.540  40.149  0.00  0.00     0.004 A 
HETATM   14  C   UNK     0      45.438  27.328  40.833  0.00  0.00    -0.002 A 
HETATM   15  C   UNK     0      45.298  26.147  40.117  0.00  0.00     0.011 A 
HETATM   16  C   UNK     0      45.238  26.155  38.731  0.00  0.00    -0.002 A 
HETATM   17  C   UNK     0      45.319  27.368  38.046  0.00  0.00     0.004 A 
BRANCH  15  18
HETATM   18  C   UNK     0      45.210  24.838  40.855  0.00  0.00     0.277 C 
BRANCH  18  19
HETATM   19  N   UNK     0      43.847  24.310  40.867  0.00  0.00     0.146 N 
HETATM   20  C   UNK     0      43.191  24.591  42.150  0.00  0.00     0.286 C 
HETATM   21  C   UNK     0      41.761  24.037  42.163  0.00  0.00     0.286 C 
HETATM   22  N   UNK     0      41.757  22.595  41.891  0.00  0.00     0.143 N 
HETATM   23  C   UNK     0      42.415  22.313  40.609  0.00  0.00     0.286 C 
HETATM   24  C   UNK     0      40.394  22.069  41.902  0.00  0.00     0.285 C 
HETATM   25  C   UNK     0      43.844  22.868  40.595  0.00  0.00     0.286 C 
ENDBRANCH  18  19
ENDBRANCH  15  18
ENDBRANCH   9  12
ENDBRANCH   1   8
BRANCH   3  26
HETATM   26  N   UNK     0      45.394  34.964  36.716  0.00  0.00    -0.187 N 
HETATM   27  H   UNK     0      45.634  35.685  36.044  0.00  0.00     0.184 HD
BRANCH  26  28
HETATM   28  C   UNK     0      44.053  35.054  37.133  0.00  0.00     0.728 A 
HETATM   29  N   UNK     0      43.819  35.714  38.286  0.00  0.00    -0.059 NA
HETATM   30  C   UNK     0      42.524  35.782  38.656  0.00  0.00     0.120 A 
HETATM   31  C   UNK     0      41.489  35.227  37.930  0.00  0.00     0.041 A 
HETATM   32  C   UNK     0      41.855  34.578  36.769  0.00  0.00     0.103 A 
HETATM   33  N   UNK     0      43.129  34.473  36.339  0.00  0.00    -0.061 NA
BRANCH  32  34
HETATM   34  C   UNK     0      40.869  33.954  35.920  0.00  0.00     0.037 A 
HETATM   35  C   UNK     0      39.524  33.932  36.278  0.00  0.00     0.005 A 
HETATM   36  C   UNK     0      38.598  33.323  35.439  0.00  0.00     0.021 A 
HETATM   37  C   UNK     0      39.061  32.755  34.264  0.00  0.00     0.099 A 
HETATM   38  N   UNK     0      40.358  32.757  33.882  0.00  0.00    -0.242 NA
HETATM   39  C   UNK     0      41.230  33.358  34.722  0.00  0.00     0.100 A 
ENDBRANCH  32  34
ENDBRANCH  26  28
ENDBRANCH   3  26
TORSDOF 7
ENDMDL
MODEL 3
REMARK VINA RESULT:      -8.2      6.120      7.345
REMARK  7 active torsions:
REMARK  status: ('A' for Active; 'I' for Inactive)
REMARK    1  A    between atoms: N_2  and  C_19 
REMARK       I    between atoms: N_2  and  C_3 
REMARK    2  A    between atoms: C_3  and  C_5 
REMARK    3  A    between atoms: C_8  and  C_11 
REMARK    4  A    between atoms: C_11  and  N_12 
REMARK    5  A    between atoms: C_21  and  N_26 
REMARK    6  A    between atoms: N_26  and  C_28 
REMARK    7  A    between atoms: C_30  and  C_34 
ROOT
HETATM    1  C   UNK     0      23.494  38.036  53.611  0.00  0.00     0.060 A 
HETATM    2  C   UNK     0      24.662  37.294  53.587  0.00  0.00     0.034 A 
HETATM    3  C   UNK     0      24.592  35.919  53.367  0.00  0.00     0.071 A 
HETATM    4  C   UNK     0      23.353  35.307  53.173  0.00  0.00    -0.006 A 
HETATM    5  C   UNK     0      22.186  36.070  53.198  0.00  0.00    -0.001 A 
HETATM    6  C   UNK     0      23.248  33.836  52.933  0.00  0.00     0.033 C 
HETATM    7  C   UNK     0      22.257  37.445  53.420  0.00  0.00     0.017 A 
ENDROOT
BRANCH   1   8
HETATM    8  N   UNK     0      23.566  39.433  53.836  0.00  0.00    -0.321 N 
HETATM    9  C   UNK     0      23.502  40.473  52.897  0.00  0.00     0.258 C 
HETATM   10  O   UNK     0      23.368  40.321  51.672  0.00  0.00    -0.267 OA
HETATM   11  H   UNK     0      23.635  39.678  54.820  0.00  0.00     0.169 HD
BRANCH   9  12
HETATM   12  C   UNK     0      23.634  41.819  53.432  0.00  0.00     0.056 A 
HETATM   13  C   UNK     0      23.479  42.922  52.593  0.00  0.00     0.004 A 
HETATM   14  C   UNK     0      23.606  44.213  53.106  0.00  0.00    -0.002 A 
HETATM   15  C   UNK     0      23.888  44.387  54.454  0.00  0.00     0.011 A 
HETATM   16  C   UNK     0      24.046  43.297  55.298  0.00  0.00    -0.002 A 
HETATM   17  C   UNK     0      23.918  42.006  54.785  0.00  0.00     0.004 A 
BRANCH  15  18
HETATM   18  C   UNK     0      24.026  45.780  55.009  0.00  0.00     0.277 C 
BRANCH  18  19
HETATM   19  N   UNK     0      22.731  46.451  55.123  0.00  0.00     0.146 N 
HETATM   20  C   UNK     0      22.898  47.909  55.113  0.00  0.00     0.286 C 
HETATM   21  C   UNK     0      21.541  48.613  55.233  0.00  0.00     0.286 C 
HETATM   22  N   UNK     0      20.837  48.186  56.448  0.00  0.00     0.143 N 
HETATM   23  C   UNK     0      20.672  46.727  56.460  0.00  0.00     0.286 C 
HETATM   24  C   UNK     0      19.543  48.855  56.560  0.00  0.00     0.285 C 
HETATM   25  C   UNK     0      22.028  46.023  56.338  0.00  0.00     0.286 C 
ENDBRANCH  18  19
ENDBRANCH  15  18
ENDBRANCH   9  12
ENDBRANCH   1   8
BRANCH   3  26
HETATM   26  N   UNK     0      25.783  35.160  53.344  0.00  0.00    -0.187 N 
HETATM   27  H   UNK     0      25.784  34.344  53.947  0.00  0.00     0.184 HD
BRANCH  26  28
HETATM   28  C   UNK     0      26.948  35.241  52.559  0.00  0.00     0.728 A 
HETATM   29  N   UNK     0      26.843  34.839  51.276  0.00  0.00    -0.059 NA
HETATM   30  C   UNK     0      27.978  34.931  50.552  0.00  0.00     0.120 A 
HETATM   31  C   UNK     0      29.175  35.397  51.058  0.00  0.00     0.041 A 
HETATM   32  C   UNK     0      29.154  35.779  52.384  0.00  0.00     0.103 A 
HETATM   33  N   UNK     0      28.057  35.715  53.165  0.00  0.00    -0.061 NA
BRANCH  32  34
HETATM   34  C   UNK     0      30.340  36.284  53.033  0.00  0.00     0.037 A 
HETATM   35  C   UNK     0      31.436  36.714  52.292  0.00  0.00     0.005 A 
HETATM   36  C   UNK     0      32.564  37.195  52.946  0.00  0.00     0.021 A 
HETATM   37  C   UNK     0      32.548  37.226  54.331  0.00  0.00     0.099 A 
HETATM   38  N   UNK     0      31.503  36.817  55.085  0.00  0.00    -0.242 NA
HETATM   39  C   UNK     0      30.423  36.356  54.414  0.00  0.00     0.100 A 
ENDBRANCH  32  34
ENDBRANCH  26  28
ENDBRANCH   3  26
TORSDOF 7
ENDMDL
