MODEL 1
REMARK VINA RESULT:      -9.7      0.000      0.000
REMARK  7 active torsions:
REMARK  status: ('A' for Active; 'I' for Inactive)
REMARK    1  A    between atoms: N_2  and  C_19 
REMARK       I    between atoms: N_2  and  C_3 
REMARK    2  A    between atoms: C_3  and  C_5 
REMARK    3  A    between atoms: C_8  and  C_11 
REMARK    4  A    between atoms: C_11  and  N_12 
REMARK    5  A    between atoms: C_21  and  N_26 
REMARK    6  A    between atoms: N_26  and  C_28 
REMARK    7  A    between atoms: C_30  and  C_34 
ROOT
HETATM    1  C   UNK     0     -20.100 -48.170  27.773  0.00  0.00     0.060 A 
HETATM    2  C   UNK     0     -20.309 -47.773  26.463  0.00  0.00     0.034 A 
HETATM    3  C   UNK     0     -21.282 -46.813  26.190  0.00  0.00     0.071 A 
HETATM    4  C   UNK     0     -22.031 -46.263  27.230  0.00  0.00    -0.006 A 
HETATM    5  C   UNK     0     -21.807 -46.673  28.543  0.00  0.00    -0.001 A 
HETATM    6  C   UNK     0     -23.079 -45.231  26.966  0.00  0.00     0.033 C 
HETATM    7  C   UNK     0     -20.834 -47.635  28.817  0.00  0.00     0.017 A 
ENDROOT
BRANCH   1   8
HETATM    8  N   UNK     0     -19.113 -49.146  28.051  0.00  0.00    -0.321 N 
HETATM    9  C   UNK     0     -19.283 -50.520  28.279  0.00  0.00     0.258 C 
HETATM   10  O   UNK     0     -20.373 -51.114  28.272  0.00  0.00    -0.267 OA
HETATM   11  H   UNK     0     -18.166 -48.776  28.040  0.00  0.00     0.169 HD
BRANCH   9  12
HETATM   12  C   UNK     0     -18.071 -51.269  28.569  0.00  0.00     0.056 A 
HETATM   13  C   UNK     0     -17.052 -50.686  29.323  0.00  0.00     0.004 A 
HETATM   14  C   UNK     0     -15.889 -51.405  29.599  0.00  0.00    -0.002 A 
HETATM   15  C   UNK     0     -15.756 -52.699  29.117  0.00  0.00     0.011 A 
HETATM   16  C   UNK     0     -16.761 -53.290  28.365  0.00  0.00    -0.002 A 
HETATM   17  C   UNK     0     -17.925 -52.572  28.089  0.00  0.00     0.004 A 
BRANCH  15  18
HETATM   18  C   UNK     0     -14.501 -53.475  29.415  0.00  0.00     0.277 C 
BRANCH  18  19
HETATM   19  N   UNK     0     -14.229 -54.485  28.393  0.00  0.00     0.146 N 
HETATM   20  C   UNK     0     -14.131 -55.821  28.994  0.00  0.00     0.286 C 
HETATM   21  C   UNK     0     -13.845 -56.880  27.923  0.00  0.00     0.286 C 
HETATM   22  N   UNK     0     -12.618 -56.559  27.184  0.00  0.00     0.143 N 
HETATM   23  C   UNK     0     -12.715 -55.222  26.584  0.00  0.00     0.286 C 
HETATM   24  C   UNK     0     -12.349 -57.568  26.162  0.00  0.00     0.285 C 
HETATM   25  C   UNK     0     -13.002 -54.163  27.656  0.00  0.00     0.286 C 
ENDBRANCH  18  19
ENDBRANCH  15  18
ENDBRANCH   9  12
ENDBRANCH   1   8
BRANCH   3  26
HETATM   26  N   UNK     0     -21.498 -46.408  24.853  0.00  0.00    -0.187 N 
HETATM   27  H   UNK     0     -22.275 -46.862  24.387  0.00  0.00     0.184 HD
BRANCH  26  28
HETATM   28  C   UNK     0     -20.916 -45.403  24.058  0.00  0.00     0.728 A 
HETATM   29  N   UNK     0     -20.148 -45.814  23.028  0.00  0.00    -0.059 NA
HETATM   30  C   UNK     0     -19.607 -44.825  22.287  0.00  0.00     0.120 A 
HETATM   31  C   UNK     0     -19.805 -43.482  22.537  0.00  0.00     0.041 A 
HETATM   32  C   UNK     0     -20.611 -43.189  23.618  0.00  0.00     0.103 A 
HETATM   33  N   UNK     0     -21.184 -44.126  24.401  0.00  0.00    -0.061 NA
BRANCH  32  34
HETATM   34  C   UNK     0     -20.897 -41.824  23.987  0.00  0.00     0.037 A 
HETATM   35  C   UNK     0     -21.302 -41.498  25.278  0.00  0.00     0.005 A 
HETATM   36  C   UNK     0     -21.570 -40.174  25.604  0.00  0.00     0.021 A 
HETATM   37  C   UNK     0     -21.421 -39.219  24.611  0.00  0.00     0.099 A 
HETATM   38  N   UNK     0     -21.031 -39.495  23.347  0.00  0.00    -0.242 NA
HETATM   39  C   UNK     0     -20.778 -40.794  23.067  0.00  0.00     0.100 A 
ENDBRANCH  32  34
ENDBRANCH  26  28
ENDBRANCH   3  26
TORSDOF 7
ENDMDL
MODEL 2
REMARK VINA RESULT:      -9.6      5.318      8.297
REMARK  7 active torsions:
REMARK  status: ('A' for Active; 'I' for Inactive)
REMARK    1  A    between atoms: N_2  and  C_19 
REMARK       I    between atoms: N_2  and  C_3 
REMARK    2  A    between atoms: C_3  and  C_5 
REMARK    3  A    between atoms: C_8  and  C_11 
REMARK    4  A    between atoms: C_11  and  N_12 
REMARK    5  A    between atoms: C_21  and  N_26 
REMARK    6  A    between atoms: N_26  and  C_28 
REMARK    7  A    between atoms: C_30  and  C_34 
ROOT
HETATM    1  C   UNK     0     -19.955 -47.790  25.516  0.00  0.00     0.060 A 
HETATM    2  C   UNK     0     -20.895 -46.807  25.777  0.00  0.00     0.034 A 
HETATM    3  C   UNK     0     -21.758 -46.961  26.861  0.00  0.00     0.071 A 
HETATM    4  C   UNK     0     -21.668 -48.095  27.669  0.00  0.00    -0.006 A 
HETATM    5  C   UNK     0     -20.716 -49.074  27.392  0.00  0.00    -0.001 A 
HETATM    6  C   UNK     0     -22.579 -48.285  28.838  0.00  0.00     0.033 C 
HETATM    7  C   UNK     0     -19.853 -48.921  26.307  0.00  0.00     0.017 A 
ENDROOT
BRANCH   1   8
HETATM    8  N   UNK     0     -19.080 -47.634  24.414  0.00  0.00    -0.321 N 
HETATM    9  C   UNK     0     -18.447 -46.468  23.959  0.00  0.00     0.258 C 
HETATM   10  O   UNK     0     -18.565 -45.345  24.476  0.00  0.00    -0.267 OA
HETATM   11  H   UNK     0     -18.876 -48.508  23.936  0.00  0.00     0.169 HD
BRANCH   9  12
HETATM   12  C   UNK     0     -17.619 -46.617  22.773  0.00  0.00     0.056 A 
HETATM   13  C   UNK     0     -17.718 -47.769  21.993  0.00  0.00     0.004 A 
HETATM   14  C   UNK     0     -16.922 -47.913  20.857  0.00  0.00    -0.002 A 
HETATM   15  C   UNK     0     -16.035 -46.903  20.512  0.00  0.00     0.011 A 
HETATM   16  C   UNK     0     -15.927 -45.753  21.281  0.00  0.00    -0.002 A 
HETATM   17  C   UNK     0     -16.723 -45.609  22.417  0.00  0.00     0.004 A 
BRANCH  15  18
HETATM   18  C   UNK     0     -15.176 -47.057  19.285  0.00  0.00     0.277 C 
BRANCH  18  19
HETATM   19  N   UNK     0     -15.930 -46.809  18.057  0.00  0.00     0.146 N 
HETATM   20  C   UNK     0     -16.040 -48.034  17.256  0.00  0.00     0.286 C 
HETATM   21  C   UNK     0     -16.830 -47.774  15.969  0.00  0.00     0.286 C 
HETATM   22  N   UNK     0     -16.210 -46.701  15.182  0.00  0.00     0.143 N 
HETATM   23  C   UNK     0     -16.098 -45.476  15.984  0.00  0.00     0.286 C 
HETATM   24  C   UNK     0     -16.965 -46.453  13.957  0.00  0.00     0.285 C 
HETATM   25  C   UNK     0     -15.309 -45.736  17.272  0.00  0.00     0.286 C 
ENDBRANCH  18  19
ENDBRANCH  15  18
ENDBRANCH   9  12
ENDBRANCH   1   8
BRANCH   3  26
HETATM   26  N   UNK     0     -22.718 -45.960  27.128  0.00  0.00    -0.187 N 
HETATM   27  H   UNK     0     -23.676 -46.288  27.190  0.00  0.00     0.184 HD
BRANCH  26  28
HETATM   28  C   UNK     0     -22.605 -44.593  27.445  0.00  0.00     0.728 A 
HETATM   29  N   UNK     0     -22.927 -44.234  28.704  0.00  0.00    -0.059 NA
HETATM   30  C   UNK     0     -22.806 -42.917  28.973  0.00  0.00     0.120 A 
HETATM   31  C   UNK     0     -22.388 -41.981  28.050  0.00  0.00     0.041 A 
HETATM   32  C   UNK     0     -22.087 -42.472  26.795  0.00  0.00     0.103 A 
HETATM   33  N   UNK     0     -22.185 -43.775  26.458  0.00  0.00    -0.061 NA
BRANCH  32  34
HETATM   34  C   UNK     0     -21.639 -41.597  25.739  0.00  0.00     0.037 A 
HETATM   35  C   UNK     0     -21.794 -40.218  25.835  0.00  0.00     0.005 A 
HETATM   36  C   UNK     0     -21.352 -39.401  24.801  0.00  0.00     0.021 A 
HETATM   37  C   UNK     0     -20.768 -40.006  23.700  0.00  0.00     0.099 A 
HETATM   38  N   UNK     0     -20.601 -41.342  23.570  0.00  0.00    -0.242 NA
HETATM   39  C   UNK     0     -21.042 -42.104  24.596  0.00  0.00     0.100 A 
ENDBRANCH  32  34
ENDBRANCH  26  28
ENDBRANCH   3  26
TORSDOF 7
ENDMDL
MODEL 3
REMARK VINA RESULT:      -9.5      6.814     10.677
REMARK  7 active torsions:
REMARK  status: ('A' for Active; 'I' for Inactive)
REMARK    1  A    between atoms: N_2  and  C_19 
REMARK       I    between atoms: N_2  and  C_3 
REMARK    2  A    between atoms: C_3  and  C_5 
REMARK    3  A    between atoms: C_8  and  C_11 
REMARK    4  A    between atoms: C_11  and  N_12 
REMARK    5  A    between atoms: C_21  and  N_26 
REMARK    6  A    between atoms: N_26  and  C_28 
REMARK    7  A    between atoms: C_30  and  C_34 
ROOT
HETATM    1  C   UNK     0     -19.002 -48.150  19.897  0.00  0.00     0.060 A 
HETATM    2  C   UNK     0     -19.941 -47.294  20.446  0.00  0.00     0.034 A 
HETATM    3  C   UNK     0     -20.849 -47.788  21.382  0.00  0.00     0.071 A 
HETATM    4  C   UNK     0     -20.802 -49.131  21.756  0.00  0.00    -0.006 A 
HETATM    5  C   UNK     0     -19.849 -49.979  21.195  0.00  0.00    -0.001 A 
HETATM    6  C   UNK     0     -21.762 -49.687  22.758  0.00  0.00     0.033 C 
HETATM    7  C   UNK     0     -18.942 -49.485  20.257  0.00  0.00     0.017 A 
ENDROOT
BRANCH   1   8
HETATM    8  N   UNK     0     -18.081 -47.649  18.945  0.00  0.00    -0.321 N 
HETATM    9  C   UNK     0     -17.113 -46.647  19.110  0.00  0.00     0.258 C 
HETATM   10  O   UNK     0     -16.908 -46.020  20.162  0.00  0.00    -0.267 OA
HETATM   11  H   UNK     0     -18.131 -48.125  18.048  0.00  0.00     0.169 HD
BRANCH   9  12
HETATM   12  C   UNK     0     -16.326 -46.326  17.930  0.00  0.00     0.056 A 
HETATM   13  C   UNK     0     -15.174 -47.056  17.639  0.00  0.00     0.004 A 
HETATM   14  C   UNK     0     -14.418 -46.747  16.509  0.00  0.00    -0.002 A 
HETATM   15  C   UNK     0     -14.821 -45.710  15.680  0.00  0.00     0.011 A 
HETATM   16  C   UNK     0     -15.966 -44.975  15.960  0.00  0.00    -0.002 A 
HETATM   17  C   UNK     0     -16.722 -45.284  17.090  0.00  0.00     0.004 A 
BRANCH  15  18
HETATM   18  C   UNK     0     -14.007 -45.376  14.459  0.00  0.00     0.277 C 
BRANCH  18  19
HETATM   19  N   UNK     0     -14.387 -46.195  13.309  0.00  0.00     0.146 N 
HETATM   20  C   UNK     0     -15.813 -46.540  13.364  0.00  0.00     0.286 C 
HETATM   21  C   UNK     0     -16.212 -47.400  12.159  0.00  0.00     0.286 C 
HETATM   22  N   UNK     0     -15.393 -48.616  12.091  0.00  0.00     0.143 N 
HETATM   23  C   UNK     0     -13.966 -48.272  12.038  0.00  0.00     0.286 C 
HETATM   24  C   UNK     0     -15.773 -49.433  10.941  0.00  0.00     0.285 C 
HETATM   25  C   UNK     0     -13.568 -47.411  13.242  0.00  0.00     0.286 C 
ENDBRANCH  18  19
ENDBRANCH  15  18
ENDBRANCH   9  12
ENDBRANCH   1   8
BRANCH   3  26
HETATM   26  N   UNK     0     -21.809 -46.916  21.941  0.00  0.00    -0.187 N 
HETATM   27  H   UNK     0     -22.748 -47.019  21.574  0.00  0.00     0.184 HD
BRANCH  26  28
HETATM   28  C   UNK     0     -21.753 -45.995  23.003  0.00  0.00     0.728 A 
HETATM   29  N   UNK     0     -22.110 -46.450  24.222  0.00  0.00    -0.059 NA
HETATM   30  C   UNK     0     -22.043 -45.541  25.216  0.00  0.00     0.120 A 
HETATM   31  C   UNK     0     -21.644 -44.232  25.034  0.00  0.00     0.041 A 
HETATM   32  C   UNK     0     -21.303 -43.887  23.741  0.00  0.00     0.103 A 
HETATM   33  N   UNK     0     -21.345 -44.744  22.701  0.00  0.00    -0.061 NA
BRANCH  32  34
HETATM   34  C   UNK     0     -20.869 -42.550  23.417  0.00  0.00     0.037 A 
HETATM   35  C   UNK     0     -21.106 -41.487  24.283  0.00  0.00     0.005 A 
HETATM   36  C   UNK     0     -20.676 -40.210  23.943  0.00  0.00     0.021 A 
HETATM   37  C   UNK     0     -20.020 -40.047  22.733  0.00  0.00     0.099 A 
HETATM   38  N   UNK     0     -19.772 -41.053  21.865  0.00  0.00    -0.242 NA
HETATM   39  C   UNK     0     -20.204 -42.281  22.231  0.00  0.00     0.100 A 
ENDBRANCH  32  34
ENDBRANCH  26  28
ENDBRANCH   3  26
TORSDOF 7
ENDMDL
