MODEL 1
REMARK VINA RESULT:     -11.3      0.000      0.000
REMARK  7 active torsions:
REMARK  status: ('A' for Active; 'I' for Inactive)
REMARK    1  A    between atoms: N_2  and  C_19 
REMARK       I    between atoms: N_2  and  C_3 
REMARK    2  A    between atoms: C_3  and  C_5 
REMARK    3  A    between atoms: C_8  and  C_11 
REMARK    4  A    between atoms: C_11  and  N_12 
REMARK    5  A    between atoms: C_21  and  N_26 
REMARK    6  A    between atoms: N_26  and  C_28 
REMARK    7  A    between atoms: C_30  and  C_34 
ROOT
HETATM    1  C   UNK     0     166.891  -8.701 343.141  0.00  0.00     0.060 A 
HETATM    2  C   UNK     0     166.283  -9.829 342.614  0.00  0.00     0.034 A 
HETATM    3  C   UNK     0     166.536 -11.072 343.192  0.00  0.00     0.071 A 
HETATM    4  C   UNK     0     167.392 -11.170 344.289  0.00  0.00    -0.006 A 
HETATM    5  C   UNK     0     167.995 -10.024 344.807  0.00  0.00    -0.001 A 
HETATM    6  C   UNK     0     167.680 -12.489 344.929  0.00  0.00     0.033 C 
HETATM    7  C   UNK     0     167.743  -8.781 344.228  0.00  0.00     0.017 A 
ENDROOT
BRANCH   1   8
HETATM    8  N   UNK     0     166.635  -7.439 342.553  0.00  0.00    -0.321 N 
HETATM    9  C   UNK     0     167.510  -6.623 341.819  0.00  0.00     0.258 C 
HETATM   10  O   UNK     0     168.694  -6.897 341.564  0.00  0.00    -0.267 OA
HETATM   11  H   UNK     0     165.672  -7.131 342.664  0.00  0.00     0.169 HD
BRANCH   9  12
HETATM   12  C   UNK     0     166.962  -5.357 341.362  0.00  0.00     0.056 A 
HETATM   13  C   UNK     0     167.101  -4.211 342.145  0.00  0.00     0.004 A 
HETATM   14  C   UNK     0     166.574  -2.997 341.707  0.00  0.00    -0.002 A 
HETATM   15  C   UNK     0     165.912  -2.940 340.489  0.00  0.00     0.011 A 
HETATM   16  C   UNK     0     165.767  -4.073 339.700  0.00  0.00    -0.002 A 
HETATM   17  C   UNK     0     166.294  -5.287 340.139  0.00  0.00     0.004 A 
BRANCH  15  18
HETATM   18  C   UNK     0     165.344  -1.629 340.015  0.00  0.00     0.277 C 
BRANCH  18  19
HETATM   19  N   UNK     0     163.922  -1.505 340.332  0.00  0.00     0.146 N 
HETATM   20  C   UNK     0     163.622  -2.122 341.629  0.00  0.00     0.286 C 
HETATM   21  C   UNK     0     162.131  -1.993 341.962  0.00  0.00     0.286 C 
HETATM   22  N   UNK     0     161.305  -2.593 340.907  0.00  0.00     0.143 N 
HETATM   23  C   UNK     0     161.607  -1.977 339.608  0.00  0.00     0.286 C 
HETATM   24  C   UNK     0     159.885  -2.467 341.224  0.00  0.00     0.285 C 
HETATM   25  C   UNK     0     163.098  -2.105 339.276  0.00  0.00     0.286 C 
ENDBRANCH  18  19
ENDBRANCH  15  18
ENDBRANCH   9  12
ENDBRANCH   1   8
BRANCH   3  26
HETATM   26  N   UNK     0     165.918 -12.223 342.654  0.00  0.00    -0.187 N 
HETATM   27  H   UNK     0     166.431 -12.676 341.907  0.00  0.00     0.184 HD
BRANCH  26  28
HETATM   28  C   UNK     0     164.771 -12.948 343.026  0.00  0.00     0.728 A 
HETATM   29  N   UNK     0     164.035 -12.443 344.037  0.00  0.00    -0.059 NA
HETATM   30  C   UNK     0     162.943 -13.163 344.367  0.00  0.00     0.120 A 
HETATM   31  C   UNK     0     162.578 -14.335 343.736  0.00  0.00     0.041 A 
HETATM   32  C   UNK     0     163.411 -14.749 342.717  0.00  0.00     0.103 A 
HETATM   33  N   UNK     0     164.517 -14.079 342.334  0.00  0.00    -0.061 NA
BRANCH  32  34
HETATM   34  C   UNK     0     163.141 -15.959 341.978  0.00  0.00     0.037 A 
HETATM   35  C   UNK     0     161.903 -16.175 341.380  0.00  0.00     0.005 A 
HETATM   36  C   UNK     0     161.673 -17.350 340.675  0.00  0.00     0.021 A 
HETATM   37  C   UNK     0     162.705 -18.272 340.597  0.00  0.00     0.099 A 
HETATM   38  N   UNK     0     163.920 -18.099 341.163  0.00  0.00    -0.242 NA
HETATM   39  C   UNK     0     164.106 -16.944 341.841  0.00  0.00     0.100 A 
ENDBRANCH  32  34
ENDBRANCH  26  28
ENDBRANCH   3  26
TORSDOF 7
ENDMDL
MODEL 2
REMARK VINA RESULT:     -11.2      2.672     11.801
REMARK  7 active torsions:
REMARK  status: ('A' for Active; 'I' for Inactive)
REMARK    1  A    between atoms: N_2  and  C_19 
REMARK       I    between atoms: N_2  and  C_3 
REMARK    2  A    between atoms: C_3  and  C_5 
REMARK    3  A    between atoms: C_8  and  C_11 
REMARK    4  A    between atoms: C_11  and  N_12 
REMARK    5  A    between atoms: C_21  and  N_26 
REMARK    6  A    between atoms: N_26  and  C_28 
REMARK    7  A    between atoms: C_30  and  C_34 
ROOT
HETATM    1  C   UNK     0     165.641 -12.767 343.429  0.00  0.00     0.060 A 
HETATM    2  C   UNK     0     165.274 -11.495 343.021  0.00  0.00     0.034 A 
HETATM    3  C   UNK     0     166.002 -10.397 343.477  0.00  0.00     0.071 A 
HETATM    4  C   UNK     0     167.086 -10.587 344.334  0.00  0.00    -0.006 A 
HETATM    5  C   UNK     0     167.443 -11.874 344.734  0.00  0.00    -0.001 A 
HETATM    6  C   UNK     0     167.885  -9.428 344.837  0.00  0.00     0.033 C 
HETATM    7  C   UNK     0     166.714 -12.972 344.278  0.00  0.00     0.017 A 
ENDROOT
BRANCH   1   8
HETATM    8  N   UNK     0     164.901 -13.882 342.966  0.00  0.00    -0.321 N 
HETATM    9  C   UNK     0     165.048 -14.591 341.765  0.00  0.00     0.258 C 
HETATM   10  O   UNK     0     165.887 -14.337 340.886  0.00  0.00    -0.267 OA
HETATM   11  H   UNK     0     164.205 -14.207 343.633  0.00  0.00     0.169 HD
BRANCH   9  12
HETATM   12  C   UNK     0     164.113 -15.685 341.555  0.00  0.00     0.056 A 
HETATM   13  C   UNK     0     164.570 -17.002 341.547  0.00  0.00     0.004 A 
HETATM   14  C   UNK     0     163.673 -18.051 341.344  0.00  0.00    -0.002 A 
HETATM   15  C   UNK     0     162.328 -17.771 341.151  0.00  0.00     0.011 A 
HETATM   16  C   UNK     0     161.861 -16.464 341.157  0.00  0.00    -0.002 A 
HETATM   17  C   UNK     0     162.758 -15.415 341.360  0.00  0.00     0.004 A 
BRANCH  15  18
HETATM   18  C   UNK     0     161.358 -18.902 340.933  0.00  0.00     0.277 C 
BRANCH  18  19
HETATM   19  N   UNK     0     160.191 -18.479 340.161  0.00  0.00     0.146 N 
HETATM   20  C   UNK     0     158.951 -18.942 340.794  0.00  0.00     0.286 C 
HETATM   21  C   UNK     0     157.727 -18.498 339.985  0.00  0.00     0.286 C 
HETATM   22  N   UNK     0     157.809 -18.986 338.603  0.00  0.00     0.143 N 
HETATM   23  C   UNK     0     159.051 -18.524 337.969  0.00  0.00     0.286 C 
HETATM   24  C   UNK     0     156.644 -18.560 337.832  0.00  0.00     0.285 C 
HETATM   25  C   UNK     0     160.275 -18.967 338.779  0.00  0.00     0.286 C 
ENDBRANCH  18  19
ENDBRANCH  15  18
ENDBRANCH   9  12
ENDBRANCH   1   8
BRANCH   3  26
HETATM   26  N   UNK     0     165.628  -9.099 343.063  0.00  0.00    -0.187 N 
HETATM   27  H   UNK     0     165.040  -8.593 343.716  0.00  0.00     0.184 HD
BRANCH  26  28
HETATM   28  C   UNK     0     166.003  -8.307 341.962  0.00  0.00     0.728 A 
HETATM   29  N   UNK     0     166.700  -8.919 340.983  0.00  0.00    -0.059 NA
HETATM   30  C   UNK     0     167.042  -8.130 339.944  0.00  0.00     0.120 A 
HETATM   31  C   UNK     0     166.719  -6.791 339.858  0.00  0.00     0.041 A 
HETATM   32  C   UNK     0     166.003  -6.281 340.922  0.00  0.00     0.103 A 
HETATM   33  N   UNK     0     165.628  -7.011 341.992  0.00  0.00    -0.061 NA
BRANCH  32  34
HETATM   34  C   UNK     0     165.603  -4.895 340.955  0.00  0.00     0.037 A 
HETATM   35  C   UNK     0     165.922  -4.030 339.913  0.00  0.00     0.005 A 
HETATM   36  C   UNK     0     165.523  -2.700 339.973  0.00  0.00     0.021 A 
HETATM   37  C   UNK     0     164.813  -2.286 341.088  0.00  0.00     0.099 A 
HETATM   38  N   UNK     0     164.484  -3.095 342.120  0.00  0.00    -0.242 NA
HETATM   39  C   UNK     0     164.889  -4.381 342.026  0.00  0.00     0.100 A 
ENDBRANCH  32  34
ENDBRANCH  26  28
ENDBRANCH   3  26
TORSDOF 7
ENDMDL
MODEL 3
REMARK VINA RESULT:     -11.1      1.966      3.321
REMARK  7 active torsions:
REMARK  status: ('A' for Active; 'I' for Inactive)
REMARK    1  A    between atoms: N_2  and  C_19 
REMARK       I    between atoms: N_2  and  C_3 
REMARK    2  A    between atoms: C_3  and  C_5 
REMARK    3  A    between atoms: C_8  and  C_11 
REMARK    4  A    between atoms: C_11  and  N_12 
REMARK    5  A    between atoms: C_21  and  N_26 
REMARK    6  A    between atoms: N_26  and  C_28 
REMARK    7  A    between atoms: C_30  and  C_34 
ROOT
HETATM    1  C   UNK     0     166.242 -11.460 344.674  0.00  0.00     0.060 A 
HETATM    2  C   UNK     0     166.275 -12.507 343.768  0.00  0.00     0.034 A 
HETATM    3  C   UNK     0     166.072 -13.809 344.225  0.00  0.00     0.071 A 
HETATM    4  C   UNK     0     165.838 -14.044 345.580  0.00  0.00    -0.006 A 
HETATM    5  C   UNK     0     165.807 -12.978 346.477  0.00  0.00    -0.001 A 
HETATM    6  C   UNK     0     165.616 -15.429 346.096  0.00  0.00     0.033 C 
HETATM    7  C   UNK     0     166.012 -11.676 346.021  0.00  0.00     0.017 A 
ENDROOT
BRANCH   1   8
HETATM    8  N   UNK     0     166.450 -10.138 344.210  0.00  0.00    -0.321 N 
HETATM    9  C   UNK     0     167.630  -9.380 344.232  0.00  0.00     0.258 C 
HETATM   10  O   UNK     0     168.719  -9.770 344.682  0.00  0.00    -0.267 OA
HETATM   11  H   UNK     0     165.625  -9.729 343.778  0.00  0.00     0.169 HD
BRANCH   9  12
HETATM   12  C   UNK     0     167.525  -8.029 343.705  0.00  0.00     0.056 A 
HETATM   13  C   UNK     0     166.569  -7.152 344.215  0.00  0.00     0.004 A 
HETATM   14  C   UNK     0     166.468  -5.857 343.707  0.00  0.00    -0.002 A 
HETATM   15  C   UNK     0     167.324  -5.452 342.693  0.00  0.00     0.011 A 
HETATM   16  C   UNK     0     168.279  -6.316 342.177  0.00  0.00    -0.002 A 
HETATM   17  C   UNK     0     168.381  -7.611 342.684  0.00  0.00     0.004 A 
BRANCH  15  18
HETATM   18  C   UNK     0     167.216  -4.054 342.145  0.00  0.00     0.277 C 
BRANCH  18  19
HETATM   19  N   UNK     0     165.913  -3.810 341.527  0.00  0.00     0.146 N 
HETATM   20  C   UNK     0     166.065  -3.470 340.107  0.00  0.00     0.286 C 
HETATM   21  C   UNK     0     164.700  -3.213 339.460  0.00  0.00     0.286 C 
HETATM   22  N   UNK     0     163.977  -2.149 340.167  0.00  0.00     0.143 N 
HETATM   23  C   UNK     0     163.826  -2.488 341.588  0.00  0.00     0.286 C 
HETATM   24  C   UNK     0     162.675  -1.908 339.550  0.00  0.00     0.285 C 
HETATM   25  C   UNK     0     165.192  -2.746 342.235  0.00  0.00     0.286 C 
ENDBRANCH  18  19
ENDBRANCH  15  18
ENDBRANCH   9  12
ENDBRANCH   1   8
BRANCH   3  26
HETATM   26  N   UNK     0     166.107 -14.878 343.302  0.00  0.00    -0.187 N 
HETATM   27  H   UNK     0     166.644 -15.685 343.600  0.00  0.00     0.184 HD
BRANCH  26  28
HETATM   28  C   UNK     0     165.445 -15.103 342.081  0.00  0.00     0.728 A 
HETATM   29  N   UNK     0     165.857 -14.374 341.024  0.00  0.00    -0.059 NA
HETATM   30  C   UNK     0     165.201 -14.616 339.870  0.00  0.00     0.120 A 
HETATM   31  C   UNK     0     164.179 -15.536 339.747  0.00  0.00     0.041 A 
HETATM   32  C   UNK     0     163.849 -16.220 340.899  0.00  0.00     0.103 A 
HETATM   33  N   UNK     0     164.462 -16.029 342.085  0.00  0.00    -0.061 NA
BRANCH  32  34
HETATM   34  C   UNK     0     162.797 -17.208 340.905  0.00  0.00     0.037 A 
HETATM   35  C   UNK     0     161.459 -16.833 340.830  0.00  0.00     0.005 A 
HETATM   36  C   UNK     0     160.469 -17.808 340.838  0.00  0.00     0.021 A 
HETATM   37  C   UNK     0     160.863 -19.133 340.922  0.00  0.00     0.099 A 
HETATM   38  N   UNK     0     162.151 -19.537 340.997  0.00  0.00    -0.242 NA
HETATM   39  C   UNK     0     163.087 -18.560 340.986  0.00  0.00     0.100 A 
ENDBRANCH  32  34
ENDBRANCH  26  28
ENDBRANCH   3  26
TORSDOF 7
ENDMDL
