MODEL 1
REMARK VINA RESULT:     -11.0      0.000      0.000
REMARK  7 active torsions:
REMARK  status: ('A' for Active; 'I' for Inactive)
REMARK    1  A    between atoms: N_2  and  C_19 
REMARK       I    between atoms: N_2  and  C_3 
REMARK    2  A    between atoms: C_3  and  C_5 
REMARK    3  A    between atoms: C_8  and  C_11 
REMARK    4  A    between atoms: C_11  and  N_12 
REMARK    5  A    between atoms: C_21  and  N_26 
REMARK    6  A    between atoms: N_26  and  C_28 
REMARK    7  A    between atoms: C_30  and  C_34 
ROOT
HETATM    1  C   UNK     0     -10.694  26.263  -7.968  0.00  0.00     0.060 A 
HETATM    2  C   UNK     0     -11.213  26.739  -6.776  0.00  0.00     0.034 A 
HETATM    3  C   UNK     0     -10.493  27.687  -6.050  0.00  0.00     0.071 A 
HETATM    4  C   UNK     0      -9.265  28.145  -6.526  0.00  0.00    -0.006 A 
HETATM    5  C   UNK     0      -8.757  27.655  -7.729  0.00  0.00    -0.001 A 
HETATM    6  C   UNK     0      -8.473  29.161  -5.769  0.00  0.00     0.033 C 
HETATM    7  C   UNK     0      -9.477  26.706  -8.455  0.00  0.00     0.017 A 
ENDROOT
BRANCH   1   8
HETATM    8  N   UNK     0     -11.424  25.300  -8.705  0.00  0.00    -0.321 N 
HETATM    9  C   UNK     0     -11.348  23.901  -8.631  0.00  0.00     0.258 C 
HETATM   10  O   UNK     0     -10.595  23.267  -7.873  0.00  0.00    -0.267 OA
HETATM   11  H   UNK     0     -12.109  25.710  -9.334  0.00  0.00     0.169 HD
BRANCH   9  12
HETATM   12  C   UNK     0     -12.213  23.169  -9.542  0.00  0.00     0.056 A 
HETATM   13  C   UNK     0     -11.768  21.984 -10.127  0.00  0.00     0.004 A 
HETATM   14  C   UNK     0     -12.597  21.283 -11.003  0.00  0.00    -0.002 A 
HETATM   15  C   UNK     0     -13.862  21.776 -11.287  0.00  0.00     0.011 A 
HETATM   16  C   UNK     0     -14.316  22.955 -10.712  0.00  0.00    -0.002 A 
HETATM   17  C   UNK     0     -13.487  23.656  -9.836  0.00  0.00     0.004 A 
BRANCH  15  18
HETATM   18  C   UNK     0     -14.758  21.020 -12.232  0.00  0.00     0.277 C 
BRANCH  18  19
HETATM   19  N   UNK     0     -14.544  19.576 -12.148  0.00  0.00     0.146 N 
HETATM   20  C   UNK     0     -14.461  18.982 -13.487  0.00  0.00     0.286 C 
HETATM   21  C   UNK     0     -14.237  17.468 -13.399  0.00  0.00     0.286 C 
HETATM   22  N   UNK     0     -15.302  16.826 -12.620  0.00  0.00     0.143 N 
HETATM   23  C   UNK     0     -15.387  17.421 -11.280  0.00  0.00     0.286 C 
HETATM   24  C   UNK     0     -15.086  15.384 -12.535  0.00  0.00     0.285 C 
HETATM   25  C   UNK     0     -15.609  18.935 -11.368  0.00  0.00     0.286 C 
ENDBRANCH  18  19
ENDBRANCH  15  18
ENDBRANCH   9  12
ENDBRANCH   1   8
BRANCH   3  26
HETATM   26  N   UNK     0     -11.022  28.172  -4.833  0.00  0.00    -0.187 N 
HETATM   27  H   UNK     0     -10.820  27.602  -4.019  0.00  0.00     0.184 HD
BRANCH  26  28
HETATM   28  C   UNK     0     -11.685  29.366  -4.493  0.00  0.00     0.728 A 
HETATM   29  N   UNK     0     -11.269  30.489  -5.112  0.00  0.00    -0.059 NA
HETATM   30  C   UNK     0     -11.927  31.614  -4.764  0.00  0.00     0.120 A 
HETATM   31  C   UNK     0     -12.956  31.647  -3.844  0.00  0.00     0.041 A 
HETATM   32  C   UNK     0     -13.291  30.433  -3.279  0.00  0.00     0.103 A 
HETATM   33  N   UNK     0     -12.676  29.271  -3.581  0.00  0.00    -0.061 NA
BRANCH  32  34
HETATM   34  C   UNK     0     -14.348  30.330  -2.303  0.00  0.00     0.037 A 
HETATM   35  C   UNK     0     -15.058  29.145  -2.134  0.00  0.00     0.005 A 
HETATM   36  C   UNK     0     -16.071  29.078  -1.185  0.00  0.00     0.021 A 
HETATM   37  C   UNK     0     -16.336  30.213  -0.437  0.00  0.00     0.099 A 
HETATM   38  N   UNK     0     -15.670  31.382  -0.572  0.00  0.00    -0.242 NA
HETATM   39  C   UNK     0     -14.691  31.410  -1.504  0.00  0.00     0.100 A 
ENDBRANCH  32  34
ENDBRANCH  26  28
ENDBRANCH   3  26
TORSDOF 7
ENDMDL
MODEL 2
REMARK VINA RESULT:     -10.9      2.392      2.800
REMARK  7 active torsions:
REMARK  status: ('A' for Active; 'I' for Inactive)
REMARK    1  A    between atoms: N_2  and  C_19 
REMARK       I    between atoms: N_2  and  C_3 
REMARK    2  A    between atoms: C_3  and  C_5 
REMARK    3  A    between atoms: C_8  and  C_11 
REMARK    4  A    between atoms: C_11  and  N_12 
REMARK    5  A    between atoms: C_21  and  N_26 
REMARK    6  A    between atoms: N_26  and  C_28 
REMARK    7  A    between atoms: C_30  and  C_34 
ROOT
HETATM    1  C   UNK     0     -11.681  24.933  -7.259  0.00  0.00     0.060 A 
HETATM    2  C   UNK     0     -11.768  25.702  -6.110  0.00  0.00     0.034 A 
HETATM    3  C   UNK     0     -10.931  26.808  -5.967  0.00  0.00     0.071 A 
HETATM    4  C   UNK     0     -10.021  27.129  -6.974  0.00  0.00    -0.006 A 
HETATM    5  C   UNK     0      -9.949  26.345  -8.125  0.00  0.00    -0.001 A 
HETATM    6  C   UNK     0      -9.114  28.310  -6.847  0.00  0.00     0.033 C 
HETATM    7  C   UNK     0     -10.785  25.238  -8.268  0.00  0.00     0.017 A 
ENDROOT
BRANCH   1   8
HETATM    8  N   UNK     0     -12.530  23.809  -7.404  0.00  0.00    -0.321 N 
HETATM    9  C   UNK     0     -13.818  23.752  -7.957  0.00  0.00     0.258 C 
HETATM   10  O   UNK     0     -14.437  24.722  -8.423  0.00  0.00    -0.267 OA
HETATM   11  H   UNK     0     -12.104  22.940  -7.090  0.00  0.00     0.169 HD
BRANCH   9  12
HETATM   12  C   UNK     0     -14.457  22.446  -7.942  0.00  0.00     0.056 A 
HETATM   13  C   UNK     0     -14.336  21.596  -9.042  0.00  0.00     0.004 A 
HETATM   14  C   UNK     0     -14.950  20.344  -9.028  0.00  0.00    -0.002 A 
HETATM   15  C   UNK     0     -15.681  19.955  -7.915  0.00  0.00     0.011 A 
HETATM   16  C   UNK     0     -15.810  20.792  -6.815  0.00  0.00    -0.002 A 
HETATM   17  C   UNK     0     -15.196  22.043  -6.829  0.00  0.00     0.004 A 
BRANCH  15  18
HETATM   18  C   UNK     0     -16.345  18.603  -7.899  0.00  0.00     0.277 C 
BRANCH  18  19
HETATM   19  N   UNK     0     -15.493  17.571  -8.490  0.00  0.00     0.146 N 
HETATM   20  C   UNK     0     -16.302  16.565  -9.188  0.00  0.00     0.286 C 
HETATM   21  C   UNK     0     -15.409  15.483  -9.806  0.00  0.00     0.286 C 
HETATM   22  N   UNK     0     -14.572  14.847  -8.782  0.00  0.00     0.143 N 
HETATM   23  C   UNK     0     -13.764  15.854  -8.082  0.00  0.00     0.286 C 
HETATM   24  C   UNK     0     -13.720  13.818  -9.373  0.00  0.00     0.285 C 
HETATM   25  C   UNK     0     -14.657  16.937  -7.465  0.00  0.00     0.286 C 
ENDBRANCH  18  19
ENDBRANCH  15  18
ENDBRANCH   9  12
ENDBRANCH   1   8
BRANCH   3  26
HETATM   26  N   UNK     0     -11.017  27.592  -4.795  0.00  0.00    -0.187 N 
HETATM   27  H   UNK     0     -10.521  27.221  -3.993  0.00  0.00     0.184 HD
BRANCH  26  28
HETATM   28  C   UNK     0     -11.566  28.862  -4.539  0.00  0.00     0.728 A 
HETATM   29  N   UNK     0     -11.037  29.900  -5.218  0.00  0.00    -0.059 NA
HETATM   30  C   UNK     0     -11.587  31.102  -4.949  0.00  0.00     0.120 A 
HETATM   31  C   UNK     0     -12.617  31.290  -4.049  0.00  0.00     0.041 A 
HETATM   32  C   UNK     0     -13.073  30.151  -3.417  0.00  0.00     0.103 A 
HETATM   33  N   UNK     0     -12.570  28.919  -3.639  0.00  0.00    -0.061 NA
BRANCH  32  34
HETATM   34  C   UNK     0     -14.145  30.211  -2.453  0.00  0.00     0.037 A 
HETATM   35  C   UNK     0     -15.003  29.132  -2.265  0.00  0.00     0.005 A 
HETATM   36  C   UNK     0     -16.026  29.220  -1.329  0.00  0.00     0.021 A 
HETATM   37  C   UNK     0     -16.151  30.399  -0.612  0.00  0.00     0.099 A 
HETATM   38  N   UNK     0     -15.338  31.468  -0.767  0.00  0.00    -0.242 NA
HETATM   39  C   UNK     0     -14.354  31.346  -1.686  0.00  0.00     0.100 A 
ENDBRANCH  32  34
ENDBRANCH  26  28
ENDBRANCH   3  26
TORSDOF 7
ENDMDL
MODEL 3
REMARK VINA RESULT:      -9.6     21.381     26.381
REMARK  7 active torsions:
REMARK  status: ('A' for Active; 'I' for Inactive)
REMARK    1  A    between atoms: N_2  and  C_19 
REMARK       I    between atoms: N_2  and  C_3 
REMARK    2  A    between atoms: C_3  and  C_5 
REMARK    3  A    between atoms: C_8  and  C_11 
REMARK    4  A    between atoms: C_11  and  N_12 
REMARK    5  A    between atoms: C_21  and  N_26 
REMARK    6  A    between atoms: N_26  and  C_28 
REMARK    7  A    between atoms: C_30  and  C_34 
ROOT
HETATM    1  C   UNK     0      -8.006   0.581  -5.069  0.00  0.00     0.060 A 
HETATM    2  C   UNK     0      -7.406   0.827  -6.293  0.00  0.00     0.034 A 
HETATM    3  C   UNK     0      -7.260  -0.219  -7.203  0.00  0.00     0.071 A 
HETATM    4  C   UNK     0      -7.718  -1.496  -6.876  0.00  0.00    -0.006 A 
HETATM    5  C   UNK     0      -8.321  -1.726  -5.640  0.00  0.00    -0.001 A 
HETATM    6  C   UNK     0      -7.577  -2.635  -7.833  0.00  0.00     0.033 C 
HETATM    7  C   UNK     0      -8.465  -0.679  -4.730  0.00  0.00     0.017 A 
ENDROOT
BRANCH   1   8
HETATM    8  N   UNK     0      -8.152   1.643  -4.145  0.00  0.00    -0.321 N 
HETATM    9  C   UNK     0      -7.151   2.411  -3.531  0.00  0.00     0.258 C 
HETATM   10  O   UNK     0      -5.931   2.268  -3.713  0.00  0.00    -0.267 OA
HETATM   11  H   UNK     0      -9.122   1.878  -3.952  0.00  0.00     0.169 HD
BRANCH   9  12
HETATM   12  C   UNK     0      -7.613   3.424  -2.596  0.00  0.00     0.056 A 
HETATM   13  C   UNK     0      -6.868   3.712  -1.453  0.00  0.00     0.004 A 
HETATM   14  C   UNK     0      -7.312   4.682  -0.555  0.00  0.00    -0.002 A 
HETATM   15  C   UNK     0      -8.498   5.355  -0.809  0.00  0.00     0.011 A 
HETATM   16  C   UNK     0      -9.250   5.077  -1.943  0.00  0.00    -0.002 A 
HETATM   17  C   UNK     0      -8.805   4.107  -2.841  0.00  0.00     0.004 A 
BRANCH  15  18
HETATM   18  C   UNK     0      -8.979   6.404   0.159  0.00  0.00     0.277 C 
BRANCH  18  19
HETATM   19  N   UNK     0     -10.182   5.977   0.872  0.00  0.00     0.146 N 
HETATM   20  C   UNK     0     -11.231   7.000   0.783  0.00  0.00     0.286 C 
HETATM   21  C   UNK     0     -12.492   6.553   1.532  0.00  0.00     0.286 C 
HETATM   22  N   UNK     0     -12.188   6.251   2.936  0.00  0.00     0.143 N 
HETATM   23  C   UNK     0     -11.137   5.229   3.024  0.00  0.00     0.286 C 
HETATM   24  C   UNK     0     -13.390   5.823   3.646  0.00  0.00     0.285 C 
HETATM   25  C   UNK     0      -9.876   5.675   2.275  0.00  0.00     0.286 C 
ENDBRANCH  18  19
ENDBRANCH  15  18
ENDBRANCH   9  12
ENDBRANCH   1   8
BRANCH   3  26
HETATM   26  N   UNK     0      -6.647   0.030  -8.451  0.00  0.00    -0.187 N 
HETATM   27  H   UNK     0      -5.839  -0.548  -8.655  0.00  0.00     0.184 HD
BRANCH  26  28
HETATM   28  C   UNK     0      -7.001   0.851  -9.538  0.00  0.00     0.728 A 
HETATM   29  N   UNK     0      -6.671   2.155  -9.445  0.00  0.00    -0.059 NA
HETATM   30  C   UNK     0      -7.023   2.913 -10.504  0.00  0.00     0.120 A 
HETATM   31  C   UNK     0      -7.675   2.421 -11.616  0.00  0.00     0.041 A 
HETATM   32  C   UNK     0      -7.958   1.070 -11.593  0.00  0.00     0.103 A 
HETATM   33  N   UNK     0      -7.634   0.254 -10.569  0.00  0.00    -0.061 NA
BRANCH  32  34
HETATM   34  C   UNK     0      -8.637   0.431 -12.694  0.00  0.00     0.037 A 
HETATM   35  C   UNK     0      -8.034  -0.598 -13.410  0.00  0.00     0.005 A 
HETATM   36  C   UNK     0      -8.714  -1.194 -14.466  0.00  0.00     0.021 A 
HETATM   37  C   UNK     0      -9.984  -0.729 -14.765  0.00  0.00     0.099 A 
HETATM   38  N   UNK     0     -10.603   0.268 -14.094  0.00  0.00    -0.242 NA
HETATM   39  C   UNK     0      -9.911   0.823 -13.073  0.00  0.00     0.100 A 
ENDBRANCH  32  34
ENDBRANCH  26  28
ENDBRANCH   3  26
TORSDOF 7
ENDMDL
