MODEL 1
REMARK VINA RESULT:      -8.4      0.000      0.000
REMARK  7 active torsions:
REMARK  status: ('A' for Active; 'I' for Inactive)
REMARK    1  A    between atoms: N_2  and  C_19 
REMARK       I    between atoms: N_2  and  C_3 
REMARK    2  A    between atoms: C_3  and  C_5 
REMARK    3  A    between atoms: C_8  and  C_11 
REMARK    4  A    between atoms: C_11  and  N_12 
REMARK    5  A    between atoms: C_21  and  N_26 
REMARK    6  A    between atoms: N_26  and  C_28 
REMARK    7  A    between atoms: C_30  and  C_34 
ROOT
HETATM    1  C   UNK     0      43.661   2.391  31.746  0.00  0.00     0.060 A 
HETATM    2  C   UNK     0      42.955   2.953  32.796  0.00  0.00     0.034 A 
HETATM    3  C   UNK     0      41.634   3.351  32.593  0.00  0.00     0.071 A 
HETATM    4  C   UNK     0      41.039   3.179  31.343  0.00  0.00    -0.006 A 
HETATM    5  C   UNK     0      41.764   2.611  30.297  0.00  0.00    -0.001 A 
HETATM    6  C   UNK     0      39.625   3.595  31.098  0.00  0.00     0.033 C 
HETATM    7  C   UNK     0      43.086   2.214  30.500  0.00  0.00     0.017 A 
ENDROOT
BRANCH   1   8
HETATM    8  N   UNK     0      45.003   1.989  31.952  0.00  0.00    -0.321 N 
HETATM    9  C   UNK     0      46.019   2.659  32.650  0.00  0.00     0.258 C 
HETATM   10  O   UNK     0      45.889   3.755  33.219  0.00  0.00    -0.267 OA
HETATM   11  H   UNK     0      45.214   1.074  31.561  0.00  0.00     0.169 HD
BRANCH   9  12
HETATM   12  C   UNK     0      47.316   2.003  32.667  0.00  0.00     0.056 A 
HETATM   13  C   UNK     0      47.924   1.686  33.882  0.00  0.00     0.004 A 
HETATM   14  C   UNK     0      49.169   1.058  33.897  0.00  0.00    -0.002 A 
HETATM   15  C   UNK     0      49.795   0.754  32.697  0.00  0.00     0.011 A 
HETATM   16  C   UNK     0      49.201   1.064  31.482  0.00  0.00    -0.002 A 
HETATM   17  C   UNK     0      47.956   1.692  31.466  0.00  0.00     0.004 A 
BRANCH  15  18
HETATM   18  C   UNK     0      51.139   0.075  32.713  0.00  0.00     0.277 C 
BRANCH  18  19
HETATM   19  N   UNK     0      52.174   0.930  33.292  0.00  0.00     0.146 N 
HETATM   20  C   UNK     0      53.152   1.328  32.273  0.00  0.00     0.286 C 
HETATM   21  C   UNK     0      54.238   2.224  32.880  0.00  0.00     0.286 C 
HETATM   22  N   UNK     0      54.909   1.549  33.997  0.00  0.00     0.143 N 
HETATM   23  C   UNK     0      53.931   1.148  35.017  0.00  0.00     0.286 C 
HETATM   24  C   UNK     0      55.941   2.404  34.576  0.00  0.00     0.285 C 
HETATM   25  C   UNK     0      52.844   0.253  34.409  0.00  0.00     0.286 C 
ENDBRANCH  18  19
ENDBRANCH  15  18
ENDBRANCH   9  12
ENDBRANCH   1   8
BRANCH   3  26
HETATM   26  N   UNK     0      40.913   3.926  33.663  0.00  0.00    -0.187 N 
HETATM   27  H   UNK     0      40.527   4.844  33.475  0.00  0.00     0.184 HD
BRANCH  26  28
HETATM   28  C   UNK     0      40.517   3.429  34.918  0.00  0.00     0.728 A 
HETATM   29  N   UNK     0      41.095   2.282  35.327  0.00  0.00    -0.059 NA
HETATM   30  C   UNK     0      40.693   1.836  36.535  0.00  0.00     0.120 A 
HETATM   31  C   UNK     0      39.759   2.482  37.320  0.00  0.00     0.041 A 
HETATM   32  C   UNK     0      39.240   3.647  36.792  0.00  0.00     0.103 A 
HETATM   33  N   UNK     0      39.597   4.151  35.593  0.00  0.00    -0.061 NA
BRANCH  32  34
HETATM   34  C   UNK     0      38.255   4.418  37.512  0.00  0.00     0.037 A 
HETATM   35  C   UNK     0      37.628   5.511  36.923  0.00  0.00     0.005 A 
HETATM   36  C   UNK     0      36.683   6.234  37.642  0.00  0.00     0.021 A 
HETATM   37  C   UNK     0      36.403   5.828  38.937  0.00  0.00     0.099 A 
HETATM   38  N   UNK     0      36.991   4.773  39.543  0.00  0.00    -0.242 NA
HETATM   39  C   UNK     0      37.904   4.094  38.813  0.00  0.00     0.100 A 
ENDBRANCH  32  34
ENDBRANCH  26  28
ENDBRANCH   3  26
TORSDOF 7
ENDMDL
MODEL 2
REMARK VINA RESULT:      -8.0      5.303     11.876
REMARK  7 active torsions:
REMARK  status: ('A' for Active; 'I' for Inactive)
REMARK    1  A    between atoms: N_2  and  C_19 
REMARK       I    between atoms: N_2  and  C_3 
REMARK    2  A    between atoms: C_3  and  C_5 
REMARK    3  A    between atoms: C_8  and  C_11 
REMARK    4  A    between atoms: C_11  and  N_12 
REMARK    5  A    between atoms: C_21  and  N_26 
REMARK    6  A    between atoms: N_26  and  C_28 
REMARK    7  A    between atoms: C_30  and  C_34 
ROOT
HETATM    1  C   UNK     0      41.414   2.796  30.056  0.00  0.00     0.060 A 
HETATM    2  C   UNK     0      41.136   3.298  31.316  0.00  0.00     0.034 A 
HETATM    3  C   UNK     0      42.172   3.435  32.239  0.00  0.00     0.071 A 
HETATM    4  C   UNK     0      43.471   3.067  31.888  0.00  0.00    -0.006 A 
HETATM    5  C   UNK     0      43.734   2.564  30.615  0.00  0.00    -0.001 A 
HETATM    6  C   UNK     0      44.600   3.204  32.857  0.00  0.00     0.033 C 
HETATM    7  C   UNK     0      42.697   2.426  29.692  0.00  0.00     0.017 A 
ENDROOT
BRANCH   1   8
HETATM    8  N   UNK     0      40.361   2.656  29.119  0.00  0.00    -0.321 N 
HETATM    9  C   UNK     0      40.361   2.970  27.752  0.00  0.00     0.258 C 
HETATM   10  O   UNK     0      41.327   3.440  27.129  0.00  0.00    -0.267 OA
HETATM   11  H   UNK     0      39.524   2.236  29.515  0.00  0.00     0.169 HD
BRANCH   9  12
HETATM   12  C   UNK     0      39.110   2.740  27.049  0.00  0.00     0.056 A 
HETATM   13  C   UNK     0      39.006   1.696  26.130  0.00  0.00     0.004 A 
HETATM   14  C   UNK     0      37.807   1.477  25.454  0.00  0.00    -0.002 A 
HETATM   15  C   UNK     0      36.721   2.305  25.703  0.00  0.00     0.011 A 
HETATM   16  C   UNK     0      36.812   3.347  26.615  0.00  0.00    -0.002 A 
HETATM   17  C   UNK     0      38.012   3.567  27.291  0.00  0.00     0.004 A 
BRANCH  15  18
HETATM   18  C   UNK     0      35.425   2.068  24.975  0.00  0.00     0.277 C 
BRANCH  18  19
HETATM   19  N   UNK     0      34.468   3.150  25.201  0.00  0.00     0.146 N 
HETATM   20  C   UNK     0      33.203   2.625  25.728  0.00  0.00     0.286 C 
HETATM   21  C   UNK     0      32.198   3.759  25.964  0.00  0.00     0.286 C 
HETATM   22  N   UNK     0      31.964   4.516  24.729  0.00  0.00     0.143 N 
HETATM   23  C   UNK     0      33.230   5.040  24.200  0.00  0.00     0.286 C 
HETATM   24  C   UNK     0      31.009   5.597  24.957  0.00  0.00     0.285 C 
HETATM   25  C   UNK     0      34.234   3.906  23.965  0.00  0.00     0.286 C 
ENDBRANCH  18  19
ENDBRANCH  15  18
ENDBRANCH   9  12
ENDBRANCH   1   8
BRANCH   3  26
HETATM   26  N   UNK     0      41.889   3.946  33.525  0.00  0.00    -0.187 N 
HETATM   27  H   UNK     0      42.025   4.945  33.629  0.00  0.00     0.184 HD
BRANCH  26  28
HETATM   28  C   UNK     0      41.340   3.362  34.682  0.00  0.00     0.728 A 
HETATM   29  N   UNK     0      41.899   2.209  35.104  0.00  0.00    -0.059 NA
HETATM   30  C   UNK     0      41.349   1.678  36.215  0.00  0.00     0.120 A 
HETATM   31  C   UNK     0      40.290   2.246  36.894  0.00  0.00     0.041 A 
HETATM   32  C   UNK     0      39.805   3.425  36.364  0.00  0.00     0.103 A 
HETATM   33  N   UNK     0      40.307   4.012  35.258  0.00  0.00    -0.061 NA
BRANCH  32  34
HETATM   34  C   UNK     0      38.700   4.120  36.978  0.00  0.00     0.037 A 
HETATM   35  C   UNK     0      37.826   4.892  36.220  0.00  0.00     0.005 A 
HETATM   36  C   UNK     0      36.770   5.549  36.840  0.00  0.00     0.021 A 
HETATM   37  C   UNK     0      36.632   5.405  38.211  0.00  0.00     0.099 A 
HETATM   38  N   UNK     0      37.460   4.665  38.982  0.00  0.00    -0.242 NA
HETATM   39  C   UNK     0      38.475   4.041  38.344  0.00  0.00     0.100 A 
ENDBRANCH  32  34
ENDBRANCH  26  28
ENDBRANCH   3  26
TORSDOF 7
ENDMDL
MODEL 3
REMARK VINA RESULT:      -8.0      4.460     10.808
REMARK  7 active torsions:
REMARK  status: ('A' for Active; 'I' for Inactive)
REMARK    1  A    between atoms: N_2  and  C_19 
REMARK       I    between atoms: N_2  and  C_3 
REMARK    2  A    between atoms: C_3  and  C_5 
REMARK    3  A    between atoms: C_8  and  C_11 
REMARK    4  A    between atoms: C_11  and  N_12 
REMARK    5  A    between atoms: C_21  and  N_26 
REMARK    6  A    between atoms: N_26  and  C_28 
REMARK    7  A    between atoms: C_30  and  C_34 
ROOT
HETATM    1  C   UNK     0      43.160   3.221  31.133  0.00  0.00     0.060 A 
HETATM    2  C   UNK     0      42.782   3.196  32.465  0.00  0.00     0.034 A 
HETATM    3  C   UNK     0      43.759   3.041  33.447  0.00  0.00     0.071 A 
HETATM    4  C   UNK     0      45.100   2.913  33.083  0.00  0.00    -0.006 A 
HETATM    5  C   UNK     0      45.463   2.941  31.738  0.00  0.00    -0.001 A 
HETATM    6  C   UNK     0      46.168   2.748  34.115  0.00  0.00     0.033 C 
HETATM    7  C   UNK     0      44.485   3.096  30.755  0.00  0.00     0.017 A 
ENDROOT
BRANCH   1   8
HETATM    8  N   UNK     0      42.167   3.377  30.136  0.00  0.00    -0.321 N 
HETATM    9  C   UNK     0      40.787   3.564  30.299  0.00  0.00     0.258 C 
HETATM   10  O   UNK     0      40.200   3.623  31.391  0.00  0.00    -0.267 OA
HETATM   11  H   UNK     0      42.544   3.387  29.191  0.00  0.00     0.169 HD
BRANCH   9  12
HETATM   12  C   UNK     0      40.012   3.666  29.073  0.00  0.00     0.056 A 
HETATM   13  C   UNK     0      38.741   4.240  29.095  0.00  0.00     0.004 A 
HETATM   14  C   UNK     0      37.996   4.336  27.920  0.00  0.00    -0.002 A 
HETATM   15  C   UNK     0      38.531   3.857  26.733  0.00  0.00     0.011 A 
HETATM   16  C   UNK     0      39.794   3.283  26.697  0.00  0.00    -0.002 A 
HETATM   17  C   UNK     0      40.538   3.187  27.873  0.00  0.00     0.004 A 
BRANCH  15  18
HETATM   18  C   UNK     0      37.729   3.961  25.463  0.00  0.00     0.277 C 
BRANCH  18  19
HETATM   19  N   UNK     0      36.376   3.431  25.628  0.00  0.00     0.146 N 
HETATM   20  C   UNK     0      36.382   1.964  25.588  0.00  0.00     0.286 C 
HETATM   21  C   UNK     0      34.963   1.409  25.760  0.00  0.00     0.286 C 
HETATM   22  N   UNK     0      34.063   1.945  24.733  0.00  0.00     0.143 N 
HETATM   23  C   UNK     0      34.058   3.413  24.771  0.00  0.00     0.286 C 
HETATM   24  C   UNK     0      32.711   1.417  24.900  0.00  0.00     0.285 C 
HETATM   25  C   UNK     0      35.477   3.969  24.600  0.00  0.00     0.286 C 
ENDBRANCH  18  19
ENDBRANCH  15  18
ENDBRANCH   9  12
ENDBRANCH   1   8
BRANCH   3  26
HETATM   26  N   UNK     0      43.375   3.014  34.807  0.00  0.00    -0.187 N 
HETATM   27  H   UNK     0      43.868   3.668  35.405  0.00  0.00     0.184 HD
BRANCH  26  28
HETATM   28  C   UNK     0      42.352   2.335  35.493  0.00  0.00     0.728 A 
HETATM   29  N   UNK     0      42.521   1.009  35.676  0.00  0.00    -0.059 NA
HETATM   30  C   UNK     0      41.522   0.390  36.338  0.00  0.00     0.120 A 
HETATM   31  C   UNK     0      40.396   1.036  36.807  0.00  0.00     0.041 A 
HETATM   32  C   UNK     0      40.340   2.393  36.559  0.00  0.00     0.103 A 
HETATM   33  N   UNK     0      41.301   3.075  35.904  0.00  0.00    -0.061 NA
BRANCH  32  34
HETATM   34  C   UNK     0      39.216   3.185  36.996  0.00  0.00     0.037 A 
HETATM   35  C   UNK     0      38.762   4.264  36.245  0.00  0.00     0.005 A 
HETATM   36  C   UNK     0      37.677   5.008  36.692  0.00  0.00     0.021 A 
HETATM   37  C   UNK     0      37.084   4.637  37.888  0.00  0.00     0.099 A 
HETATM   38  N   UNK     0      37.496   3.596  38.646  0.00  0.00    -0.242 NA
HETATM   39  C   UNK     0      38.554   2.896  38.179  0.00  0.00     0.100 A 
ENDBRANCH  32  34
ENDBRANCH  26  28
ENDBRANCH   3  26
TORSDOF 7
ENDMDL
