MODEL 1
REMARK VINA RESULT:     -10.4      0.000      0.000
REMARK  7 active torsions:
REMARK  status: ('A' for Active; 'I' for Inactive)
REMARK    1  A    between atoms: N_2  and  C_19 
REMARK       I    between atoms: N_2  and  C_3 
REMARK    2  A    between atoms: C_3  and  C_5 
REMARK    3  A    between atoms: C_8  and  C_11 
REMARK    4  A    between atoms: C_11  and  N_12 
REMARK    5  A    between atoms: C_21  and  N_26 
REMARK    6  A    between atoms: N_26  and  C_28 
REMARK    7  A    between atoms: C_30  and  C_34 
ROOT
HETATM    1  C   UNK     0     -22.457  11.795  14.957  0.00  0.00     0.060 A 
HETATM    2  C   UNK     0     -23.063  10.752  15.636  0.00  0.00     0.034 A 
HETATM    3  C   UNK     0     -23.828   9.829  14.924  0.00  0.00     0.071 A 
HETATM    4  C   UNK     0     -23.974   9.962  13.543  0.00  0.00    -0.006 A 
HETATM    5  C   UNK     0     -23.356  11.018  12.875  0.00  0.00    -0.001 A 
HETATM    6  C   UNK     0     -24.786   8.986  12.755  0.00  0.00     0.033 C 
HETATM    7  C   UNK     0     -22.592  11.942  13.587  0.00  0.00     0.017 A 
ENDROOT
BRANCH   1   8
HETATM    8  N   UNK     0     -21.682  12.734  15.680  0.00  0.00    -0.321 N 
HETATM    9  C   UNK     0     -21.986  14.068  15.985  0.00  0.00     0.258 C 
HETATM   10  O   UNK     0     -23.029  14.655  15.652  0.00  0.00    -0.267 OA
HETATM   11  H   UNK     0     -20.814  12.345  16.042  0.00  0.00     0.169 HD
BRANCH   9  12
HETATM   12  C   UNK     0     -20.970  14.797  16.727  0.00  0.00     0.056 A 
HETATM   13  C   UNK     0     -19.622  14.638  16.406  0.00  0.00     0.004 A 
HETATM   14  C   UNK     0     -18.647  15.336  17.119  0.00  0.00    -0.002 A 
HETATM   15  C   UNK     0     -19.031  16.186  18.146  0.00  0.00     0.011 A 
HETATM   16  C   UNK     0     -20.369  16.353  18.475  0.00  0.00    -0.002 A 
HETATM   17  C   UNK     0     -21.343  15.655  17.762  0.00  0.00     0.004 A 
BRANCH  15  18
HETATM   18  C   UNK     0     -17.979  16.941  18.915  0.00  0.00     0.277 C 
BRANCH  18  19
HETATM   19  N   UNK     0     -17.940  16.540  20.321  0.00  0.00     0.146 N 
HETATM   20  C   UNK     0     -18.303  17.663  21.193  0.00  0.00     0.286 C 
HETATM   21  C   UNK     0     -18.262  17.244  22.667  0.00  0.00     0.286 C 
HETATM   22  N   UNK     0     -16.936  16.725  23.026  0.00  0.00     0.143 N 
HETATM   23  C   UNK     0     -16.571  15.602  22.152  0.00  0.00     0.286 C 
HETATM   24  C   UNK     0     -16.899  16.323  24.430  0.00  0.00     0.285 C 
HETATM   25  C   UNK     0     -16.614  16.022  20.678  0.00  0.00     0.286 C 
ENDBRANCH  18  19
ENDBRANCH  15  18
ENDBRANCH   9  12
ENDBRANCH   1   8
BRANCH   3  26
HETATM   26  N   UNK     0     -24.448   8.765  15.616  0.00  0.00    -0.187 N 
HETATM   27  H   UNK     0     -25.362   8.977  16.000  0.00  0.00     0.184 HD
BRANCH  26  28
HETATM   28  C   UNK     0     -24.102   7.411  15.787  0.00  0.00     0.728 A 
HETATM   29  N   UNK     0     -24.890   6.502  15.178  0.00  0.00    -0.059 NA
HETATM   30  C   UNK     0     -24.529   5.215  15.362  0.00  0.00     0.120 A 
HETATM   31  C   UNK     0     -23.439   4.824  16.114  0.00  0.00     0.041 A 
HETATM   32  C   UNK     0     -22.711   5.848  16.686  0.00  0.00     0.103 A 
HETATM   33  N   UNK     0     -23.014   7.154  16.543  0.00  0.00    -0.061 NA
BRANCH  32  34
HETATM   34  C   UNK     0     -21.549   5.573  17.496  0.00  0.00     0.037 A 
HETATM   35  C   UNK     0     -20.491   6.475  17.564  0.00  0.00     0.005 A 
HETATM   36  C   UNK     0     -19.385   6.183  18.353  0.00  0.00     0.021 A 
HETATM   37  C   UNK     0     -19.383   4.985  19.050  0.00  0.00     0.099 A 
HETATM   38  N   UNK     0     -20.391   4.084  19.010  0.00  0.00    -0.242 NA
HETATM   39  C   UNK     0     -21.450   4.403  18.232  0.00  0.00     0.100 A 
ENDBRANCH  32  34
ENDBRANCH  26  28
ENDBRANCH   3  26
TORSDOF 7
ENDMDL
MODEL 2
REMARK VINA RESULT:      -9.9      1.847      2.562
REMARK  7 active torsions:
REMARK  status: ('A' for Active; 'I' for Inactive)
REMARK    1  A    between atoms: N_2  and  C_19 
REMARK       I    between atoms: N_2  and  C_3 
REMARK    2  A    between atoms: C_3  and  C_5 
REMARK    3  A    between atoms: C_8  and  C_11 
REMARK    4  A    between atoms: C_11  and  N_12 
REMARK    5  A    between atoms: C_21  and  N_26 
REMARK    6  A    between atoms: N_26  and  C_28 
REMARK    7  A    between atoms: C_30  and  C_34 
ROOT
HETATM    1  C   UNK     0     -22.819  11.946  14.993  0.00  0.00     0.060 A 
HETATM    2  C   UNK     0     -23.314  10.871  15.712  0.00  0.00     0.034 A 
HETATM    3  C   UNK     0     -24.034   9.881  15.047  0.00  0.00     0.071 A 
HETATM    4  C   UNK     0     -24.250   9.979  13.672  0.00  0.00    -0.006 A 
HETATM    5  C   UNK     0     -23.744  11.068  12.963  0.00  0.00    -0.001 A 
HETATM    6  C   UNK     0     -25.017   8.931  12.933  0.00  0.00     0.033 C 
HETATM    7  C   UNK     0     -23.024  12.060  13.629  0.00  0.00     0.017 A 
ENDROOT
BRANCH   1   8
HETATM    8  N   UNK     0     -22.088  12.953  15.668  0.00  0.00    -0.321 N 
HETATM    9  C   UNK     0     -20.709  13.206  15.630  0.00  0.00     0.258 C 
HETATM   10  O   UNK     0     -19.883  12.556  14.969  0.00  0.00    -0.267 OA
HETATM   11  H   UNK     0     -22.676  13.579  16.214  0.00  0.00     0.169 HD
BRANCH   9  12
HETATM   12  C   UNK     0     -20.243  14.304  16.461  0.00  0.00     0.056 A 
HETATM   13  C   UNK     0     -18.927  14.753  16.352  0.00  0.00     0.004 A 
HETATM   14  C   UNK     0     -18.479  15.805  17.150  0.00  0.00    -0.002 A 
HETATM   15  C   UNK     0     -19.352  16.398  18.051  0.00  0.00     0.011 A 
HETATM   16  C   UNK     0     -20.663  15.960  18.170  0.00  0.00    -0.002 A 
HETATM   17  C   UNK     0     -21.111  14.908  17.372  0.00  0.00     0.004 A 
BRANCH  15  18
HETATM   18  C   UNK     0     -18.870  17.535  18.913  0.00  0.00     0.277 C 
BRANCH  18  19
HETATM   19  N   UNK     0     -17.693  18.189  18.343  0.00  0.00     0.146 N 
HETATM   20  C   UNK     0     -16.648  18.360  19.360  0.00  0.00     0.286 C 
HETATM   21  C   UNK     0     -15.414  19.047  18.763  0.00  0.00     0.286 C 
HETATM   22  N   UNK     0     -15.771  20.343  18.173  0.00  0.00     0.143 N 
HETATM   23  C   UNK     0     -16.818  20.172  17.157  0.00  0.00     0.286 C 
HETATM   24  C   UNK     0     -14.595  20.994  17.602  0.00  0.00     0.285 C 
HETATM   25  C   UNK     0     -18.051  19.484  17.754  0.00  0.00     0.286 C 
ENDBRANCH  18  19
ENDBRANCH  15  18
ENDBRANCH   9  12
ENDBRANCH   1   8
BRANCH   3  26
HETATM   26  N   UNK     0     -24.540   8.784  15.779  0.00  0.00    -0.187 N 
HETATM   27  H   UNK     0     -25.421   8.953  16.252  0.00  0.00     0.184 HD
BRANCH  26  28
HETATM   28  C   UNK     0     -24.123   7.445  15.898  0.00  0.00     0.728 A 
HETATM   29  N   UNK     0     -24.877   6.517  15.274  0.00  0.00    -0.059 NA
HETATM   30  C   UNK     0     -24.447   5.245  15.408  0.00  0.00     0.120 A 
HETATM   31  C   UNK     0     -23.323   4.886  16.124  0.00  0.00     0.041 A 
HETATM   32  C   UNK     0     -22.635   5.926  16.716  0.00  0.00     0.103 A 
HETATM   33  N   UNK     0     -23.007   7.219  16.623  0.00  0.00    -0.061 NA
BRANCH  32  34
HETATM   34  C   UNK     0     -21.443   5.685  17.493  0.00  0.00     0.037 A 
HETATM   35  C   UNK     0     -20.409   6.616  17.528  0.00  0.00     0.005 A 
HETATM   36  C   UNK     0     -19.273   6.355  18.286  0.00  0.00     0.021 A 
HETATM   37  C   UNK     0     -19.219   5.160  18.984  0.00  0.00     0.099 A 
HETATM   38  N   UNK     0     -20.202   4.232  18.975  0.00  0.00    -0.242 NA
HETATM   39  C   UNK     0     -21.291   4.520  18.227  0.00  0.00     0.100 A 
ENDBRANCH  32  34
ENDBRANCH  26  28
ENDBRANCH   3  26
TORSDOF 7
ENDMDL
MODEL 3
REMARK VINA RESULT:      -9.2      1.360      2.187
REMARK  7 active torsions:
REMARK  status: ('A' for Active; 'I' for Inactive)
REMARK    1  A    between atoms: N_2  and  C_19 
REMARK       I    between atoms: N_2  and  C_3 
REMARK    2  A    between atoms: C_3  and  C_5 
REMARK    3  A    between atoms: C_8  and  C_11 
REMARK    4  A    between atoms: C_11  and  N_12 
REMARK    5  A    between atoms: C_21  and  N_26 
REMARK    6  A    between atoms: N_26  and  C_28 
REMARK    7  A    between atoms: C_30  and  C_34 
ROOT
HETATM    1  C   UNK     0     -22.569  12.369  15.253  0.00  0.00     0.060 A 
HETATM    2  C   UNK     0     -22.599  11.102  15.812  0.00  0.00     0.034 A 
HETATM    3  C   UNK     0     -23.343  10.101  15.189  0.00  0.00     0.071 A 
HETATM    4  C   UNK     0     -24.046  10.381  14.016  0.00  0.00    -0.006 A 
HETATM    5  C   UNK     0     -24.003  11.662  13.467  0.00  0.00    -0.001 A 
HETATM    6  C   UNK     0     -24.850   9.327  13.327  0.00  0.00     0.033 C 
HETATM    7  C   UNK     0     -23.259  12.664  14.091  0.00  0.00     0.017 A 
ENDROOT
BRANCH   1   8
HETATM    8  N   UNK     0     -21.814  13.386  15.887  0.00  0.00    -0.321 N 
HETATM    9  C   UNK     0     -20.433  13.619  15.819  0.00  0.00     0.258 C 
HETATM   10  O   UNK     0     -19.626  12.938  15.165  0.00  0.00    -0.267 OA
HETATM   11  H   UNK     0     -22.384  14.035  16.422  0.00  0.00     0.169 HD
BRANCH   9  12
HETATM   12  C   UNK     0     -19.939  14.735  16.609  0.00  0.00     0.056 A 
HETATM   13  C   UNK     0     -18.612  15.147  16.484  0.00  0.00     0.004 A 
HETATM   14  C   UNK     0     -18.138  16.217  17.243  0.00  0.00    -0.002 A 
HETATM   15  C   UNK     0     -18.995  16.864  18.121  0.00  0.00     0.011 A 
HETATM   16  C   UNK     0     -20.318  16.463  18.255  0.00  0.00    -0.002 A 
HETATM   17  C   UNK     0     -20.792  15.394  17.496  0.00  0.00     0.004 A 
BRANCH  15  18
HETATM   18  C   UNK     0     -18.485  18.019  18.940  0.00  0.00     0.277 C 
BRANCH  18  19
HETATM   19  N   UNK     0     -18.286  17.648  20.340  0.00  0.00     0.146 N 
HETATM   20  C   UNK     0     -17.686  18.757  21.093  0.00  0.00     0.286 C 
HETATM   21  C   UNK     0     -17.477  18.367  22.561  0.00  0.00     0.286 C 
HETATM   22  N   UNK     0     -16.642  17.165  22.669  0.00  0.00     0.143 N 
HETATM   23  C   UNK     0     -17.240  16.056  21.915  0.00  0.00     0.286 C 
HETATM   24  C   UNK     0     -16.446  16.794  24.068  0.00  0.00     0.285 C 
HETATM   25  C   UNK     0     -17.451  16.446  20.447  0.00  0.00     0.286 C 
ENDBRANCH  18  19
ENDBRANCH  15  18
ENDBRANCH   9  12
ENDBRANCH   1   8
BRANCH   3  26
HETATM   26  N   UNK     0     -23.377   8.808  15.758  0.00  0.00    -0.187 N 
HETATM   27  H   UNK     0     -24.270   8.334  15.692  0.00  0.00     0.184 HD
BRANCH  26  28
HETATM   28  C   UNK     0     -22.377   7.984  16.306  0.00  0.00     0.728 A 
HETATM   29  N   UNK     0     -21.216   8.582  16.644  0.00  0.00    -0.059 NA
HETATM   30  C   UNK     0     -20.280   7.763  17.168  0.00  0.00     0.120 A 
HETATM   31  C   UNK     0     -20.465   6.408  17.356  0.00  0.00     0.041 A 
HETATM   32  C   UNK     0     -21.696   5.915  16.972  0.00  0.00     0.103 A 
HETATM   33  N   UNK     0     -22.676   6.675  16.443  0.00  0.00    -0.061 NA
BRANCH  32  34
HETATM   34  C   UNK     0     -22.016   4.515  17.115  0.00  0.00     0.037 A 
HETATM   35  C   UNK     0     -22.710   3.832  16.122  0.00  0.00     0.005 A 
HETATM   36  C   UNK     0     -23.004   2.484  16.289  0.00  0.00     0.021 A 
HETATM   37  C   UNK     0     -22.587   1.869  17.459  0.00  0.00     0.099 A 
HETATM   38  N   UNK     0     -21.912   2.498  18.446  0.00  0.00    -0.242 NA
HETATM   39  C   UNK     0     -21.643   3.809  18.248  0.00  0.00     0.100 A 
ENDBRANCH  32  34
ENDBRANCH  26  28
ENDBRANCH   3  26
TORSDOF 7
ENDMDL
