MODEL 1
REMARK VINA RESULT:      -8.3      0.000      0.000
REMARK  7 active torsions:
REMARK  status: ('A' for Active; 'I' for Inactive)
REMARK    1  A    between atoms: N_2  and  C_19 
REMARK       I    between atoms: N_2  and  C_3 
REMARK    2  A    between atoms: C_3  and  C_5 
REMARK    3  A    between atoms: C_8  and  C_11 
REMARK    4  A    between atoms: C_11  and  N_12 
REMARK    5  A    between atoms: C_21  and  N_26 
REMARK    6  A    between atoms: N_26  and  C_28 
REMARK    7  A    between atoms: C_30  and  C_34 
ROOT
HETATM    1  C   UNK     0     -19.504  34.673  49.111  0.00  0.00     0.060 A 
HETATM    2  C   UNK     0     -19.283  34.667  47.744  0.00  0.00     0.034 A 
HETATM    3  C   UNK     0     -20.289  35.116  46.890  0.00  0.00     0.071 A 
HETATM    4  C   UNK     0     -21.501  35.565  47.415  0.00  0.00    -0.006 A 
HETATM    5  C   UNK     0     -21.707  35.564  48.793  0.00  0.00    -0.001 A 
HETATM    6  C   UNK     0     -22.596  36.053  46.522  0.00  0.00     0.033 C 
HETATM    7  C   UNK     0     -20.701  35.114  49.648  0.00  0.00     0.017 A 
ENDROOT
BRANCH   1   8
HETATM    8  N   UNK     0     -18.483  34.216  49.979  0.00  0.00    -0.321 N 
HETATM    9  C   UNK     0     -18.371  32.971  50.617  0.00  0.00     0.258 C 
HETATM   10  O   UNK     0     -19.187  32.041  50.514  0.00  0.00    -0.267 OA
HETATM   11  H   UNK     0     -17.731  34.888  50.104  0.00  0.00     0.169 HD
BRANCH   9  12
HETATM   12  C   UNK     0     -17.212  32.803  51.479  0.00  0.00     0.056 A 
HETATM   13  C   UNK     0     -16.060  33.555  51.254  0.00  0.00     0.004 A 
HETATM   14  C   UNK     0     -14.947  33.392  52.080  0.00  0.00    -0.002 A 
HETATM   15  C   UNK     0     -14.999  32.477  53.121  0.00  0.00     0.011 A 
HETATM   16  C   UNK     0     -16.140  31.722  53.354  0.00  0.00    -0.002 A 
HETATM   17  C   UNK     0     -17.252  31.885  52.529  0.00  0.00     0.004 A 
BRANCH  15  18
HETATM   18  C   UNK     0     -13.799  32.301  54.014  0.00  0.00     0.277 C 
BRANCH  18  19
HETATM   19  N   UNK     0     -13.003  31.135  53.632  0.00  0.00     0.146 N 
HETATM   20  C   UNK     0     -12.732  30.284  54.797  0.00  0.00     0.286 C 
HETATM   21  C   UNK     0     -11.897  29.063  54.397  0.00  0.00     0.286 C 
HETATM   22  N   UNK     0     -10.640  29.474  53.760  0.00  0.00     0.143 N 
HETATM   23  C   UNK     0     -10.910  30.327  52.595  0.00  0.00     0.286 C 
HETATM   24  C   UNK     0      -9.846  28.309  53.377  0.00  0.00     0.285 C 
HETATM   25  C   UNK     0     -11.747  31.548  52.995  0.00  0.00     0.286 C 
ENDBRANCH  18  19
ENDBRANCH  15  18
ENDBRANCH   9  12
ENDBRANCH   1   8
BRANCH   3  26
HETATM   26  N   UNK     0     -20.066  35.110  45.495  0.00  0.00    -0.187 N 
HETATM   27  H   UNK     0     -20.520  34.358  44.990  0.00  0.00     0.184 HD
BRANCH  26  28
HETATM   28  C   UNK     0     -19.422  36.015  44.630  0.00  0.00     0.728 A 
HETATM   29  N   UNK     0     -19.489  37.321  44.961  0.00  0.00    -0.059 NA
HETATM   30  C   UNK     0     -18.861  38.160  44.111  0.00  0.00     0.120 A 
HETATM   31  C   UNK     0     -18.191  37.745  42.978  0.00  0.00     0.041 A 
HETATM   32  C   UNK     0     -18.193  36.384  42.748  0.00  0.00     0.103 A 
HETATM   33  N   UNK     0     -18.799  35.489  43.555  0.00  0.00    -0.061 NA
BRANCH  32  34
HETATM   34  C   UNK     0     -17.529  35.821  41.598  0.00  0.00     0.037 A 
HETATM   35  C   UNK     0     -17.630  36.420  40.346  0.00  0.00     0.005 A 
HETATM   36  C   UNK     0     -16.979  35.853  39.256  0.00  0.00     0.021 A 
HETATM   37  C   UNK     0     -16.246  34.697  39.467  0.00  0.00     0.099 A 
HETATM   38  N   UNK     0     -16.125  34.086  40.667  0.00  0.00    -0.242 NA
HETATM   39  C   UNK     0     -16.771  34.665  41.703  0.00  0.00     0.100 A 
ENDBRANCH  32  34
ENDBRANCH  26  28
ENDBRANCH   3  26
TORSDOF 7
ENDMDL
MODEL 2
REMARK VINA RESULT:      -8.1      6.525     11.613
REMARK  7 active torsions:
REMARK  status: ('A' for Active; 'I' for Inactive)
REMARK    1  A    between atoms: N_2  and  C_19 
REMARK       I    between atoms: N_2  and  C_3 
REMARK    2  A    between atoms: C_3  and  C_5 
REMARK    3  A    between atoms: C_8  and  C_11 
REMARK    4  A    between atoms: C_11  and  N_12 
REMARK    5  A    between atoms: C_21  and  N_26 
REMARK    6  A    between atoms: N_26  and  C_28 
REMARK    7  A    between atoms: C_30  and  C_34 
ROOT
HETATM    1  C   UNK     0     -24.672  35.623  47.478  0.00  0.00     0.060 A 
HETATM    2  C   UNK     0     -24.425  34.769  48.540  0.00  0.00     0.034 A 
HETATM    3  C   UNK     0     -25.495  34.306  49.304  0.00  0.00     0.071 A 
HETATM    4  C   UNK     0     -26.797  34.703  48.995  0.00  0.00    -0.006 A 
HETATM    5  C   UNK     0     -27.027  35.563  47.922  0.00  0.00    -0.001 A 
HETATM    6  C   UNK     0     -27.962  34.221  49.797  0.00  0.00     0.033 C 
HETATM    7  C   UNK     0     -25.956  36.027  47.158  0.00  0.00     0.017 A 
ENDROOT
BRANCH   1   8
HETATM    8  N   UNK     0     -23.585  36.094  46.702  0.00  0.00    -0.321 N 
HETATM    9  C   UNK     0     -23.260  37.416  46.366  0.00  0.00     0.258 C 
HETATM   10  O   UNK     0     -23.905  38.419  46.713  0.00  0.00    -0.267 OA
HETATM   11  H   UNK     0     -22.959  35.354  46.396  0.00  0.00     0.169 HD
BRANCH   9  12
HETATM   12  C   UNK     0     -22.087  37.587  45.525  0.00  0.00     0.056 A 
HETATM   13  C   UNK     0     -20.921  38.138  46.055  0.00  0.00     0.004 A 
HETATM   14  C   UNK     0     -19.796  38.303  45.247  0.00  0.00    -0.002 A 
HETATM   15  C   UNK     0     -19.849  37.915  43.916  0.00  0.00     0.011 A 
HETATM   16  C   UNK     0     -21.004  37.366  43.376  0.00  0.00    -0.002 A 
HETATM   17  C   UNK     0     -22.128  37.201  44.184  0.00  0.00     0.004 A 
BRANCH  15  18
HETATM   18  C   UNK     0     -18.635  38.092  43.043  0.00  0.00     0.277 C 
BRANCH  18  19
HETATM   19  N   UNK     0     -18.432  36.949  42.153  0.00  0.00     0.146 N 
HETATM   20  C   UNK     0     -17.445  36.020  42.715  0.00  0.00     0.286 C 
HETATM   21  C   UNK     0     -17.232  34.823  41.782  0.00  0.00     0.286 C 
HETATM   22  N   UNK     0     -16.815  35.267  40.446  0.00  0.00     0.143 N 
HETATM   23  C   UNK     0     -17.802  36.199  39.885  0.00  0.00     0.286 C 
HETATM   24  C   UNK     0     -16.615  34.125  39.558  0.00  0.00     0.285 C 
HETATM   25  C   UNK     0     -18.016  37.396  40.819  0.00  0.00     0.286 C 
ENDBRANCH  18  19
ENDBRANCH  15  18
ENDBRANCH   9  12
ENDBRANCH   1   8
BRANCH   3  26
HETATM   26  N   UNK     0     -25.245  33.436  50.389  0.00  0.00    -0.187 N 
HETATM   27  H   UNK     0     -25.769  33.640  51.233  0.00  0.00     0.184 HD
BRANCH  26  28
HETATM   28  C   UNK     0     -24.490  32.254  50.506  0.00  0.00     0.728 A 
HETATM   29  N   UNK     0     -23.164  32.399  50.701  0.00  0.00    -0.059 NA
HETATM   30  C   UNK     0     -22.471  31.246  50.810  0.00  0.00     0.120 A 
HETATM   31  C   UNK     0     -23.047  29.995  50.731  0.00  0.00     0.041 A 
HETATM   32  C   UNK     0     -24.412  29.978  50.530  0.00  0.00     0.103 A 
HETATM   33  N   UNK     0     -25.166  31.090  50.413  0.00  0.00    -0.061 NA
BRANCH  32  34
HETATM   34  C   UNK     0     -25.136  28.733  50.428  0.00  0.00     0.037 A 
HETATM   35  C   UNK     0     -25.191  27.845  51.497  0.00  0.00     0.005 A 
HETATM   36  C   UNK     0     -25.895  26.654  51.369  0.00  0.00     0.021 A 
HETATM   37  C   UNK     0     -26.523  26.399  50.161  0.00  0.00     0.099 A 
HETATM   38  N   UNK     0     -26.493  27.236  49.100  0.00  0.00    -0.242 NA
HETATM   39  C   UNK     0     -25.798  28.384  49.262  0.00  0.00     0.100 A 
ENDBRANCH  32  34
ENDBRANCH  26  28
ENDBRANCH   3  26
TORSDOF 7
ENDMDL
MODEL 3
REMARK VINA RESULT:      -7.9     11.063     15.545
REMARK  7 active torsions:
REMARK  status: ('A' for Active; 'I' for Inactive)
REMARK    1  A    between atoms: N_2  and  C_19 
REMARK       I    between atoms: N_2  and  C_3 
REMARK    2  A    between atoms: C_3  and  C_5 
REMARK    3  A    between atoms: C_8  and  C_11 
REMARK    4  A    between atoms: C_11  and  N_12 
REMARK    5  A    between atoms: C_21  and  N_26 
REMARK    6  A    between atoms: N_26  and  C_28 
REMARK    7  A    between atoms: C_30  and  C_34 
ROOT
HETATM    1  C   UNK     0      -7.473  29.807  55.314  0.00  0.00     0.060 A 
HETATM    2  C   UNK     0      -7.182  29.230  54.089  0.00  0.00     0.034 A 
HETATM    3  C   UNK     0      -8.100  29.345  53.047  0.00  0.00     0.071 A 
HETATM    4  C   UNK     0      -9.297  30.035  53.245  0.00  0.00    -0.006 A 
HETATM    5  C   UNK     0      -9.573  30.610  54.484  0.00  0.00    -0.001 A 
HETATM    6  C   UNK     0     -10.299  30.174  52.145  0.00  0.00     0.033 C 
HETATM    7  C   UNK     0      -8.654  30.495  55.527  0.00  0.00     0.017 A 
ENDROOT
BRANCH   1   8
HETATM    8  N   UNK     0      -6.540  29.689  56.373  0.00  0.00    -0.321 N 
HETATM    9  C   UNK     0      -6.789  29.593  57.751  0.00  0.00     0.258 C 
HETATM   10  O   UNK     0      -7.916  29.598  58.273  0.00  0.00    -0.267 OA
HETATM   11  H   UNK     0      -5.576  29.633  56.056  0.00  0.00     0.169 HD
BRANCH   9  12
HETATM   12  C   UNK     0      -5.615  29.511  58.603  0.00  0.00     0.056 A 
HETATM   13  C   UNK     0      -4.462  28.874  58.144  0.00  0.00     0.004 A 
HETATM   14  C   UNK     0      -3.336  28.793  58.963  0.00  0.00    -0.002 A 
HETATM   15  C   UNK     0      -3.374  29.350  60.234  0.00  0.00     0.011 A 
HETATM   16  C   UNK     0      -4.516  29.985  60.702  0.00  0.00    -0.002 A 
HETATM   17  C   UNK     0      -5.642  30.066  59.883  0.00  0.00     0.004 A 
BRANCH  15  18
HETATM   18  C   UNK     0      -2.159  29.264  61.118  0.00  0.00     0.277 C 
BRANCH  18  19
HETATM   19  N   UNK     0      -2.361  28.340  62.234  0.00  0.00     0.146 N 
HETATM   20  C   UNK     0      -1.713  28.842  63.451  0.00  0.00     0.286 C 
HETATM   21  C   UNK     0      -1.924  27.873  64.620  0.00  0.00     0.286 C 
HETATM   22  N   UNK     0      -1.421  26.535  64.288  0.00  0.00     0.143 N 
HETATM   23  C   UNK     0      -2.068  26.032  63.069  0.00  0.00     0.286 C 
HETATM   24  C   UNK     0      -1.626  25.613  65.402  0.00  0.00     0.285 C 
HETATM   25  C   UNK     0      -1.858  27.002  61.900  0.00  0.00     0.286 C 
ENDBRANCH  18  19
ENDBRANCH  15  18
ENDBRANCH   9  12
ENDBRANCH   1   8
BRANCH   3  26
HETATM   26  N   UNK     0      -7.806  28.756  51.798  0.00  0.00    -0.187 N 
HETATM   27  H   UNK     0      -8.495  28.093  51.462  0.00  0.00     0.184 HD
BRANCH  26  28
HETATM   28  C   UNK     0      -6.789  28.988  50.852  0.00  0.00     0.728 A 
HETATM   29  N   UNK     0      -6.978  30.016  49.999  0.00  0.00    -0.059 NA
HETATM   30  C   UNK     0      -5.984  30.211  49.108  0.00  0.00     0.120 A 
HETATM   31  C   UNK     0      -4.845  29.433  49.046  0.00  0.00     0.041 A 
HETATM   32  C   UNK     0      -4.768  28.413  49.973  0.00  0.00     0.103 A 
HETATM   33  N   UNK     0      -5.723  28.162  50.892  0.00  0.00    -0.061 NA
BRANCH  32  34
HETATM   34  C   UNK     0      -3.630  27.528  50.014  0.00  0.00     0.037 A 
HETATM   35  C   UNK     0      -3.108  26.973  48.850  0.00  0.00     0.005 A 
HETATM   36  C   UNK     0      -2.011  26.123  48.922  0.00  0.00     0.021 A 
HETATM   37  C   UNK     0      -1.474  25.861  50.172  0.00  0.00     0.099 A 
HETATM   38  N   UNK     0      -1.952  26.380  51.326  0.00  0.00    -0.242 NA
HETATM   39  C   UNK     0      -3.020  27.202  51.216  0.00  0.00     0.100 A 
ENDBRANCH  32  34
ENDBRANCH  26  28
ENDBRANCH   3  26
TORSDOF 7
ENDMDL
