MODEL 1
REMARK VINA RESULT:      -9.7      0.000      0.000
REMARK  7 active torsions:
REMARK  status: ('A' for Active; 'I' for Inactive)
REMARK    1  A    between atoms: N_2  and  C_19 
REMARK       I    between atoms: N_2  and  C_3 
REMARK    2  A    between atoms: C_3  and  C_5 
REMARK    3  A    between atoms: C_8  and  C_11 
REMARK    4  A    between atoms: C_11  and  N_12 
REMARK    5  A    between atoms: C_21  and  N_26 
REMARK    6  A    between atoms: N_26  and  C_28 
REMARK    7  A    between atoms: C_30  and  C_34 
ROOT
HETATM    1  C   UNK     0      10.723  10.502   9.752  0.00  0.00     0.060 A 
HETATM    2  C   UNK     0      10.388  10.292   8.425  0.00  0.00     0.034 A 
HETATM    3  C   UNK     0       9.961   9.027   8.023  0.00  0.00     0.071 A 
HETATM    4  C   UNK     0       9.874   7.992   8.954  0.00  0.00    -0.006 A 
HETATM    5  C   UNK     0      10.214   8.221  10.286  0.00  0.00    -0.001 A 
HETATM    6  C   UNK     0       9.418   6.627   8.551  0.00  0.00     0.033 C 
HETATM    7  C   UNK     0      10.642   9.486  10.688  0.00  0.00     0.017 A 
ENDROOT
BRANCH   1   8
HETATM    8  N   UNK     0      11.158  11.786  10.161  0.00  0.00    -0.321 N 
HETATM    9  C   UNK     0      11.022  12.396  11.417  0.00  0.00     0.258 C 
HETATM   10  O   UNK     0      10.476  11.880  12.404  0.00  0.00    -0.267 OA
HETATM   11  H   UNK     0      11.662  12.289   9.435  0.00  0.00     0.169 HD
BRANCH   9  12
HETATM   12  C   UNK     0      11.551  13.746  11.526  0.00  0.00     0.056 A 
HETATM   13  C   UNK     0      10.891  14.693  12.309  0.00  0.00     0.004 A 
HETATM   14  C   UNK     0      11.397  15.989  12.413  0.00  0.00    -0.002 A 
HETATM   15  C   UNK     0      12.558  16.325  11.731  0.00  0.00     0.011 A 
HETATM   16  C   UNK     0      13.223  15.392  10.948  0.00  0.00    -0.002 A 
HETATM   17  C   UNK     0      12.717  14.096  10.844  0.00  0.00     0.004 A 
BRANCH  15  18
HETATM   18  C   UNK     0      13.105  17.723  11.843  0.00  0.00     0.277 C 
BRANCH  18  19
HETATM   19  N   UNK     0      14.331  17.892  11.063  0.00  0.00     0.146 N 
HETATM   20  C   UNK     0      15.468  18.200  11.939  0.00  0.00     0.286 C 
HETATM   21  C   UNK     0      16.752  18.378  11.121  0.00  0.00     0.286 C 
HETATM   22  N   UNK     0      16.586  19.428  10.109  0.00  0.00     0.143 N 
HETATM   23  C   UNK     0      15.447  19.122   9.234  0.00  0.00     0.286 C 
HETATM   24  C   UNK     0      17.810  19.595   9.329  0.00  0.00     0.285 C 
HETATM   25  C   UNK     0      14.163  18.942  10.052  0.00  0.00     0.286 C 
ENDBRANCH  18  19
ENDBRANCH  15  18
ENDBRANCH   9  12
ENDBRANCH   1   8
BRANCH   3  26
HETATM   26  N   UNK     0       9.620   8.810   6.669  0.00  0.00    -0.187 N 
HETATM   27  H   UNK     0       8.628   8.718   6.485  0.00  0.00     0.184 HD
BRANCH  26  28
HETATM   28  C   UNK     0      10.381   8.808   5.485  0.00  0.00     0.728 A 
HETATM   29  N   UNK     0      11.611   8.259   5.555  0.00  0.00    -0.059 NA
HETATM   30  C   UNK     0      12.312   8.273   4.403  0.00  0.00     0.120 A 
HETATM   31  C   UNK     0      11.835   8.804   3.221  0.00  0.00     0.041 A 
HETATM   32  C   UNK     0      10.563   9.337   3.277  0.00  0.00     0.103 A 
HETATM   33  N   UNK     0       9.807   9.355   4.393  0.00  0.00    -0.061 NA
BRANCH  32  34
HETATM   34  C   UNK     0       9.948   9.923   2.111  0.00  0.00     0.037 A 
HETATM   35  C   UNK     0      10.426   9.650   0.833  0.00  0.00     0.005 A 
HETATM   36  C   UNK     0       9.813  10.230  -0.271  0.00  0.00     0.021 A 
HETATM   37  C   UNK     0       8.735  11.071  -0.048  0.00  0.00     0.099 A 
HETATM   38  N   UNK     0       8.242  11.361   1.177  0.00  0.00    -0.242 NA
HETATM   39  C   UNK     0       8.864  10.778   2.227  0.00  0.00     0.100 A 
ENDBRANCH  32  34
ENDBRANCH  26  28
ENDBRANCH   3  26
TORSDOF 7
ENDMDL
MODEL 2
REMARK VINA RESULT:      -9.3      6.408     12.267
REMARK  7 active torsions:
REMARK  status: ('A' for Active; 'I' for Inactive)
REMARK    1  A    between atoms: N_2  and  C_19 
REMARK       I    between atoms: N_2  and  C_3 
REMARK    2  A    between atoms: C_3  and  C_5 
REMARK    3  A    between atoms: C_8  and  C_11 
REMARK    4  A    between atoms: C_11  and  N_12 
REMARK    5  A    between atoms: C_21  and  N_26 
REMARK    6  A    between atoms: N_26  and  C_28 
REMARK    7  A    between atoms: C_30  and  C_34 
ROOT
HETATM    1  C   UNK     0       8.834   9.827  13.356  0.00  0.00     0.060 A 
HETATM    2  C   UNK     0       8.539   8.799  14.235  0.00  0.00     0.034 A 
HETATM    3  C   UNK     0       8.338   9.092  15.583  0.00  0.00     0.071 A 
HETATM    4  C   UNK     0       8.436  10.409  16.033  0.00  0.00    -0.006 A 
HETATM    5  C   UNK     0       8.733  11.432  15.134  0.00  0.00    -0.001 A 
HETATM    6  C   UNK     0       8.224  10.751  17.472  0.00  0.00     0.033 C 
HETATM    7  C   UNK     0       8.935  11.139  13.785  0.00  0.00     0.017 A 
ENDROOT
BRANCH   1   8
HETATM    8  N   UNK     0       9.039   9.530  11.987  0.00  0.00    -0.321 N 
HETATM    9  C   UNK     0      10.137   8.897  11.386  0.00  0.00     0.258 C 
HETATM   10  O   UNK     0      11.141   8.484  11.989  0.00  0.00    -0.267 OA
HETATM   11  H   UNK     0       8.253   9.789  11.397  0.00  0.00     0.169 HD
BRANCH   9  12
HETATM   12  C   UNK     0      10.073   8.754   9.940  0.00  0.00     0.056 A 
HETATM   13  C   UNK     0      10.100   7.486   9.361  0.00  0.00     0.004 A 
HETATM   14  C   UNK     0      10.040   7.349   7.975  0.00  0.00    -0.002 A 
HETATM   15  C   UNK     0       9.955   8.483   7.180  0.00  0.00     0.011 A 
HETATM   16  C   UNK     0       9.928   9.751   7.744  0.00  0.00    -0.002 A 
HETATM   17  C   UNK     0       9.988   9.888   9.131  0.00  0.00     0.004 A 
BRANCH  15  18
HETATM   18  C   UNK     0       9.890   8.337   5.683  0.00  0.00     0.277 C 
BRANCH  18  19
HETATM   19  N   UNK     0      10.289   9.566   4.998  0.00  0.00     0.146 N 
HETATM   20  C   UNK     0       9.353   9.885   3.913  0.00  0.00     0.286 C 
HETATM   21  C   UNK     0       9.772  11.172   3.194  0.00  0.00     0.286 C 
HETATM   22  N   UNK     0      11.140  11.060   2.674  0.00  0.00     0.143 N 
HETATM   23  C   UNK     0      12.076  10.739   3.759  0.00  0.00     0.286 C 
HETATM   24  C   UNK     0      11.538  12.288   1.991  0.00  0.00     0.285 C 
HETATM   25  C   UNK     0      11.657   9.452   4.478  0.00  0.00     0.286 C 
ENDBRANCH  18  19
ENDBRANCH  15  18
ENDBRANCH   9  12
ENDBRANCH   1   8
BRANCH   3  26
HETATM   26  N   UNK     0       8.038   8.043  16.481  0.00  0.00    -0.187 N 
HETATM   27  H   UNK     0       7.049   7.888  16.644  0.00  0.00     0.184 HD
BRANCH  26  28
HETATM   28  C   UNK     0       8.839   7.080  17.121  0.00  0.00     0.728 A 
HETATM   29  N   UNK     0      10.175   7.236  17.018  0.00  0.00    -0.059 NA
HETATM   30  C   UNK     0      10.912   6.295  17.643  0.00  0.00     0.120 A 
HETATM   31  C   UNK     0      10.371   5.238  18.346  0.00  0.00     0.041 A 
HETATM   32  C   UNK     0       8.992   5.188  18.381  0.00  0.00     0.103 A 
HETATM   33  N   UNK     0       8.194   6.093  17.779  0.00  0.00    -0.061 NA
BRANCH  32  34
HETATM   34  C   UNK     0       8.301   4.132  19.081  0.00  0.00     0.037 A 
HETATM   35  C   UNK     0       8.263   2.838  18.573  0.00  0.00     0.005 A 
HETATM   36  C   UNK     0       7.590   1.842  19.271  0.00  0.00     0.021 A 
HETATM   37  C   UNK     0       6.974   2.189  20.463  0.00  0.00     0.099 A 
HETATM   38  N   UNK     0       6.988   3.434  20.989  0.00  0.00    -0.242 NA
HETATM   39  C   UNK     0       7.653   4.376  20.282  0.00  0.00     0.100 A 
ENDBRANCH  32  34
ENDBRANCH  26  28
ENDBRANCH   3  26
TORSDOF 7
ENDMDL
MODEL 3
REMARK VINA RESULT:      -9.2      5.306     11.654
REMARK  7 active torsions:
REMARK  status: ('A' for Active; 'I' for Inactive)
REMARK    1  A    between atoms: N_2  and  C_19 
REMARK       I    between atoms: N_2  and  C_3 
REMARK    2  A    between atoms: C_3  and  C_5 
REMARK    3  A    between atoms: C_8  and  C_11 
REMARK    4  A    between atoms: C_11  and  N_12 
REMARK    5  A    between atoms: C_21  and  N_26 
REMARK    6  A    between atoms: N_26  and  C_28 
REMARK    7  A    between atoms: C_30  and  C_34 
ROOT
HETATM    1  C   UNK     0       9.607  11.068  13.115  0.00  0.00     0.060 A 
HETATM    2  C   UNK     0       8.622  10.615  13.977  0.00  0.00     0.034 A 
HETATM    3  C   UNK     0       8.536  11.159  15.257  0.00  0.00     0.071 A 
HETATM    4  C   UNK     0       9.436  12.147  15.658  0.00  0.00    -0.006 A 
HETATM    5  C   UNK     0      10.421  12.591  14.778  0.00  0.00    -0.001 A 
HETATM    6  C   UNK     0       9.365  12.747  17.025  0.00  0.00     0.033 C 
HETATM    7  C   UNK     0      10.508  12.047  13.496  0.00  0.00     0.017 A 
ENDROOT
BRANCH   1   8
HETATM    8  N   UNK     0       9.696  10.515  11.814  0.00  0.00    -0.321 N 
HETATM    9  C   UNK     0      10.284   9.305  11.417  0.00  0.00     0.258 C 
HETATM   10  O   UNK     0      10.841   8.499  12.181  0.00  0.00    -0.267 OA
HETATM   11  H   UNK     0       9.230  11.076  11.106  0.00  0.00     0.169 HD
BRANCH   9  12
HETATM   12  C   UNK     0      10.242   9.017   9.993  0.00  0.00     0.056 A 
HETATM   13  C   UNK     0      10.187  10.061   9.070  0.00  0.00     0.004 A 
HETATM   14  C   UNK     0      10.146   9.784   7.704  0.00  0.00    -0.002 A 
HETATM   15  C   UNK     0      10.159   8.465   7.274  0.00  0.00     0.011 A 
HETATM   16  C   UNK     0      10.213   7.417   8.182  0.00  0.00    -0.002 A 
HETATM   17  C   UNK     0      10.255   7.694   9.548  0.00  0.00     0.004 A 
BRANCH  15  18
HETATM   18  C   UNK     0      10.115   8.166   5.799  0.00  0.00     0.277 C 
BRANCH  18  19
HETATM   19  N   UNK     0      10.327   9.367   4.992  0.00  0.00     0.146 N 
HETATM   20  C   UNK     0       9.306   9.477   3.944  0.00  0.00     0.286 C 
HETATM   21  C   UNK     0       9.528  10.736   3.098  0.00  0.00     0.286 C 
HETATM   22  N   UNK     0      10.872  10.738   2.506  0.00  0.00     0.143 N 
HETATM   23  C   UNK     0      11.894  10.626   3.555  0.00  0.00     0.286 C 
HETATM   24  C   UNK     0      11.083  11.940   1.702  0.00  0.00     0.285 C 
HETATM   25  C   UNK     0      11.670   9.368   4.402  0.00  0.00     0.286 C 
ENDBRANCH  18  19
ENDBRANCH  15  18
ENDBRANCH   9  12
ENDBRANCH   1   8
BRANCH   3  26
HETATM   26  N   UNK     0       7.532  10.697  16.138  0.00  0.00    -0.187 N 
HETATM   27  H   UNK     0       6.651  11.195  16.083  0.00  0.00     0.184 HD
BRANCH  26  28
HETATM   28  C   UNK     0       7.466   9.597  17.013  0.00  0.00     0.728 A 
HETATM   29  N   UNK     0       6.386   9.525  17.817  0.00  0.00    -0.059 NA
HETATM   30  C   UNK     0       6.355   8.457  18.641  0.00  0.00     0.120 A 
HETATM   31  C   UNK     0       7.340   7.491  18.683  0.00  0.00     0.041 A 
HETATM   32  C   UNK     0       8.394   7.675  17.811  0.00  0.00     0.103 A 
HETATM   33  N   UNK     0       8.489   8.718  16.960  0.00  0.00    -0.061 NA
BRANCH  32  34
HETATM   34  C   UNK     0       9.489   6.738  17.756  0.00  0.00     0.037 A 
HETATM   35  C   UNK     0      10.633   7.012  17.013  0.00  0.00     0.005 A 
HETATM   36  C   UNK     0      11.672   6.089  16.979  0.00  0.00     0.021 A 
HETATM   37  C   UNK     0      11.519   4.915  17.699  0.00  0.00     0.099 A 
HETATM   38  N   UNK     0      10.424   4.612  18.431  0.00  0.00    -0.242 NA
HETATM   39  C   UNK     0       9.435   5.534  18.441  0.00  0.00     0.100 A 
ENDBRANCH  32  34
ENDBRANCH  26  28
ENDBRANCH   3  26
TORSDOF 7
ENDMDL
