MODEL 1
REMARK VINA RESULT:      -8.0      0.000      0.000
REMARK  13 active torsions:
REMARK  status: ('A' for Active; 'I' for Inactive)
REMARK    1  A    between atoms: O_1  and  C_23 
REMARK    2  A    between atoms: O_4  and  C_28 
REMARK    3  A    between atoms: N_6  and  C_16 
REMARK    4  A    between atoms: N_6  and  C_18 
REMARK    5  A    between atoms: N_7  and  C_14 
REMARK       I    between atoms: N_7  and  C_20 
REMARK    6  A    between atoms: N_12  and  C_32 
REMARK    7  A    between atoms: N_13  and  C_33 
REMARK    8  A    between atoms: C_14  and  C_15 
REMARK    9  A    between atoms: C_14  and  C_23 
REMARK   10  A    between atoms: C_15  and  C_17 
REMARK   11  A    between atoms: C_17  and  C_28 
REMARK   12  A    between atoms: C_18  and  C_26 
REMARK   13  A    between atoms: C_19  and  C_20 
ROOT
HETATM    1  C   UNK     0       7.946  13.307   6.313  0.00  0.00     0.030 A 
HETATM    2  C   UNK     0       7.298  13.577   9.013  0.00  0.00     0.032 A 
HETATM    3  C   UNK     0       6.685  13.776   6.685  0.00  0.00     0.030 A 
HETATM    4  C   UNK     0       8.882  12.973   7.293  0.00  0.00     0.030 A 
HETATM    5  C   UNK     0       6.361  13.911   8.035  0.00  0.00     0.019 A 
HETATM    6  C   UNK     0       8.558  13.109   8.643  0.00  0.00     0.019 A 
ENDROOT
BRANCH   1   7
HETATM    7  N   UNK     0       8.273  13.169   4.948  0.00  0.00    -0.379 N 
HETATM    8  C   UNK     0       8.911  11.961   4.465  0.00  0.00     0.150 C 
BRANCH   7   9
HETATM    9  C   UNK     0       7.962  14.228   4.009  0.00  0.00     0.183 C 
BRANCH   9  10
HETATM   10  C   UNK     0       9.214  14.722   3.339  0.00  0.00     0.070 A 
HETATM   11  N   UNK     0       9.184  14.904   2.010  0.00  0.00    -0.242 NA
HETATM   12  C   UNK     0      10.312  15.348   1.424  0.00  0.00     0.151 A 
HETATM   13  C   UNK     0      11.475  15.614   2.150  0.00  0.00     0.201 A 
HETATM   14  C   UNK     0      10.385  15.568   0.061  0.00  0.00     0.173 A 
HETATM   15  N   UNK     0      11.474  15.423   3.475  0.00  0.00    -0.237 NA
HETATM   16  N   UNK     0      12.584  16.055   1.543  0.00  0.00    -0.041 NA
HETATM   17  C   UNK     0      10.346  14.980   4.063  0.00  0.00     0.148 A 
HETATM   18  C   UNK     0      12.533  16.230   0.210  0.00  0.00     0.724 A 
HETATM   19  N   UNK     0      11.480  16.008  -0.585  0.00  0.00    -0.043 NA
BRANCH  18  20
HETATM   20  N   UNK     0      13.712  16.695  -0.413  0.00  0.00    -0.231 N 
HETATM   21  H   UNK     0      14.598  16.591   0.061  0.00  0.00     0.174 HD
HETATM   22  H   UNK     0      13.655  17.126  -1.324  0.00  0.00     0.174 HD
ENDBRANCH  18  20
BRANCH  14  23
HETATM   23  N   UNK     0       9.227  15.309  -0.717  0.00  0.00    -0.381 N 
HETATM   24  H   UNK     0       8.910  16.049  -1.330  0.00  0.00     0.157 HD
HETATM   25  H   UNK     0       9.025  14.351  -0.972  0.00  0.00     0.157 HD
ENDBRANCH  14  23
ENDBRANCH   9  10
ENDBRANCH   7   9
ENDBRANCH   1   7
BRANCH   2  26
HETATM   26  C   UNK     0       6.952  13.721  10.452  0.00  0.00     0.252 C 
HETATM   27  O   UNK     0       6.317  12.829  11.007  0.00  0.00    -0.268 OA
HETATM   28  N   UNK     0       7.408  14.876  11.074  0.00  0.00    -0.343 N 
HETATM   29  H   UNK     0       7.998  15.530  10.570  0.00  0.00     0.163 HD
BRANCH  28  30
HETATM   30  C   UNK     0       7.175  15.147  12.469  0.00  0.00     0.183 C 
BRANCH  30  31
HETATM   31  C   UNK     0       8.243  14.530  13.380  0.00  0.00     0.046 C 
BRANCH  31  32
HETATM   32  C   UNK     0       9.515  15.364  13.579  0.00  0.00     0.112 C 
BRANCH  32  33
HETATM   33  C   UNK     0      10.512  15.237  12.448  0.00  0.00     0.139 C 
HETATM   34  O   UNK     0      11.388  14.387  12.367  0.00  0.00    -0.650 OA
BRANCH  33  35
HETATM   35  O   UNK     0      10.349  16.219  11.525  0.00  0.00    -0.776 OA
HETATM   36  H   UNK     0      10.487  15.890  10.611  0.00  0.00     0.167 HD
ENDBRANCH  33  35
ENDBRANCH  32  33
ENDBRANCH  31  32
ENDBRANCH  30  31
BRANCH  30  37
HETATM   37  C   UNK     0       7.030  16.647  12.627  0.00  0.00     0.163 C 
HETATM   38  O   UNK     0       6.500  17.209  13.577  0.00  0.00    -0.648 OA
BRANCH  37  39
HETATM   39  O   UNK     0       7.597  17.323  11.594  0.00  0.00    -0.775 OA
HETATM   40  H   UNK     0       8.561  17.153  11.531  0.00  0.00     0.167 HD
ENDBRANCH  37  39
ENDBRANCH  30  37
ENDBRANCH  28  30
ENDBRANCH   2  26
TORSDOF 13
ENDMDL
MODEL 2
REMARK VINA RESULT:      -8.0      1.329      1.804
REMARK  13 active torsions:
REMARK  status: ('A' for Active; 'I' for Inactive)
REMARK    1  A    between atoms: O_1  and  C_23 
REMARK    2  A    between atoms: O_4  and  C_28 
REMARK    3  A    between atoms: N_6  and  C_16 
REMARK    4  A    between atoms: N_6  and  C_18 
REMARK    5  A    between atoms: N_7  and  C_14 
REMARK       I    between atoms: N_7  and  C_20 
REMARK    6  A    between atoms: N_12  and  C_32 
REMARK    7  A    between atoms: N_13  and  C_33 
REMARK    8  A    between atoms: C_14  and  C_15 
REMARK    9  A    between atoms: C_14  and  C_23 
REMARK   10  A    between atoms: C_15  and  C_17 
REMARK   11  A    between atoms: C_17  and  C_28 
REMARK   12  A    between atoms: C_18  and  C_26 
REMARK   13  A    between atoms: C_19  and  C_20 
ROOT
HETATM    1  C   UNK     0       7.816  13.823   5.637  0.00  0.00     0.030 A 
HETATM    2  C   UNK     0       7.448  13.201   8.331  0.00  0.00     0.032 A 
HETATM    3  C   UNK     0       6.585  14.069   6.248  0.00  0.00     0.030 A 
HETATM    4  C   UNK     0       8.861  13.266   6.374  0.00  0.00     0.030 A 
HETATM    5  C   UNK     0       6.401  13.758   7.595  0.00  0.00     0.019 A 
HETATM    6  C   UNK     0       8.677  12.955   7.721  0.00  0.00     0.019 A 
ENDROOT
BRANCH   1   7
HETATM    7  N   UNK     0       8.002  14.137   4.274  0.00  0.00    -0.379 N 
HETATM    8  C   UNK     0       7.296  15.253   3.676  0.00  0.00     0.150 C 
BRANCH   7   9
HETATM    9  C   UNK     0       8.911  13.357   3.458  0.00  0.00     0.183 C 
BRANCH   9  10
HETATM   10  C   UNK     0       9.950  14.247   2.832  0.00  0.00     0.070 A 
HETATM   11  N   UNK     0       9.789  14.588   1.544  0.00  0.00    -0.242 NA
HETATM   12  C   UNK     0      10.725  15.385   0.997  0.00  0.00     0.151 A 
HETATM   13  C   UNK     0      11.827  15.848   1.720  0.00  0.00     0.201 A 
HETATM   14  C   UNK     0      10.652  15.793  -0.322  0.00  0.00     0.173 A 
HETATM   15  N   UNK     0      11.959  15.491   3.003  0.00  0.00    -0.237 NA
HETATM   16  N   UNK     0      12.745  16.640   1.153  0.00  0.00    -0.041 NA
HETATM   17  C   UNK     0      11.023  14.694   3.553  0.00  0.00     0.148 A 
HETATM   18  C   UNK     0      12.564  16.970  -0.140  0.00  0.00     0.724 A 
HETATM   19  N   UNK     0      11.553  16.586  -0.928  0.00  0.00    -0.043 NA
BRANCH  18  20
HETATM   20  N   UNK     0      13.542  17.805  -0.722  0.00  0.00    -0.231 N 
HETATM   21  H   UNK     0      13.470  18.806  -0.613  0.00  0.00     0.174 HD
HETATM   22  H   UNK     0      14.303  17.391  -1.242  0.00  0.00     0.174 HD
ENDBRANCH  18  20
BRANCH  14  23
HETATM   23  N   UNK     0       9.550  15.345  -1.096  0.00  0.00    -0.381 N 
HETATM   24  H   UNK     0       8.947  14.648  -0.678  0.00  0.00     0.157 HD
HETATM   25  H   UNK     0       9.154  15.979  -1.778  0.00  0.00     0.157 HD
ENDBRANCH  14  23
ENDBRANCH   9  10
ENDBRANCH   7   9
ENDBRANCH   1   7
BRANCH   2  26
HETATM   26  C   UNK     0       7.251  12.870   9.766  0.00  0.00     0.252 C 
HETATM   27  O   UNK     0       7.169  11.692  10.104  0.00  0.00    -0.268 OA
HETATM   28  N   UNK     0       7.197  13.949  10.638  0.00  0.00    -0.343 N 
HETATM   29  H   UNK     0       7.354  14.891  10.296  0.00  0.00     0.163 HD
BRANCH  28  30
HETATM   30  C   UNK     0       7.035  13.789  12.060  0.00  0.00     0.183 C 
BRANCH  30  31
HETATM   31  C   UNK     0       8.158  14.456  12.864  0.00  0.00     0.046 C 
BRANCH  31  32
HETATM   32  C   UNK     0       8.988  15.503  12.111  0.00  0.00     0.112 C 
BRANCH  32  33
HETATM   33  C   UNK     0       8.560  16.930  12.379  0.00  0.00     0.139 C 
HETATM   34  O   UNK     0       9.120  17.707  13.140  0.00  0.00    -0.650 OA
BRANCH  33  35
HETATM   35  O   UNK     0       7.433  17.252  11.695  0.00  0.00    -0.776 OA
HETATM   36  H   UNK     0       7.508  17.035  10.741  0.00  0.00     0.167 HD
ENDBRANCH  33  35
ENDBRANCH  32  33
ENDBRANCH  31  32
ENDBRANCH  30  31
BRANCH  30  37
HETATM   37  C   UNK     0       5.649  14.281  12.423  0.00  0.00     0.163 C 
HETATM   38  O   UNK     0       4.601  13.832  11.977  0.00  0.00    -0.648 OA
BRANCH  37  39
HETATM   39  O   UNK     0       5.689  15.276  13.348  0.00  0.00    -0.775 OA
HETATM   40  H   UNK     0       6.048  16.108  12.974  0.00  0.00     0.167 HD
ENDBRANCH  37  39
ENDBRANCH  30  37
ENDBRANCH  28  30
ENDBRANCH   2  26
TORSDOF 13
ENDMDL
MODEL 3
REMARK VINA RESULT:      -8.0      1.486      2.469
REMARK  13 active torsions:
REMARK  status: ('A' for Active; 'I' for Inactive)
REMARK    1  A    between atoms: O_1  and  C_23 
REMARK    2  A    between atoms: O_4  and  C_28 
REMARK    3  A    between atoms: N_6  and  C_16 
REMARK    4  A    between atoms: N_6  and  C_18 
REMARK    5  A    between atoms: N_7  and  C_14 
REMARK       I    between atoms: N_7  and  C_20 
REMARK    6  A    between atoms: N_12  and  C_32 
REMARK    7  A    between atoms: N_13  and  C_33 
REMARK    8  A    between atoms: C_14  and  C_15 
REMARK    9  A    between atoms: C_14  and  C_23 
REMARK   10  A    between atoms: C_15  and  C_17 
REMARK   11  A    between atoms: C_17  and  C_28 
REMARK   12  A    between atoms: C_18  and  C_26 
REMARK   13  A    between atoms: C_19  and  C_20 
ROOT
HETATM    1  C   UNK     0       7.916  13.749   5.578  0.00  0.00     0.030 A 
HETATM    2  C   UNK     0       7.765  13.108   8.289  0.00  0.00     0.032 A 
HETATM    3  C   UNK     0       6.763  14.051   6.303  0.00  0.00     0.030 A 
HETATM    4  C   UNK     0       8.993  13.126   6.209  0.00  0.00     0.030 A 
HETATM    5  C   UNK     0       6.687  13.731   7.659  0.00  0.00     0.019 A 
HETATM    6  C   UNK     0       8.918  12.806   7.565  0.00  0.00     0.019 A 
ENDROOT
BRANCH   1   7
HETATM    7  N   UNK     0       7.992  14.072   4.207  0.00  0.00    -0.379 N 
HETATM    8  C   UNK     0       7.322  15.250   3.694  0.00  0.00     0.150 C 
BRANCH   7   9
HETATM    9  C   UNK     0       8.754  13.240   3.297  0.00  0.00     0.183 C 
BRANCH   9  10
HETATM   10  C   UNK     0       9.537  14.091   2.336  0.00  0.00     0.070 A 
HETATM   11  N   UNK     0      10.761  14.494   2.709  0.00  0.00    -0.242 NA
HETATM   12  C   UNK     0      11.451  15.254   1.837  0.00  0.00     0.151 A 
HETATM   13  C   UNK     0      10.932  15.621   0.593  0.00  0.00     0.201 A 
HETATM   14  C   UNK     0      12.720  15.720   2.125  0.00  0.00     0.173 A 
HETATM   15  N   UNK     0       9.708  15.203   0.250  0.00  0.00    -0.237 NA
HETATM   16  N   UNK     0      11.638  16.378  -0.255  0.00  0.00    -0.041 NA
HETATM   17  C   UNK     0       9.016  14.442   1.120  0.00  0.00     0.148 A 
HETATM   18  C   UNK     0      12.864  16.771   0.138  0.00  0.00     0.724 A 
HETATM   19  N   UNK     0      13.460  16.483   1.301  0.00  0.00    -0.043 NA
BRANCH  18  20
HETATM   20  N   UNK     0      13.593  17.570  -0.769  0.00  0.00    -0.231 N 
HETATM   21  H   UNK     0      13.860  17.187  -1.665  0.00  0.00     0.174 HD
HETATM   22  H   UNK     0      13.841  18.515  -0.511  0.00  0.00     0.174 HD
ENDBRANCH  18  20
BRANCH  14  23
HETATM   23  N   UNK     0      13.287  15.373   3.379  0.00  0.00    -0.381 N 
HETATM   24  H   UNK     0      13.526  14.400   3.523  0.00  0.00     0.157 HD
HETATM   25  H   UNK     0      13.813  16.078   3.879  0.00  0.00     0.157 HD
ENDBRANCH  14  23
ENDBRANCH   9  10
ENDBRANCH   7   9
ENDBRANCH   1   7
BRANCH   2  26
HETATM   26  C   UNK     0       7.684  12.767   9.733  0.00  0.00     0.252 C 
HETATM   27  O   UNK     0       7.454  11.606  10.063  0.00  0.00    -0.268 OA
HETATM   28  N   UNK     0       7.904  13.813  10.618  0.00  0.00    -0.343 N 
HETATM   29  H   UNK     0       8.171  14.729  10.272  0.00  0.00     0.163 HD
BRANCH  28  30
HETATM   30  C   UNK     0       7.884  13.635  12.048  0.00  0.00     0.183 C 
BRANCH  30  31
HETATM   31  C   UNK     0       8.893  14.535  12.772  0.00  0.00     0.046 C 
BRANCH  31  32
HETATM   32  C   UNK     0       9.324  15.799  12.017  0.00  0.00     0.112 C 
BRANCH  32  33
HETATM   33  C   UNK     0       8.581  17.047  12.441  0.00  0.00     0.139 C 
HETATM   34  O   UNK     0       8.889  17.773  13.375  0.00  0.00    -0.650 OA
BRANCH  33  35
HETATM   35  O   UNK     0       7.482  17.259  11.673  0.00  0.00    -0.776 OA
HETATM   36  H   UNK     0       6.735  16.679  11.933  0.00  0.00     0.167 HD
ENDBRANCH  33  35
ENDBRANCH  32  33
ENDBRANCH  31  32
ENDBRANCH  30  31
BRANCH  30  37
HETATM   37  C   UNK     0       6.454  13.823  12.513  0.00  0.00     0.163 C 
HETATM   38  O   UNK     0       5.928  14.900  12.760  0.00  0.00    -0.648 OA
BRANCH  37  39
HETATM   39  O   UNK     0       5.787  12.642  12.592  0.00  0.00    -0.775 OA
HETATM   40  H   UNK     0       5.097  12.658  13.288  0.00  0.00     0.167 HD
ENDBRANCH  37  39
ENDBRANCH  30  37
ENDBRANCH  28  30
ENDBRANCH   2  26
TORSDOF 13
ENDMDL
