MODEL 1
REMARK VINA RESULT:      -8.9      0.000      0.000
REMARK  13 active torsions:
REMARK  status: ('A' for Active; 'I' for Inactive)
REMARK    1  A    between atoms: O_1  and  C_23 
REMARK    2  A    between atoms: O_4  and  C_28 
REMARK    3  A    between atoms: N_6  and  C_16 
REMARK    4  A    between atoms: N_6  and  C_18 
REMARK    5  A    between atoms: N_7  and  C_14 
REMARK       I    between atoms: N_7  and  C_20 
REMARK    6  A    between atoms: N_12  and  C_32 
REMARK    7  A    between atoms: N_13  and  C_33 
REMARK    8  A    between atoms: C_14  and  C_15 
REMARK    9  A    between atoms: C_14  and  C_23 
REMARK   10  A    between atoms: C_15  and  C_17 
REMARK   11  A    between atoms: C_17  and  C_28 
REMARK   12  A    between atoms: C_18  and  C_26 
REMARK   13  A    between atoms: C_19  and  C_20 
ROOT
HETATM    1  C   UNK     0      52.750  -7.096  35.751  0.00  0.00     0.030 A 
HETATM    2  C   UNK     0      51.147  -5.181  34.507  0.00  0.00     0.032 A 
HETATM    3  C   UNK     0      51.547  -7.475  35.153  0.00  0.00     0.030 A 
HETATM    4  C   UNK     0      53.150  -5.760  35.726  0.00  0.00     0.030 A 
HETATM    5  C   UNK     0      50.746  -6.517  34.531  0.00  0.00     0.019 A 
HETATM    6  C   UNK     0      52.349  -4.803  35.104  0.00  0.00     0.019 A 
ENDROOT
BRANCH   1   7
HETATM    7  N   UNK     0      53.560  -8.064  36.380  0.00  0.00    -0.379 N 
HETATM    8  C   UNK     0      54.830  -7.688  36.968  0.00  0.00     0.150 C 
BRANCH   7   9
HETATM    9  C   UNK     0      53.125  -9.445  36.461  0.00  0.00     0.183 C 
BRANCH   9  10
HETATM   10  C   UNK     0      53.851 -10.285  35.446  0.00  0.00     0.070 A 
HETATM   11  N   UNK     0      53.422 -10.242  34.176  0.00  0.00    -0.242 NA
HETATM   12  C   UNK     0      54.082 -10.999  33.278  0.00  0.00     0.151 A 
HETATM   13  C   UNK     0      55.168 -11.803  33.634  0.00  0.00     0.201 A 
HETATM   14  C   UNK     0      53.719 -11.026  31.945  0.00  0.00     0.173 A 
HETATM   15  N   UNK     0      55.572 -11.823  34.910  0.00  0.00    -0.237 NA
HETATM   16  N   UNK     0      55.807 -12.546  32.722  0.00  0.00    -0.041 NA
HETATM   17  C   UNK     0      54.914 -11.066  35.809  0.00  0.00     0.148 A 
HETATM   18  C   UNK     0      55.361 -12.489  31.454  0.00  0.00     0.724 A 
HETATM   19  N   UNK     0      54.334 -11.760  31.000  0.00  0.00    -0.043 NA
BRANCH  18  20
HETATM   20  N   UNK     0      56.046 -13.280  30.506  0.00  0.00    -0.231 N 
HETATM   21  H   UNK     0      56.026 -13.017  29.531  0.00  0.00     0.174 HD
HETATM   22  H   UNK     0      56.547 -14.101  30.814  0.00  0.00     0.174 HD
ENDBRANCH  18  20
BRANCH  14  23
HETATM   23  N   UNK     0      52.620 -10.226  31.538  0.00  0.00    -0.381 N 
HETATM   24  H   UNK     0      51.721 -10.685  31.462  0.00  0.00     0.157 HD
HETATM   25  H   UNK     0      52.640  -9.238  31.754  0.00  0.00     0.157 HD
ENDBRANCH  14  23
ENDBRANCH   9  10
ENDBRANCH   7   9
ENDBRANCH   1   7
BRANCH   2  26
HETATM   26  C   UNK     0      50.293  -4.162  33.844  0.00  0.00     0.252 C 
HETATM   27  O   UNK     0      49.087  -4.148  34.076  0.00  0.00    -0.268 OA
HETATM   28  N   UNK     0      50.950  -3.267  33.011  0.00  0.00    -0.343 N 
HETATM   29  H   UNK     0      51.961  -3.288  32.932  0.00  0.00     0.163 HD
BRANCH  28  30
HETATM   30  C   UNK     0      50.263  -2.207  32.318  0.00  0.00     0.183 C 
BRANCH  30  31
HETATM   31  C   UNK     0      51.060  -0.897  32.299  0.00  0.00     0.046 C 
BRANCH  31  32
HETATM   32  C   UNK     0      50.607   0.148  31.271  0.00  0.00     0.112 C 
BRANCH  32  33
HETATM   33  C   UNK     0      49.289   0.809  31.613  0.00  0.00     0.139 C 
HETATM   34  O   UNK     0      48.192   0.457  31.204  0.00  0.00    -0.650 OA
BRANCH  33  35
HETATM   35  O   UNK     0      49.466   1.891  32.415  0.00  0.00    -0.776 OA
HETATM   36  H   UNK     0      50.156   2.495  32.068  0.00  0.00     0.167 HD
ENDBRANCH  33  35
ENDBRANCH  32  33
ENDBRANCH  31  32
ENDBRANCH  30  31
BRANCH  30  37
HETATM   37  C   UNK     0      49.900  -2.720  30.940  0.00  0.00     0.163 C 
HETATM   38  O   UNK     0      50.687  -3.203  30.136  0.00  0.00    -0.648 OA
BRANCH  37  39
HETATM   39  O   UNK     0      48.566  -2.621  30.696  0.00  0.00    -0.775 OA
HETATM   40  H   UNK     0      48.251  -3.330  30.097  0.00  0.00     0.167 HD
ENDBRANCH  37  39
ENDBRANCH  30  37
ENDBRANCH  28  30
ENDBRANCH   2  26
TORSDOF 13
ENDMDL
MODEL 2
REMARK VINA RESULT:      -8.8      6.160      9.671
REMARK  13 active torsions:
REMARK  status: ('A' for Active; 'I' for Inactive)
REMARK    1  A    between atoms: O_1  and  C_23 
REMARK    2  A    between atoms: O_4  and  C_28 
REMARK    3  A    between atoms: N_6  and  C_16 
REMARK    4  A    between atoms: N_6  and  C_18 
REMARK    5  A    between atoms: N_7  and  C_14 
REMARK       I    between atoms: N_7  and  C_20 
REMARK    6  A    between atoms: N_12  and  C_32 
REMARK    7  A    between atoms: N_13  and  C_33 
REMARK    8  A    between atoms: C_14  and  C_15 
REMARK    9  A    between atoms: C_14  and  C_23 
REMARK   10  A    between atoms: C_15  and  C_17 
REMARK   11  A    between atoms: C_17  and  C_28 
REMARK   12  A    between atoms: C_18  and  C_26 
REMARK   13  A    between atoms: C_19  and  C_20 
ROOT
HETATM    1  C   UNK     0      54.217 -10.144  35.569  0.00  0.00     0.030 A 
HETATM    2  C   UNK     0      54.579 -11.667  33.260  0.00  0.00     0.032 A 
HETATM    3  C   UNK     0      55.252 -11.078  35.504  0.00  0.00     0.030 A 
HETATM    4  C   UNK     0      53.364  -9.973  34.478  0.00  0.00     0.030 A 
HETATM    5  C   UNK     0      55.433 -11.840  34.349  0.00  0.00     0.019 A 
HETATM    6  C   UNK     0      53.545 -10.734  33.324  0.00  0.00     0.019 A 
ENDROOT
BRANCH   1   7
HETATM    7  N   UNK     0      54.033  -9.375  36.737  0.00  0.00    -0.379 N 
HETATM    8  C   UNK     0      54.729  -8.114  36.900  0.00  0.00     0.150 C 
BRANCH   7   9
HETATM    9  C   UNK     0      53.136  -9.828  37.781  0.00  0.00     0.183 C 
BRANCH   9  10
HETATM   10  C   UNK     0      51.782  -9.193  37.623  0.00  0.00     0.070 A 
HETATM   11  N   UNK     0      51.610  -7.953  38.106  0.00  0.00    -0.242 NA
HETATM   12  C   UNK     0      50.393  -7.397  37.956  0.00  0.00     0.151 A 
HETATM   13  C   UNK     0      49.339  -8.066  37.329  0.00  0.00     0.201 A 
HETATM   14  C   UNK     0      50.113  -6.126  38.419  0.00  0.00     0.173 A 
HETATM   15  N   UNK     0      49.542  -9.302  36.856  0.00  0.00    -0.237 NA
HETATM   16  N   UNK     0      48.138  -7.491  37.193  0.00  0.00    -0.041 NA
HETATM   17  C   UNK     0      50.759  -9.859  37.004  0.00  0.00     0.148 A 
HETATM   18  C   UNK     0      47.987  -6.248  37.685  0.00  0.00     0.724 A 
HETATM   19  N   UNK     0      48.920  -5.515  38.303  0.00  0.00    -0.043 NA
BRANCH  18  20
HETATM   20  N   UNK     0      46.713  -5.658  37.533  0.00  0.00    -0.231 N 
HETATM   21  H   UNK     0      46.552  -5.013  36.773  0.00  0.00     0.174 HD
HETATM   22  H   UNK     0      45.979  -5.886  38.188  0.00  0.00     0.174 HD
ENDBRANCH  18  20
BRANCH  14  23
HETATM   23  N   UNK     0      51.154  -5.409  39.066  0.00  0.00    -0.381 N 
HETATM   24  H   UNK     0      51.880  -5.955  39.512  0.00  0.00     0.157 HD
HETATM   25  H   UNK     0      51.387  -4.487  38.721  0.00  0.00     0.157 HD
ENDBRANCH  14  23
ENDBRANCH   9  10
ENDBRANCH   7   9
ENDBRANCH   1   7
BRANCH   2  26
HETATM   26  C   UNK     0      54.772 -12.479  32.030  0.00  0.00     0.252 C 
HETATM   27  O   UNK     0      55.913 -12.735  31.654  0.00  0.00    -0.268 OA
HETATM   28  N   UNK     0      53.614 -12.913  31.400  0.00  0.00    -0.343 N 
HETATM   29  H   UNK     0      52.706 -12.731  31.815  0.00  0.00     0.163 HD
BRANCH  28  30
HETATM   30  C   UNK     0      53.637 -13.729  30.212  0.00  0.00     0.183 C 
BRANCH  30  31
HETATM   31  C   UNK     0      52.760 -14.981  30.335  0.00  0.00     0.046 C 
BRANCH  31  32
HETATM   32  C   UNK     0      51.920 -15.086  31.614  0.00  0.00     0.112 C 
BRANCH  32  33
HETATM   33  C   UNK     0      50.513 -14.549  31.466  0.00  0.00     0.139 C 
HETATM   34  O   UNK     0      49.519 -15.219  31.226  0.00  0.00    -0.650 OA
BRANCH  33  35
HETATM   35  O   UNK     0      50.477 -13.197  31.595  0.00  0.00    -0.776 OA
HETATM   36  H   UNK     0      49.669 -12.895  32.061  0.00  0.00     0.167 HD
ENDBRANCH  33  35
ENDBRANCH  32  33
ENDBRANCH  31  32
ENDBRANCH  30  31
BRANCH  30  37
HETATM   37  C   UNK     0      53.275 -12.841  29.039  0.00  0.00     0.163 C 
HETATM   38  O   UNK     0      54.065 -12.409  28.211  0.00  0.00    -0.648 OA
BRANCH  37  39
HETATM   39  O   UNK     0      51.939 -12.599  28.979  0.00  0.00    -0.775 OA
HETATM   40  H   UNK     0      51.746 -11.650  28.832  0.00  0.00     0.167 HD
ENDBRANCH  37  39
ENDBRANCH  30  37
ENDBRANCH  28  30
ENDBRANCH   2  26
TORSDOF 13
ENDMDL
MODEL 3
REMARK VINA RESULT:      -8.7      5.721     11.073
REMARK  13 active torsions:
REMARK  status: ('A' for Active; 'I' for Inactive)
REMARK    1  A    between atoms: O_1  and  C_23 
REMARK    2  A    between atoms: O_4  and  C_28 
REMARK    3  A    between atoms: N_6  and  C_16 
REMARK    4  A    between atoms: N_6  and  C_18 
REMARK    5  A    between atoms: N_7  and  C_14 
REMARK       I    between atoms: N_7  and  C_20 
REMARK    6  A    between atoms: N_12  and  C_32 
REMARK    7  A    between atoms: N_13  and  C_33 
REMARK    8  A    between atoms: C_14  and  C_15 
REMARK    9  A    between atoms: C_14  and  C_23 
REMARK   10  A    between atoms: C_15  and  C_17 
REMARK   11  A    between atoms: C_17  and  C_28 
REMARK   12  A    between atoms: C_18  and  C_26 
REMARK   13  A    between atoms: C_19  and  C_20 
ROOT
HETATM    1  C   UNK     0      51.686  -7.056  29.811  0.00  0.00     0.030 A 
HETATM    2  C   UNK     0      52.249  -9.667  29.007  0.00  0.00     0.032 A 
HETATM    3  C   UNK     0      51.071  -8.132  30.454  0.00  0.00     0.030 A 
HETATM    4  C   UNK     0      52.581  -7.287  28.767  0.00  0.00     0.030 A 
HETATM    5  C   UNK     0      51.353  -9.438  30.052  0.00  0.00     0.019 A 
HETATM    6  C   UNK     0      52.863  -8.593  28.365  0.00  0.00     0.019 A 
ENDROOT
BRANCH   1   7
HETATM    7  N   UNK     0      51.400  -5.736  30.217  0.00  0.00    -0.379 N 
HETATM    8  C   UNK     0      51.807  -4.612  29.398  0.00  0.00     0.150 C 
BRANCH   7   9
HETATM    9  C   UNK     0      50.682  -5.487  31.452  0.00  0.00     0.183 C 
BRANCH   9  10
HETATM   10  C   UNK     0      50.634  -4.012  31.744  0.00  0.00     0.070 A 
HETATM   11  N   UNK     0      49.567  -3.322  31.314  0.00  0.00    -0.242 NA
HETATM   12  C   UNK     0      49.537  -2.003  31.583  0.00  0.00     0.151 A 
HETATM   13  C   UNK     0      50.563  -1.361  32.279  0.00  0.00     0.201 A 
HETATM   14  C   UNK     0      48.483  -1.204  31.184  0.00  0.00     0.173 A 
HETATM   15  N   UNK     0      51.615  -2.076  32.697  0.00  0.00    -0.237 NA
HETATM   16  N   UNK     0      50.509  -0.048  32.535  0.00  0.00    -0.041 NA
HETATM   17  C   UNK     0      51.646  -3.396  32.428  0.00  0.00     0.148 A 
HETATM   18  C   UNK     0      49.430   0.626  32.094  0.00  0.00     0.724 A 
HETATM   19  N   UNK     0      48.393   0.118  31.420  0.00  0.00    -0.043 NA
BRANCH  18  20
HETATM   20  N   UNK     0      49.391   2.009  32.372  0.00  0.00    -0.231 N 
HETATM   21  H   UNK     0      48.499   2.480  32.425  0.00  0.00     0.174 HD
HETATM   22  H   UNK     0      50.256   2.512  32.513  0.00  0.00     0.174 HD
ENDBRANCH  18  20
BRANCH  14  23
HETATM   23  N   UNK     0      47.418  -1.815  30.472  0.00  0.00    -0.381 N 
HETATM   24  H   UNK     0      47.642  -2.232  29.577  0.00  0.00     0.157 HD
HETATM   25  H   UNK     0      46.643  -2.194  31.000  0.00  0.00     0.157 HD
ENDBRANCH  14  23
ENDBRANCH   9  10
ENDBRANCH   7   9
ENDBRANCH   1   7
BRANCH   2  26
HETATM   26  C   UNK     0      52.549 -11.058  28.579  0.00  0.00     0.252 C 
HETATM   27  O   UNK     0      52.608 -11.317  27.380  0.00  0.00    -0.268 OA
HETATM   28  N   UNK     0      52.766 -11.975  29.599  0.00  0.00    -0.343 N 
HETATM   29  H   UNK     0      52.781 -11.670  30.566  0.00  0.00     0.163 HD
BRANCH  28  30
HETATM   30  C   UNK     0      53.091 -13.355  29.343  0.00  0.00     0.183 C 
BRANCH  30  31
HETATM   31  C   UNK     0      54.564 -13.679  29.623  0.00  0.00     0.046 C 
BRANCH  31  32
HETATM   32  C   UNK     0      55.279 -12.744  30.606  0.00  0.00     0.112 C 
BRANCH  32  33
HETATM   33  C   UNK     0      55.428 -13.319  31.997  0.00  0.00     0.139 C 
HETATM   34  O   UNK     0      54.646 -14.092  32.533  0.00  0.00    -0.650 OA
BRANCH  33  35
HETATM   35  O   UNK     0      56.535 -12.840  32.621  0.00  0.00    -0.776 OA
HETATM   36  H   UNK     0      56.932 -12.086  32.135  0.00  0.00     0.167 HD
ENDBRANCH  33  35
ENDBRANCH  32  33
ENDBRANCH  31  32
ENDBRANCH  30  31
BRANCH  30  37
HETATM   37  C   UNK     0      52.118 -14.209  30.130  0.00  0.00     0.163 C 
HETATM   38  O   UNK     0      50.927 -13.965  30.281  0.00  0.00    -0.648 OA
BRANCH  37  39
HETATM   39  O   UNK     0      52.711 -15.323  30.634  0.00  0.00    -0.775 OA
HETATM   40  H   UNK     0      52.831 -16.014  29.950  0.00  0.00     0.167 HD
ENDBRANCH  37  39
ENDBRANCH  30  37
ENDBRANCH  28  30
ENDBRANCH   2  26
TORSDOF 13
ENDMDL
