MODEL 1
REMARK VINA RESULT:      -8.0      0.000      0.000
REMARK  13 active torsions:
REMARK  status: ('A' for Active; 'I' for Inactive)
REMARK    1  A    between atoms: O_1  and  C_23 
REMARK    2  A    between atoms: O_4  and  C_28 
REMARK    3  A    between atoms: N_6  and  C_16 
REMARK    4  A    between atoms: N_6  and  C_18 
REMARK    5  A    between atoms: N_7  and  C_14 
REMARK       I    between atoms: N_7  and  C_20 
REMARK    6  A    between atoms: N_12  and  C_32 
REMARK    7  A    between atoms: N_13  and  C_33 
REMARK    8  A    between atoms: C_14  and  C_15 
REMARK    9  A    between atoms: C_14  and  C_23 
REMARK   10  A    between atoms: C_15  and  C_17 
REMARK   11  A    between atoms: C_17  and  C_28 
REMARK   12  A    between atoms: C_18  and  C_26 
REMARK   13  A    between atoms: C_19  and  C_20 
ROOT
HETATM    1  C   UNK     0      -7.012  18.586 -28.399  0.00  0.00     0.030 A 
HETATM    2  C   UNK     0      -9.072  16.729 -28.700  0.00  0.00     0.032 A 
HETATM    3  C   UNK     0      -8.161  18.928 -29.113  0.00  0.00     0.030 A 
HETATM    4  C   UNK     0      -6.894  17.315 -27.836  0.00  0.00     0.030 A 
HETATM    5  C   UNK     0      -9.192  18.000 -29.263  0.00  0.00     0.019 A 
HETATM    6  C   UNK     0      -7.924  16.387 -27.986  0.00  0.00     0.019 A 
ENDROOT
BRANCH   1   7
HETATM    7  N   UNK     0      -5.970  19.525 -28.249  0.00  0.00    -0.379 N 
HETATM    8  C   UNK     0      -6.221  20.802 -27.611  0.00  0.00     0.150 C 
BRANCH   7   9
HETATM    9  C   UNK     0      -4.632  19.218 -28.714  0.00  0.00     0.183 C 
BRANCH   9  10
HETATM   10  C   UNK     0      -3.653  19.268 -27.574  0.00  0.00     0.070 A 
HETATM   11  N   UNK     0      -3.861  18.447 -26.533  0.00  0.00    -0.242 NA
HETATM   12  C   UNK     0      -2.976  18.502 -25.520  0.00  0.00     0.151 A 
HETATM   13  C   UNK     0      -1.881  19.371 -25.531  0.00  0.00     0.201 A 
HETATM   14  C   UNK     0      -3.100  17.699 -24.402  0.00  0.00     0.173 A 
HETATM   15  N   UNK     0      -1.701  20.177 -26.584  0.00  0.00    -0.237 NA
HETATM   16  N   UNK     0      -1.016  19.406 -24.510  0.00  0.00    -0.041 NA
HETATM   17  C   UNK     0      -2.585  20.123 -27.599  0.00  0.00     0.148 A 
HETATM   18  C   UNK     0      -1.242  18.575 -23.477  0.00  0.00     0.724 A 
HETATM   19  N   UNK     0      -2.252  17.706 -23.357  0.00  0.00    -0.043 NA
BRANCH  18  20
HETATM   20  N   UNK     0      -0.320  18.627 -22.409  0.00  0.00    -0.231 N 
HETATM   21  H   UNK     0       0.583  18.186 -22.511  0.00  0.00     0.174 HD
HETATM   22  H   UNK     0      -0.574  19.104 -21.556  0.00  0.00     0.174 HD
ENDBRANCH  18  20
BRANCH  14  23
HETATM   23  N   UNK     0      -4.198  16.802 -24.347  0.00  0.00    -0.381 N 
HETATM   24  H   UNK     0      -4.971  17.057 -23.745  0.00  0.00     0.157 HD
HETATM   25  H   UNK     0      -4.387  16.225 -25.157  0.00  0.00     0.157 HD
ENDBRANCH  14  23
ENDBRANCH   9  10
ENDBRANCH   7   9
ENDBRANCH   1   7
BRANCH   2  26
HETATM   26  C   UNK     0     -10.170  15.740 -28.860  0.00  0.00     0.252 C 
HETATM   27  O   UNK     0     -10.049  14.625 -28.362  0.00  0.00    -0.268 OA
HETATM   28  N   UNK     0     -11.286  16.179 -29.561  0.00  0.00    -0.343 N 
HETATM   29  H   UNK     0     -11.348  17.142 -29.872  0.00  0.00     0.163 HD
BRANCH  28  30
HETATM   30  C   UNK     0     -12.440  15.345 -29.777  0.00  0.00     0.183 C 
BRANCH  30  31
HETATM   31  C   UNK     0     -13.740  15.993 -29.284  0.00  0.00     0.046 C 
BRANCH  31  32
HETATM   32  C   UNK     0     -13.576  17.151 -28.293  0.00  0.00     0.112 C 
BRANCH  32  33
HETATM   33  C   UNK     0     -13.783  16.752 -26.848  0.00  0.00     0.139 C 
HETATM   34  O   UNK     0     -13.361  15.730 -26.326  0.00  0.00    -0.650 OA
BRANCH  33  35
HETATM   35  O   UNK     0     -14.544  17.660 -26.183  0.00  0.00    -0.776 OA
HETATM   36  H   UNK     0     -14.614  18.508 -26.671  0.00  0.00     0.167 HD
ENDBRANCH  33  35
ENDBRANCH  32  33
ENDBRANCH  31  32
ENDBRANCH  30  31
BRANCH  30  37
HETATM   37  C   UNK     0     -12.464  14.967 -31.244  0.00  0.00     0.163 C 
HETATM   38  O   UNK     0     -12.916  15.662 -32.145  0.00  0.00    -0.648 OA
BRANCH  37  39
HETATM   39  O   UNK     0     -11.881  13.760 -31.467  0.00  0.00    -0.775 OA
HETATM   40  H   UNK     0     -12.405  13.025 -31.086  0.00  0.00     0.167 HD
ENDBRANCH  37  39
ENDBRANCH  30  37
ENDBRANCH  28  30
ENDBRANCH   2  26
TORSDOF 13
ENDMDL
MODEL 2
REMARK VINA RESULT:      -7.9      5.983      8.284
REMARK  13 active torsions:
REMARK  status: ('A' for Active; 'I' for Inactive)
REMARK    1  A    between atoms: O_1  and  C_23 
REMARK    2  A    between atoms: O_4  and  C_28 
REMARK    3  A    between atoms: N_6  and  C_16 
REMARK    4  A    between atoms: N_6  and  C_18 
REMARK    5  A    between atoms: N_7  and  C_14 
REMARK       I    between atoms: N_7  and  C_20 
REMARK    6  A    between atoms: N_12  and  C_32 
REMARK    7  A    between atoms: N_13  and  C_33 
REMARK    8  A    between atoms: C_14  and  C_15 
REMARK    9  A    between atoms: C_14  and  C_23 
REMARK   10  A    between atoms: C_15  and  C_17 
REMARK   11  A    between atoms: C_17  and  C_28 
REMARK   12  A    between atoms: C_18  and  C_26 
REMARK   13  A    between atoms: C_19  and  C_20 
ROOT
HETATM    1  C   UNK     0      -7.018  20.772 -27.557  0.00  0.00     0.030 A 
HETATM    2  C   UNK     0      -7.240  23.522 -27.969  0.00  0.00     0.032 A 
HETATM    3  C   UNK     0      -5.960  21.479 -28.130  0.00  0.00     0.030 A 
HETATM    4  C   UNK     0      -8.186  21.441 -27.190  0.00  0.00     0.030 A 
HETATM    5  C   UNK     0      -6.071  22.854 -28.336  0.00  0.00     0.019 A 
HETATM    6  C   UNK     0      -8.297  22.816 -27.397  0.00  0.00     0.019 A 
ENDROOT
BRANCH   1   7
HETATM    7  N   UNK     0      -6.906  19.382 -27.349  0.00  0.00    -0.379 N 
HETATM    8  C   UNK     0      -7.959  18.654 -26.668  0.00  0.00     0.150 C 
BRANCH   7   9
HETATM    9  C   UNK     0      -5.744  18.659 -27.827  0.00  0.00     0.183 C 
BRANCH   9  10
HETATM   10  C   UNK     0      -4.775  18.418 -26.702  0.00  0.00     0.070 A 
HETATM   11  N   UNK     0      -3.752  19.275 -26.561  0.00  0.00    -0.242 NA
HETATM   12  C   UNK     0      -2.893  19.047 -25.550  0.00  0.00     0.151 A 
HETATM   13  C   UNK     0      -3.042  17.969 -24.673  0.00  0.00     0.201 A 
HETATM   14  C   UNK     0      -1.807  19.870 -25.319  0.00  0.00     0.173 A 
HETATM   15  N   UNK     0      -4.073  17.132 -24.839  0.00  0.00    -0.237 NA
HETATM   16  N   UNK     0      -2.174  17.764 -23.675  0.00  0.00    -0.041 NA
HETATM   17  C   UNK     0      -4.934  17.359 -25.850  0.00  0.00     0.148 A 
HETATM   18  C   UNK     0      -1.155  18.635 -23.551  0.00  0.00     0.724 A 
HETATM   19  N   UNK     0      -0.913  19.697 -24.329  0.00  0.00    -0.043 NA
BRANCH  18  20
HETATM   20  N   UNK     0      -0.249  18.403 -22.494  0.00  0.00    -0.231 N 
HETATM   21  H   UNK     0      -0.601  18.294 -21.553  0.00  0.00     0.174 HD
HETATM   22  H   UNK     0       0.741  18.350 -22.690  0.00  0.00     0.174 HD
ENDBRANCH  18  20
BRANCH  14  23
HETATM   23  N   UNK     0      -1.616  20.976 -26.186  0.00  0.00    -0.381 N 
HETATM   24  H   UNK     0      -2.445  21.468 -26.495  0.00  0.00     0.157 HD
HETATM   25  H   UNK     0      -0.746  21.489 -26.124  0.00  0.00     0.157 HD
ENDBRANCH  14  23
ENDBRANCH   9  10
ENDBRANCH   7   9
ENDBRANCH   1   7
BRANCH   2  26
HETATM   26  C   UNK     0      -7.358  24.987 -28.190  0.00  0.00     0.252 C 
HETATM   27  O   UNK     0      -6.952  25.469 -29.244  0.00  0.00    -0.268 OA
HETATM   28  N   UNK     0      -7.955  25.710 -27.165  0.00  0.00    -0.343 N 
HETATM   29  H   UNK     0      -8.340  25.231 -26.358  0.00  0.00     0.163 HD
BRANCH  28  30
HETATM   30  C   UNK     0      -8.163  27.133 -27.241  0.00  0.00     0.183 C 
BRANCH  30  31
HETATM   31  C   UNK     0      -9.469  27.579 -26.572  0.00  0.00     0.046 C 
BRANCH  31  32
HETATM   32  C   UNK     0      -9.357  28.773 -25.616  0.00  0.00     0.112 C 
BRANCH  32  33
HETATM   33  C   UNK     0      -9.637  28.426 -24.170  0.00  0.00     0.139 C 
HETATM   34  O   UNK     0     -10.410  29.022 -23.434  0.00  0.00    -0.650 OA
BRANCH  33  35
HETATM   35  O   UNK     0      -8.887  27.373 -23.754  0.00  0.00    -0.776 OA
HETATM   36  H   UNK     0      -9.226  26.990 -22.917  0.00  0.00     0.167 HD
ENDBRANCH  33  35
ENDBRANCH  32  33
ENDBRANCH  31  32
ENDBRANCH  30  31
BRANCH  30  37
HETATM   37  C   UNK     0      -6.928  27.807 -26.679  0.00  0.00     0.163 C 
HETATM   38  O   UNK     0      -6.373  28.784 -27.166  0.00  0.00    -0.648 OA
BRANCH  37  39
HETATM   39  O   UNK     0      -6.510  27.222 -25.526  0.00  0.00    -0.775 OA
HETATM   40  H   UNK     0      -5.999  27.843 -24.966  0.00  0.00     0.167 HD
ENDBRANCH  37  39
ENDBRANCH  30  37
ENDBRANCH  28  30
ENDBRANCH   2  26
TORSDOF 13
ENDMDL
MODEL 3
REMARK VINA RESULT:      -7.8      1.862      3.929
REMARK  13 active torsions:
REMARK  status: ('A' for Active; 'I' for Inactive)
REMARK    1  A    between atoms: O_1  and  C_23 
REMARK    2  A    between atoms: O_4  and  C_28 
REMARK    3  A    between atoms: N_6  and  C_16 
REMARK    4  A    between atoms: N_6  and  C_18 
REMARK    5  A    between atoms: N_7  and  C_14 
REMARK       I    between atoms: N_7  and  C_20 
REMARK    6  A    between atoms: N_12  and  C_32 
REMARK    7  A    between atoms: N_13  and  C_33 
REMARK    8  A    between atoms: C_14  and  C_15 
REMARK    9  A    between atoms: C_14  and  C_23 
REMARK   10  A    between atoms: C_15  and  C_17 
REMARK   11  A    between atoms: C_17  and  C_28 
REMARK   12  A    between atoms: C_18  and  C_26 
REMARK   13  A    between atoms: C_19  and  C_20 
ROOT
HETATM    1  C   UNK     0      -8.037  15.206 -27.457  0.00  0.00     0.030 A 
HETATM    2  C   UNK     0     -10.596  15.880 -28.341  0.00  0.00     0.032 A 
HETATM    3  C   UNK     0      -8.471  14.795 -28.719  0.00  0.00     0.030 A 
HETATM    4  C   UNK     0      -8.883  15.955 -26.639  0.00  0.00     0.030 A 
HETATM    5  C   UNK     0      -9.751  15.132 -29.160  0.00  0.00     0.019 A 
HETATM    6  C   UNK     0     -10.163  16.292 -27.081  0.00  0.00     0.019 A 
ENDROOT
BRANCH   1   7
HETATM    7  N   UNK     0      -6.744  14.865 -27.011  0.00  0.00    -0.379 N 
HETATM    8  C   UNK     0      -5.881  14.035 -27.829  0.00  0.00     0.150 C 
BRANCH   7   9
HETATM    9  C   UNK     0      -6.254  15.351 -25.737  0.00  0.00     0.183 C 
BRANCH   9  10
HETATM   10  C   UNK     0      -5.417  16.585 -25.931  0.00  0.00     0.070 A 
HETATM   11  N   UNK     0      -4.280  16.689 -25.225  0.00  0.00    -0.242 NA
HETATM   12  C   UNK     0      -3.541  17.799 -25.410  0.00  0.00     0.151 A 
HETATM   13  C   UNK     0      -3.923  18.812 -26.293  0.00  0.00     0.201 A 
HETATM   14  C   UNK     0      -2.354  18.002 -24.732  0.00  0.00     0.173 A 
HETATM   15  N   UNK     0      -5.062  18.679 -26.983  0.00  0.00    -0.237 NA
HETATM   16  N   UNK     0      -3.169  19.906 -26.458  0.00  0.00    -0.041 NA
HETATM   17  C   UNK     0      -5.803  17.569 -26.800  0.00  0.00     0.148 A 
HETATM   18  C   UNK     0      -2.033  19.990 -25.741  0.00  0.00     0.724 A 
HETATM   19  N   UNK     0      -1.570  19.087 -24.870  0.00  0.00    -0.043 NA
BRANCH  18  20
HETATM   20  N   UNK     0      -1.252  21.151 -25.928  0.00  0.00    -0.231 N 
HETATM   21  H   UNK     0      -0.329  21.070 -26.330  0.00  0.00     0.174 HD
HETATM   22  H   UNK     0      -1.625  22.050 -25.656  0.00  0.00     0.174 HD
ENDBRANCH  18  20
BRANCH  14  23
HETATM   23  N   UNK     0      -1.928  16.999 -23.823  0.00  0.00    -0.381 N 
HETATM   24  H   UNK     0      -2.635  16.366 -23.471  0.00  0.00     0.157 HD
HETATM   25  H   UNK     0      -0.973  16.669 -23.886  0.00  0.00     0.157 HD
ENDBRANCH  14  23
ENDBRANCH   9  10
ENDBRANCH   7   9
ENDBRANCH   1   7
BRANCH   2  26
HETATM   26  C   UNK     0     -11.959  16.239 -28.811  0.00  0.00     0.252 C 
HETATM   27  O   UNK     0     -12.085  16.878 -29.853  0.00  0.00    -0.268 OA
HETATM   28  N   UNK     0     -13.012  15.790 -28.025  0.00  0.00    -0.343 N 
HETATM   29  H   UNK     0     -12.834  15.197 -27.221  0.00  0.00     0.163 HD
BRANCH  28  30
HETATM   30  C   UNK     0     -14.391  16.037 -28.362  0.00  0.00     0.183 C 
BRANCH  30  31
HETATM   31  C   UNK     0     -15.091  14.799 -28.935  0.00  0.00     0.046 C 
BRANCH  31  32
HETATM   32  C   UNK     0     -15.139  14.705 -30.465  0.00  0.00     0.112 C 
BRANCH  32  33
HETATM   33  C   UNK     0     -14.161  13.708 -31.047  0.00  0.00     0.139 C 
HETATM   34  O   UNK     0     -14.461  12.694 -31.660  0.00  0.00    -0.650 OA
BRANCH  33  35
HETATM   35  O   UNK     0     -12.875  14.052 -30.774  0.00  0.00    -0.776 OA
HETATM   36  H   UNK     0     -12.682  14.979 -31.028  0.00  0.00     0.167 HD
ENDBRANCH  33  35
ENDBRANCH  32  33
ENDBRANCH  31  32
ENDBRANCH  30  31
BRANCH  30  37
HETATM   37  C   UNK     0     -15.068  16.609 -27.134  0.00  0.00     0.163 C 
HETATM   38  O   UNK     0     -16.274  16.597 -26.923  0.00  0.00    -0.648 OA
BRANCH  37  39
HETATM   39  O   UNK     0     -14.170  17.118 -26.250  0.00  0.00    -0.775 OA
HETATM   40  H   UNK     0     -14.288  18.083 -26.123  0.00  0.00     0.167 HD
ENDBRANCH  37  39
ENDBRANCH  30  37
ENDBRANCH  28  30
ENDBRANCH   2  26
TORSDOF 13
ENDMDL
