MODEL 1
REMARK VINA RESULT:      -7.3      0.000      0.000
REMARK  13 active torsions:
REMARK  status: ('A' for Active; 'I' for Inactive)
REMARK    1  A    between atoms: O_1  and  C_23 
REMARK    2  A    between atoms: O_4  and  C_28 
REMARK    3  A    between atoms: N_6  and  C_16 
REMARK    4  A    between atoms: N_6  and  C_18 
REMARK    5  A    between atoms: N_7  and  C_14 
REMARK       I    between atoms: N_7  and  C_20 
REMARK    6  A    between atoms: N_12  and  C_32 
REMARK    7  A    between atoms: N_13  and  C_33 
REMARK    8  A    between atoms: C_14  and  C_15 
REMARK    9  A    between atoms: C_14  and  C_23 
REMARK   10  A    between atoms: C_15  and  C_17 
REMARK   11  A    between atoms: C_17  and  C_28 
REMARK   12  A    between atoms: C_18  and  C_26 
REMARK   13  A    between atoms: C_19  and  C_20 
ROOT
HETATM    1  C   UNK     0      32.499  43.377  51.799  0.00  0.00     0.030 A 
HETATM    2  C   UNK     0      31.660  40.717  51.839  0.00  0.00     0.032 A 
HETATM    3  C   UNK     0      32.743  42.551  50.700  0.00  0.00     0.030 A 
HETATM    4  C   UNK     0      31.836  42.871  52.917  0.00  0.00     0.030 A 
HETATM    5  C   UNK     0      32.323  41.221  50.720  0.00  0.00     0.019 A 
HETATM    6  C   UNK     0      31.417  41.541  52.937  0.00  0.00     0.019 A 
ENDROOT
BRANCH   1   7
HETATM    7  N   UNK     0      32.924  44.721  51.778  0.00  0.00    -0.379 N 
HETATM    8  C   UNK     0      33.337  45.341  50.534  0.00  0.00     0.150 C 
BRANCH   7   9
HETATM    9  C   UNK     0      32.939  45.506  52.996  0.00  0.00     0.183 C 
BRANCH   9  10
HETATM   10  C   UNK     0      32.336  46.863  52.756  0.00  0.00     0.070 A 
HETATM   11  N   UNK     0      33.172  47.900  52.590  0.00  0.00    -0.242 NA
HETATM   12  C   UNK     0      32.618  49.108  52.375  0.00  0.00     0.151 A 
HETATM   13  C   UNK     0      31.235  49.296  52.323  0.00  0.00     0.201 A 
HETATM   14  C   UNK     0      33.390  50.239  52.192  0.00  0.00     0.173 A 
HETATM   15  N   UNK     0      30.427  48.242  52.491  0.00  0.00    -0.237 NA
HETATM   16  N   UNK     0      30.709  50.509  52.107  0.00  0.00    -0.041 NA
HETATM   17  C   UNK     0      30.979  47.033  52.706  0.00  0.00     0.148 A 
HETATM   18  C   UNK     0      31.565  51.535  51.944  0.00  0.00     0.724 A 
HETATM   19  N   UNK     0      32.901  51.473  51.975  0.00  0.00    -0.043 NA
BRANCH  18  20
HETATM   20  N   UNK     0      30.992  52.806  51.719  0.00  0.00    -0.231 N 
HETATM   21  H   UNK     0      31.566  53.550  51.350  0.00  0.00     0.174 HD
HETATM   22  H   UNK     0      30.016  52.956  51.931  0.00  0.00     0.174 HD
ENDBRANCH  18  20
BRANCH  14  23
HETATM   23  N   UNK     0      34.802  50.095  52.238  0.00  0.00    -0.381 N 
HETATM   24  H   UNK     0      35.338  50.590  51.538  0.00  0.00     0.157 HD
HETATM   25  H   UNK     0      35.235  49.904  53.133  0.00  0.00     0.157 HD
ENDBRANCH  14  23
ENDBRANCH   9  10
ENDBRANCH   7   9
ENDBRANCH   1   7
BRANCH   2  26
HETATM   26  C   UNK     0      31.214  39.299  51.861  0.00  0.00     0.252 C 
HETATM   27  O   UNK     0      30.461  38.895  50.979  0.00  0.00    -0.268 OA
HETATM   28  N   UNK     0      31.716  38.519  52.894  0.00  0.00    -0.343 N 
HETATM   29  H   UNK     0      32.399  38.902  53.539  0.00  0.00     0.163 HD
BRANCH  28  30
HETATM   30  C   UNK     0      31.395  37.122  53.035  0.00  0.00     0.183 C 
BRANCH  30  31
HETATM   31  C   UNK     0      32.440  36.205  52.387  0.00  0.00     0.046 C 
BRANCH  31  32
HETATM   32  C   UNK     0      31.994  35.480  51.111  0.00  0.00     0.112 C 
BRANCH  32  33
HETATM   33  C   UNK     0      30.500  35.264  51.021  0.00  0.00     0.139 C 
HETATM   34  O   UNK     0      29.868  34.409  51.626  0.00  0.00    -0.650 OA
BRANCH  33  35
HETATM   35  O   UNK     0      29.922  36.123  50.142  0.00  0.00    -0.776 OA
HETATM   36  H   UNK     0      30.296  37.027  50.213  0.00  0.00     0.167 HD
ENDBRANCH  33  35
ENDBRANCH  32  33
ENDBRANCH  31  32
ENDBRANCH  30  31
BRANCH  30  37
HETATM   37  C   UNK     0      31.173  36.849  54.509  0.00  0.00     0.163 C 
HETATM   38  O   UNK     0      30.244  36.202  54.975  0.00  0.00    -0.648 OA
BRANCH  37  39
HETATM   39  O   UNK     0      32.160  37.380  55.278  0.00  0.00    -0.775 OA
HETATM   40  H   UNK     0      32.249  38.346  55.143  0.00  0.00     0.167 HD
ENDBRANCH  37  39
ENDBRANCH  30  37
ENDBRANCH  28  30
ENDBRANCH   2  26
TORSDOF 13
ENDMDL
MODEL 2
REMARK VINA RESULT:      -7.2      2.397      3.231
REMARK  13 active torsions:
REMARK  status: ('A' for Active; 'I' for Inactive)
REMARK    1  A    between atoms: O_1  and  C_23 
REMARK    2  A    between atoms: O_4  and  C_28 
REMARK    3  A    between atoms: N_6  and  C_16 
REMARK    4  A    between atoms: N_6  and  C_18 
REMARK    5  A    between atoms: N_7  and  C_14 
REMARK       I    between atoms: N_7  and  C_20 
REMARK    6  A    between atoms: N_12  and  C_32 
REMARK    7  A    between atoms: N_13  and  C_33 
REMARK    8  A    between atoms: C_14  and  C_15 
REMARK    9  A    between atoms: C_14  and  C_23 
REMARK   10  A    between atoms: C_15  and  C_17 
REMARK   11  A    between atoms: C_17  and  C_28 
REMARK   12  A    between atoms: C_18  and  C_26 
REMARK   13  A    between atoms: C_19  and  C_20 
ROOT
HETATM    1  C   UNK     0      31.667  43.260  51.169  0.00  0.00     0.030 A 
HETATM    2  C   UNK     0      31.063  40.558  51.514  0.00  0.00     0.032 A 
HETATM    3  C   UNK     0      32.657  42.294  50.982  0.00  0.00     0.030 A 
HETATM    4  C   UNK     0      30.376  42.874  51.529  0.00  0.00     0.030 A 
HETATM    5  C   UNK     0      32.355  40.943  51.155  0.00  0.00     0.019 A 
HETATM    6  C   UNK     0      30.074  41.523  51.701  0.00  0.00     0.019 A 
ENDROOT
BRANCH   1   7
HETATM    7  N   UNK     0      31.973  44.626  50.995  0.00  0.00    -0.379 N 
HETATM    8  C   UNK     0      33.287  45.030  50.538  0.00  0.00     0.150 C 
BRANCH   7   9
HETATM    9  C   UNK     0      30.973  45.641  51.257  0.00  0.00     0.183 C 
BRANCH   9  10
HETATM   10  C   UNK     0      31.087  46.142  52.670  0.00  0.00     0.070 A 
HETATM   11  N   UNK     0      32.212  46.786  53.018  0.00  0.00    -0.242 NA
HETATM   12  C   UNK     0      32.300  47.229  54.286  0.00  0.00     0.151 A 
HETATM   13  C   UNK     0      31.276  47.036  55.217  0.00  0.00     0.201 A 
HETATM   14  C   UNK     0      33.415  47.903  54.745  0.00  0.00     0.173 A 
HETATM   15  N   UNK     0      30.166  46.390  54.840  0.00  0.00    -0.237 NA
HETATM   16  N   UNK     0      31.388  47.486  56.473  0.00  0.00    -0.041 NA
HETATM   17  C   UNK     0      30.076  45.947  53.571  0.00  0.00     0.148 A 
HETATM   18  C   UNK     0      32.524  48.129  56.801  0.00  0.00     0.724 A 
HETATM   19  N   UNK     0      33.566  48.370  55.998  0.00  0.00    -0.043 NA
BRANCH  18  20
HETATM   20  N   UNK     0      32.625  48.596  58.130  0.00  0.00    -0.231 N 
HETATM   21  H   UNK     0      32.850  47.946  58.869  0.00  0.00     0.174 HD
HETATM   22  H   UNK     0      32.471  49.575  58.325  0.00  0.00     0.174 HD
ENDBRANCH  18  20
BRANCH  14  23
HETATM   23  N   UNK     0      34.482  48.121  53.833  0.00  0.00    -0.381 N 
HETATM   24  H   UNK     0      34.732  49.082  53.639  0.00  0.00     0.157 HD
HETATM   25  H   UNK     0      35.198  47.410  53.756  0.00  0.00     0.157 HD
ENDBRANCH  14  23
ENDBRANCH   9  10
ENDBRANCH   7   9
ENDBRANCH   1   7
BRANCH   2  26
HETATM   26  C   UNK     0      30.742  39.119  51.698  0.00  0.00     0.252 C 
HETATM   27  O   UNK     0      29.941  38.582  50.938  0.00  0.00    -0.268 OA
HETATM   28  N   UNK     0      31.410  38.474  52.730  0.00  0.00    -0.343 N 
HETATM   29  H   UNK     0      32.120  38.963  53.265  0.00  0.00     0.163 HD
BRANCH  28  30
HETATM   30  C   UNK     0      31.224  37.074  53.018  0.00  0.00     0.183 C 
BRANCH  30  31
HETATM   31  C   UNK     0      32.433  36.221  52.616  0.00  0.00     0.046 C 
BRANCH  31  32
HETATM   32  C   UNK     0      33.762  36.972  52.466  0.00  0.00     0.112 C 
BRANCH  32  33
HETATM   33  C   UNK     0      34.795  36.600  53.507  0.00  0.00     0.139 C 
HETATM   34  O   UNK     0      35.898  36.127  53.275  0.00  0.00    -0.650 OA
BRANCH  33  35
HETATM   35  O   UNK     0      34.337  36.820  54.767  0.00  0.00    -0.776 OA
HETATM   36  H   UNK     0      33.567  37.428  54.776  0.00  0.00     0.167 HD
ENDBRANCH  33  35
ENDBRANCH  32  33
ENDBRANCH  31  32
ENDBRANCH  30  31
BRANCH  30  37
HETATM   37  C   UNK     0      30.849  36.953  54.481  0.00  0.00     0.163 C 
HETATM   38  O   UNK     0      30.090  36.114  54.947  0.00  0.00    -0.648 OA
BRANCH  37  39
HETATM   39  O   UNK     0      31.491  37.874  55.248  0.00  0.00    -0.775 OA
HETATM   40  H   UNK     0      30.885  38.582  55.551  0.00  0.00     0.167 HD
ENDBRANCH  37  39
ENDBRANCH  30  37
ENDBRANCH  28  30
ENDBRANCH   2  26
TORSDOF 13
ENDMDL
MODEL 3
REMARK VINA RESULT:      -6.9     20.402     22.215
REMARK  13 active torsions:
REMARK  status: ('A' for Active; 'I' for Inactive)
REMARK    1  A    between atoms: O_1  and  C_23 
REMARK    2  A    between atoms: O_4  and  C_28 
REMARK    3  A    between atoms: N_6  and  C_16 
REMARK    4  A    between atoms: N_6  and  C_18 
REMARK    5  A    between atoms: N_7  and  C_14 
REMARK       I    between atoms: N_7  and  C_20 
REMARK    6  A    between atoms: N_12  and  C_32 
REMARK    7  A    between atoms: N_13  and  C_33 
REMARK    8  A    between atoms: C_14  and  C_15 
REMARK    9  A    between atoms: C_14  and  C_23 
REMARK   10  A    between atoms: C_15  and  C_17 
REMARK   11  A    between atoms: C_17  and  C_28 
REMARK   12  A    between atoms: C_18  and  C_26 
REMARK   13  A    between atoms: C_19  and  C_20 
ROOT
HETATM    1  C   UNK     0      40.863  34.127  35.950  0.00  0.00     0.030 A 
HETATM    2  C   UNK     0      43.447  34.736  36.808  0.00  0.00     0.032 A 
HETATM    3  C   UNK     0      41.054  34.892  37.102  0.00  0.00     0.030 A 
HETATM    4  C   UNK     0      41.965  33.668  35.228  0.00  0.00     0.030 A 
HETATM    5  C   UNK     0      42.346  35.196  37.531  0.00  0.00     0.019 A 
HETATM    6  C   UNK     0      43.257  33.973  35.657  0.00  0.00     0.019 A 
ENDROOT
BRANCH   1   7
HETATM    7  N   UNK     0      39.557  33.819  35.517  0.00  0.00    -0.379 N 
HETATM    8  C   UNK     0      38.549  33.398  36.469  0.00  0.00     0.150 C 
BRANCH   7   9
HETATM    9  C   UNK     0      39.201  33.934  34.117  0.00  0.00     0.183 C 
BRANCH   9  10
HETATM   10  C   UNK     0      38.838  35.355  33.781  0.00  0.00     0.070 A 
HETATM   11  N   UNK     0      39.803  36.283  33.857  0.00  0.00    -0.242 NA
HETATM   12  C   UNK     0      39.463  37.550  33.553  0.00  0.00     0.151 A 
HETATM   13  C   UNK     0      38.166  37.904  33.173  0.00  0.00     0.201 A 
HETATM   14  C   UNK     0      40.383  38.580  33.599  0.00  0.00     0.173 A 
HETATM   15  N   UNK     0      37.225  36.955  33.107  0.00  0.00    -0.237 NA
HETATM   16  N   UNK     0      37.854  39.172  32.876  0.00  0.00    -0.041 NA
HETATM   17  C   UNK     0      37.563  35.687  33.410  0.00  0.00     0.148 A 
HETATM   18  C   UNK     0      38.837  40.087  32.958  0.00  0.00     0.724 A 
HETATM   19  N   UNK     0      40.108  39.865  33.309  0.00  0.00    -0.043 NA
BRANCH  18  20
HETATM   20  N   UNK     0      38.489  41.419  32.642  0.00  0.00    -0.231 N 
HETATM   21  H   UNK     0      39.184  42.147  32.725  0.00  0.00     0.174 HD
HETATM   22  H   UNK     0      37.549  41.628  32.337  0.00  0.00     0.174 HD
ENDBRANCH  18  20
BRANCH  14  23
HETATM   23  N   UNK     0      41.714  38.266  33.981  0.00  0.00    -0.381 N 
HETATM   24  H   UNK     0      42.159  38.885  34.647  0.00  0.00     0.157 HD
HETATM   25  H   UNK     0      42.005  37.298  33.954  0.00  0.00     0.157 HD
ENDBRANCH  14  23
ENDBRANCH   9  10
ENDBRANCH   7   9
ENDBRANCH   1   7
BRANCH   2  26
HETATM   26  C   UNK     0      44.823  35.061  37.265  0.00  0.00     0.252 C 
HETATM   27  O   UNK     0      44.977  35.869  38.177  0.00  0.00    -0.268 OA
HETATM   28  N   UNK     0      45.853  34.387  36.621  0.00  0.00    -0.343 N 
HETATM   29  H   UNK     0      45.644  33.672  35.932  0.00  0.00     0.163 HD
BRANCH  28  30
HETATM   30  C   UNK     0      47.238  34.576  36.969  0.00  0.00     0.183 C 
BRANCH  30  31
HETATM   31  C   UNK     0      48.100  33.345  36.661  0.00  0.00     0.046 C 
BRANCH  31  32
HETATM   32  C   UNK     0      48.129  32.261  37.746  0.00  0.00     0.112 C 
BRANCH  32  33
HETATM   33  C   UNK     0      47.086  31.181  37.559  0.00  0.00     0.139 C 
HETATM   34  O   UNK     0      47.283  30.084  37.055  0.00  0.00    -0.650 OA
BRANCH  33  35
HETATM   35  O   UNK     0      45.863  31.586  37.989  0.00  0.00    -0.776 OA
HETATM   36  H   UNK     0      45.573  31.095  38.786  0.00  0.00     0.167 HD
ENDBRANCH  33  35
ENDBRANCH  32  33
ENDBRANCH  31  32
ENDBRANCH  30  31
BRANCH  30  37
HETATM   37  C   UNK     0      47.714  35.841  36.285  0.00  0.00     0.163 C 
HETATM   38  O   UNK     0      48.004  35.937  35.100  0.00  0.00    -0.648 OA
BRANCH  37  39
HETATM   39  O   UNK     0      47.751  36.897  37.140  0.00  0.00    -0.775 OA
HETATM   40  H   UNK     0      48.587  36.925  37.651  0.00  0.00     0.167 HD
ENDBRANCH  37  39
ENDBRANCH  30  37
ENDBRANCH  28  30
ENDBRANCH   2  26
TORSDOF 13
ENDMDL
