MODEL 1
REMARK VINA RESULT:      -8.0      0.000      0.000
REMARK  13 active torsions:
REMARK  status: ('A' for Active; 'I' for Inactive)
REMARK    1  A    between atoms: O_1  and  C_23 
REMARK    2  A    between atoms: O_4  and  C_28 
REMARK    3  A    between atoms: N_6  and  C_16 
REMARK    4  A    between atoms: N_6  and  C_18 
REMARK    5  A    between atoms: N_7  and  C_14 
REMARK       I    between atoms: N_7  and  C_20 
REMARK    6  A    between atoms: N_12  and  C_32 
REMARK    7  A    between atoms: N_13  and  C_33 
REMARK    8  A    between atoms: C_14  and  C_15 
REMARK    9  A    between atoms: C_14  and  C_23 
REMARK   10  A    between atoms: C_15  and  C_17 
REMARK   11  A    between atoms: C_17  and  C_28 
REMARK   12  A    between atoms: C_18  and  C_26 
REMARK   13  A    between atoms: C_19  and  C_20 
ROOT
HETATM    1  C   UNK     0     -17.857 -45.797  21.499  0.00  0.00     0.030 A 
HETATM    2  C   UNK     0     -16.369 -46.066  19.154  0.00  0.00     0.032 A 
HETATM    3  C   UNK     0     -18.490 -46.157  20.307  0.00  0.00     0.030 A 
HETATM    4  C   UNK     0     -16.480 -45.573  21.516  0.00  0.00     0.030 A 
HETATM    5  C   UNK     0     -17.746 -46.291  19.135  0.00  0.00     0.019 A 
HETATM    6  C   UNK     0     -15.736 -45.707  20.344  0.00  0.00     0.019 A 
ENDROOT
BRANCH   1   7
HETATM    7  N   UNK     0     -18.610 -45.661  22.683  0.00  0.00    -0.379 N 
HETATM    8  C   UNK     0     -17.964 -45.757  23.977  0.00  0.00     0.150 C 
BRANCH   7   9
HETATM    9  C   UNK     0     -20.036 -45.408  22.622  0.00  0.00     0.183 C 
BRANCH   9  10
HETATM   10  C   UNK     0     -20.350 -44.035  23.149  0.00  0.00     0.070 A 
HETATM   11  N   UNK     0     -20.601 -43.908  24.461  0.00  0.00    -0.242 NA
HETATM   12  C   UNK     0     -20.880 -42.673  24.918  0.00  0.00     0.151 A 
HETATM   13  C   UNK     0     -20.912 -41.556  24.078  0.00  0.00     0.201 A 
HETATM   14  C   UNK     0     -21.153 -42.436  26.251  0.00  0.00     0.173 A 
HETATM   15  N   UNK     0     -20.655 -41.714  22.774  0.00  0.00    -0.237 NA
HETATM   16  N   UNK     0     -21.191 -40.338  24.558  0.00  0.00    -0.041 NA
HETATM   17  C   UNK     0     -20.376 -42.950  22.315  0.00  0.00     0.148 A 
HETATM   18  C   UNK     0     -21.441 -40.234  25.876  0.00  0.00     0.724 A 
HETATM   19  N   UNK     0     -21.440 -41.228  26.771  0.00  0.00    -0.043 NA
BRANCH  18  20
HETATM   20  N   UNK     0     -21.735 -38.942  26.364  0.00  0.00    -0.231 N 
HETATM   21  H   UNK     0     -22.625 -38.769  26.809  0.00  0.00     0.174 HD
HETATM   22  H   UNK     0     -21.052 -38.204  26.261  0.00  0.00     0.174 HD
ENDBRANCH  18  20
BRANCH  14  23
HETATM   23  N   UNK     0     -21.134 -43.542  27.140  0.00  0.00    -0.381 N 
HETATM   24  H   UNK     0     -21.174 -44.465  26.727  0.00  0.00     0.157 HD
HETATM   25  H   UNK     0     -20.668 -43.432  28.032  0.00  0.00     0.157 HD
ENDBRANCH  14  23
ENDBRANCH   9  10
ENDBRANCH   7   9
ENDBRANCH   1   7
BRANCH   2  26
HETATM   26  C   UNK     0     -15.576 -46.209  17.905  0.00  0.00     0.252 C 
HETATM   27  O   UNK     0     -14.365 -46.395  17.982  0.00  0.00    -0.268 OA
HETATM   28  N   UNK     0     -16.294 -46.140  16.719  0.00  0.00    -0.343 N 
HETATM   29  H   UNK     0     -17.306 -46.066  16.736  0.00  0.00     0.163 HD
BRANCH  28  30
HETATM   30  C   UNK     0     -15.671 -46.286  15.428  0.00  0.00     0.183 C 
BRANCH  30  31
HETATM   31  C   UNK     0     -15.486 -47.753  15.020  0.00  0.00     0.046 C 
BRANCH  31  32
HETATM   32  C   UNK     0     -14.060 -48.165  14.636  0.00  0.00     0.112 C 
BRANCH  32  33
HETATM   33  C   UNK     0     -13.622 -47.660  13.279  0.00  0.00     0.139 C 
HETATM   34  O   UNK     0     -13.712 -48.280  12.228  0.00  0.00    -0.650 OA
BRANCH  33  35
HETATM   35  O   UNK     0     -13.067 -46.423  13.360  0.00  0.00    -0.776 OA
HETATM   36  H   UNK     0     -13.201 -46.019  14.244  0.00  0.00     0.167 HD
ENDBRANCH  33  35
ENDBRANCH  32  33
ENDBRANCH  31  32
ENDBRANCH  30  31
BRANCH  30  37
HETATM   37  C   UNK     0     -16.478 -45.473  14.436  0.00  0.00     0.163 C 
HETATM   38  O   UNK     0     -16.541 -45.689  13.232  0.00  0.00    -0.648 OA
BRANCH  37  39
HETATM   39  O   UNK     0     -17.174 -44.476  15.042  0.00  0.00    -0.775 OA
HETATM   40  H   UNK     0     -18.141 -44.585  14.932  0.00  0.00     0.167 HD
ENDBRANCH  37  39
ENDBRANCH  30  37
ENDBRANCH  28  30
ENDBRANCH   2  26
TORSDOF 13
ENDMDL
MODEL 2
REMARK VINA RESULT:      -8.0      1.526      2.186
REMARK  13 active torsions:
REMARK  status: ('A' for Active; 'I' for Inactive)
REMARK    1  A    between atoms: O_1  and  C_23 
REMARK    2  A    between atoms: O_4  and  C_28 
REMARK    3  A    between atoms: N_6  and  C_16 
REMARK    4  A    between atoms: N_6  and  C_18 
REMARK    5  A    between atoms: N_7  and  C_14 
REMARK       I    between atoms: N_7  and  C_20 
REMARK    6  A    between atoms: N_12  and  C_32 
REMARK    7  A    between atoms: N_13  and  C_33 
REMARK    8  A    between atoms: C_14  and  C_15 
REMARK    9  A    between atoms: C_14  and  C_23 
REMARK   10  A    between atoms: C_15  and  C_17 
REMARK   11  A    between atoms: C_17  and  C_28 
REMARK   12  A    between atoms: C_18  and  C_26 
REMARK   13  A    between atoms: C_19  and  C_20 
ROOT
HETATM    1  C   UNK     0     -18.361 -45.787  21.746  0.00  0.00     0.030 A 
HETATM    2  C   UNK     0     -16.719 -46.060  19.507  0.00  0.00     0.032 A 
HETATM    3  C   UNK     0     -17.047 -45.316  21.782  0.00  0.00     0.030 A 
HETATM    4  C   UNK     0     -18.852 -46.394  20.590  0.00  0.00     0.030 A 
HETATM    5  C   UNK     0     -16.226 -45.452  20.663  0.00  0.00     0.019 A 
HETATM    6  C   UNK     0     -18.031 -46.530  19.470  0.00  0.00     0.019 A 
ENDROOT
BRANCH   1   7
HETATM    7  N   UNK     0     -19.190 -45.650  22.878  0.00  0.00    -0.379 N 
HETATM    8  C   UNK     0     -18.680 -45.947  24.201  0.00  0.00     0.150 C 
BRANCH   7   9
HETATM    9  C   UNK     0     -20.559 -45.195  22.735  0.00  0.00     0.183 C 
BRANCH   9  10
HETATM   10  C   UNK     0     -20.991 -44.432  23.957  0.00  0.00     0.070 A 
HETATM   11  N   UNK     0     -21.616 -45.110  24.931  0.00  0.00    -0.242 NA
HETATM   12  C   UNK     0     -21.996 -44.414  26.019  0.00  0.00     0.151 A 
HETATM   13  C   UNK     0     -21.759 -43.043  26.148  0.00  0.00     0.201 A 
HETATM   14  C   UNK     0     -22.647 -45.019  27.078  0.00  0.00     0.173 A 
HETATM   15  N   UNK     0     -21.132 -42.395  25.160  0.00  0.00    -0.237 NA
HETATM   16  N   UNK     0     -22.147 -42.374  27.241  0.00  0.00    -0.041 NA
HETATM   17  C   UNK     0     -20.751 -43.090  24.071  0.00  0.00     0.148 A 
HETATM   18  C   UNK     0     -22.773 -43.073  28.206  0.00  0.00     0.724 A 
HETATM   19  N   UNK     0     -23.053 -44.381  28.191  0.00  0.00    -0.043 NA
BRANCH  18  20
HETATM   20  N   UNK     0     -23.176 -42.351  29.351  0.00  0.00    -0.231 N 
HETATM   21  H   UNK     0     -23.382 -41.366  29.269  0.00  0.00     0.174 HD
HETATM   22  H   UNK     0     -23.251 -42.828  30.238  0.00  0.00     0.174 HD
ENDBRANCH  18  20
BRANCH  14  23
HETATM   23  N   UNK     0     -22.910 -46.411  26.989  0.00  0.00    -0.381 N 
HETATM   24  H   UNK     0     -22.785 -46.846  26.084  0.00  0.00     0.157 HD
HETATM   25  H   UNK     0     -22.781 -46.977  27.818  0.00  0.00     0.157 HD
ENDBRANCH  14  23
ENDBRANCH   9  10
ENDBRANCH   7   9
ENDBRANCH   1   7
BRANCH   2  26
HETATM   26  C   UNK     0     -15.844 -46.205  18.314  0.00  0.00     0.252 C 
HETATM   27  O   UNK     0     -14.750 -46.749  18.437  0.00  0.00    -0.268 OA
HETATM   28  N   UNK     0     -16.359 -45.719  17.120  0.00  0.00    -0.343 N 
HETATM   29  H   UNK     0     -17.305 -45.355  17.081  0.00  0.00     0.163 HD
BRANCH  28  30
HETATM   30  C   UNK     0     -15.641 -45.809  15.874  0.00  0.00     0.183 C 
BRANCH  30  31
HETATM   31  C   UNK     0     -15.931 -47.110  15.115  0.00  0.00     0.046 C 
BRANCH  31  32
HETATM   32  C   UNK     0     -15.333 -47.210  13.706  0.00  0.00     0.112 C 
BRANCH  32  33
HETATM   33  C   UNK     0     -13.826 -47.081  13.671  0.00  0.00     0.139 C 
HETATM   34  O   UNK     0     -13.033 -47.904  14.108  0.00  0.00    -0.650 OA
BRANCH  33  35
HETATM   35  O   UNK     0     -13.437 -45.902  13.121  0.00  0.00    -0.776 OA
HETATM   36  H   UNK     0     -13.028 -46.027  12.238  0.00  0.00     0.167 HD
ENDBRANCH  33  35
ENDBRANCH  32  33
ENDBRANCH  31  32
ENDBRANCH  30  31
BRANCH  30  37
HETATM   37  C   UNK     0     -15.945 -44.557  15.078  0.00  0.00     0.163 C 
HETATM   38  O   UNK     0     -15.107 -43.800  14.605  0.00  0.00    -0.648 OA
BRANCH  37  39
HETATM   39  O   UNK     0     -17.281 -44.376  14.907  0.00  0.00    -0.775 OA
HETATM   40  H   UNK     0     -17.683 -45.096  14.378  0.00  0.00     0.167 HD
ENDBRANCH  37  39
ENDBRANCH  30  37
ENDBRANCH  28  30
ENDBRANCH   2  26
TORSDOF 13
ENDMDL
MODEL 3
REMARK VINA RESULT:      -7.9      1.244      2.095
REMARK  13 active torsions:
REMARK  status: ('A' for Active; 'I' for Inactive)
REMARK    1  A    between atoms: O_1  and  C_23 
REMARK    2  A    between atoms: O_4  and  C_28 
REMARK    3  A    between atoms: N_6  and  C_16 
REMARK    4  A    between atoms: N_6  and  C_18 
REMARK    5  A    between atoms: N_7  and  C_14 
REMARK       I    between atoms: N_7  and  C_20 
REMARK    6  A    between atoms: N_12  and  C_32 
REMARK    7  A    between atoms: N_13  and  C_33 
REMARK    8  A    between atoms: C_14  and  C_15 
REMARK    9  A    between atoms: C_14  and  C_23 
REMARK   10  A    between atoms: C_15  and  C_17 
REMARK   11  A    between atoms: C_17  and  C_28 
REMARK   12  A    between atoms: C_18  and  C_26 
REMARK   13  A    between atoms: C_19  and  C_20 
ROOT
HETATM    1  C   UNK     0     -17.791 -45.811  21.430  0.00  0.00     0.030 A 
HETATM    2  C   UNK     0     -16.317 -46.157  19.087  0.00  0.00     0.032 A 
HETATM    3  C   UNK     0     -16.443 -45.450  21.393  0.00  0.00     0.030 A 
HETATM    4  C   UNK     0     -18.401 -46.344  20.294  0.00  0.00     0.030 A 
HETATM    5  C   UNK     0     -15.706 -45.624  20.222  0.00  0.00     0.019 A 
HETATM    6  C   UNK     0     -17.664 -46.517  19.123  0.00  0.00     0.019 A 
ENDROOT
BRANCH   1   7
HETATM    7  N   UNK     0     -18.536 -45.636  22.615  0.00  0.00    -0.379 N 
HETATM    8  C   UNK     0     -17.879 -45.677  23.906  0.00  0.00     0.150 C 
BRANCH   7   9
HETATM    9  C   UNK     0     -19.964 -45.397  22.556  0.00  0.00     0.183 C 
BRANCH   9  10
HETATM   10  C   UNK     0     -20.293 -44.033  23.097  0.00  0.00     0.070 A 
HETATM   11  N   UNK     0     -20.554 -43.925  24.409  0.00  0.00    -0.242 NA
HETATM   12  C   UNK     0     -20.846 -42.698  24.880  0.00  0.00     0.151 A 
HETATM   13  C   UNK     0     -20.881 -41.572  24.054  0.00  0.00     0.201 A 
HETATM   14  C   UNK     0     -21.130 -42.480  26.214  0.00  0.00     0.173 A 
HETATM   15  N   UNK     0     -20.615 -41.711  22.750  0.00  0.00    -0.237 NA
HETATM   16  N   UNK     0     -21.174 -40.362  24.547  0.00  0.00    -0.041 NA
HETATM   17  C   UNK     0     -20.322 -42.938  22.278  0.00  0.00     0.148 A 
HETATM   18  C   UNK     0     -21.433 -40.276  25.865  0.00  0.00     0.724 A 
HETATM   19  N   UNK     0     -21.430 -41.282  26.747  0.00  0.00    -0.043 NA
BRANCH  18  20
HETATM   20  N   UNK     0     -21.741 -38.992  26.366  0.00  0.00    -0.231 N 
HETATM   21  H   UNK     0     -22.618 -38.843  26.845  0.00  0.00     0.174 HD
HETATM   22  H   UNK     0     -21.081 -38.238  26.240  0.00  0.00     0.174 HD
ENDBRANCH  18  20
BRANCH  14  23
HETATM   23  N   UNK     0     -21.107 -43.597  27.090  0.00  0.00    -0.381 N 
HETATM   24  H   UNK     0     -21.791 -43.610  27.836  0.00  0.00     0.157 HD
HETATM   25  H   UNK     0     -20.767 -44.480  26.731  0.00  0.00     0.157 HD
ENDBRANCH  14  23
ENDBRANCH   9  10
ENDBRANCH   7   9
ENDBRANCH   1   7
BRANCH   2  26
HETATM   26  C   UNK     0     -15.532 -46.342  17.839  0.00  0.00     0.252 C 
HETATM   27  O   UNK     0     -14.341 -46.632  17.917  0.00  0.00    -0.268 OA
HETATM   28  N   UNK     0     -16.233 -46.189  16.650  0.00  0.00    -0.343 N 
HETATM   29  H   UNK     0     -17.235 -46.029  16.664  0.00  0.00     0.163 HD
BRANCH  28  30
HETATM   30  C   UNK     0     -15.617 -46.361  15.360  0.00  0.00     0.183 C 
BRANCH  30  31
HETATM   31  C   UNK     0     -16.125 -47.605  14.621  0.00  0.00     0.046 C 
BRANCH  31  32
HETATM   32  C   UNK     0     -17.482 -48.150  15.084  0.00  0.00     0.112 C 
BRANCH  32  33
HETATM   33  C   UNK     0     -18.561 -48.081  14.025  0.00  0.00     0.139 C 
HETATM   34  O   UNK     0     -18.442 -47.565  12.923  0.00  0.00    -0.650 OA
BRANCH  33  35
HETATM   35  O   UNK     0     -19.722 -48.636  14.458  0.00  0.00    -0.776 OA
HETATM   36  H   UNK     0     -20.080 -48.172  15.245  0.00  0.00     0.167 HD
ENDBRANCH  33  35
ENDBRANCH  32  33
ENDBRANCH  31  32
ENDBRANCH  30  31
BRANCH  30  37
HETATM   37  C   UNK     0     -15.805 -45.072  14.587  0.00  0.00     0.163 C 
HETATM   38  O   UNK     0     -16.884 -44.608  14.239  0.00  0.00    -0.648 OA
BRANCH  37  39
HETATM   39  O   UNK     0     -14.623 -44.447  14.345  0.00  0.00    -0.775 OA
HETATM   40  H   UNK     0     -14.077 -44.936  13.695  0.00  0.00     0.167 HD
ENDBRANCH  37  39
ENDBRANCH  30  37
ENDBRANCH  28  30
ENDBRANCH   2  26
TORSDOF 13
ENDMDL
