MODEL 1
REMARK VINA RESULT:      -8.6      0.000      0.000
REMARK  13 active torsions:
REMARK  status: ('A' for Active; 'I' for Inactive)
REMARK    1  A    between atoms: O_1  and  C_23 
REMARK    2  A    between atoms: O_4  and  C_28 
REMARK    3  A    between atoms: N_6  and  C_16 
REMARK    4  A    between atoms: N_6  and  C_18 
REMARK    5  A    between atoms: N_7  and  C_14 
REMARK       I    between atoms: N_7  and  C_20 
REMARK    6  A    between atoms: N_12  and  C_32 
REMARK    7  A    between atoms: N_13  and  C_33 
REMARK    8  A    between atoms: C_14  and  C_15 
REMARK    9  A    between atoms: C_14  and  C_23 
REMARK   10  A    between atoms: C_15  and  C_17 
REMARK   11  A    between atoms: C_17  and  C_28 
REMARK   12  A    between atoms: C_18  and  C_26 
REMARK   13  A    between atoms: C_19  and  C_20 
ROOT
HETATM    1  C   UNK     0     -14.240  21.852  -8.681  0.00  0.00     0.030 A 
HETATM    2  C   UNK     0     -15.835  19.734  -7.814  0.00  0.00     0.032 A 
HETATM    3  C   UNK     0     -14.304  20.675  -9.429  0.00  0.00     0.030 A 
HETATM    4  C   UNK     0     -14.974  21.969  -7.501  0.00  0.00     0.030 A 
HETATM    5  C   UNK     0     -15.101  19.616  -8.995  0.00  0.00     0.019 A 
HETATM    6  C   UNK     0     -15.772  20.910  -7.068  0.00  0.00     0.019 A 
ENDROOT
BRANCH   1   7
HETATM    7  N   UNK     0     -13.433  22.923  -9.120  0.00  0.00    -0.379 N 
HETATM    8  C   UNK     0     -13.999  23.984  -9.928  0.00  0.00     0.150 C 
BRANCH   7   9
HETATM    9  C   UNK     0     -12.032  22.983  -8.756  0.00  0.00     0.183 C 
BRANCH   9  10
HETATM   10  C   UNK     0     -11.754  24.210  -7.933  0.00  0.00     0.070 A 
HETATM   11  N   UNK     0     -10.772  25.029  -8.340  0.00  0.00    -0.242 NA
HETATM   12  C   UNK     0     -10.535  26.125  -7.594  0.00  0.00     0.151 A 
HETATM   13  C   UNK     0     -11.268  26.415  -6.441  0.00  0.00     0.201 A 
HETATM   14  C   UNK     0      -9.546  27.030  -7.927  0.00  0.00     0.173 A 
HETATM   15  N   UNK     0     -12.242  25.580  -6.061  0.00  0.00    -0.237 NA
HETATM   16  N   UNK     0     -11.013  27.512  -5.717  0.00  0.00    -0.041 NA
HETATM   17  C   UNK     0     -12.481  24.483  -6.806  0.00  0.00     0.148 A 
HETATM   18  C   UNK     0     -10.024  28.319  -6.142  0.00  0.00     0.724 A 
HETATM   19  N   UNK     0      -9.258  28.141  -7.225  0.00  0.00    -0.043 NA
BRANCH  18  20
HETATM   20  N   UNK     0      -9.768  29.470  -5.365  0.00  0.00    -0.231 N 
HETATM   21  H   UNK     0     -10.539  29.961  -4.937  0.00  0.00     0.174 HD
HETATM   22  H   UNK     0      -8.816  29.789  -5.248  0.00  0.00     0.174 HD
ENDBRANCH  18  20
BRANCH  14  23
HETATM   23  N   UNK     0      -8.774  26.774  -9.090  0.00  0.00    -0.381 N 
HETATM   24  H   UNK     0      -8.030  26.094  -9.008  0.00  0.00     0.157 HD
HETATM   25  H   UNK     0      -9.211  26.905  -9.994  0.00  0.00     0.157 HD
ENDBRANCH  14  23
ENDBRANCH   9  10
ENDBRANCH   7   9
ENDBRANCH   1   7
BRANCH   2  26
HETATM   26  C   UNK     0     -16.684  18.605  -7.353  0.00  0.00     0.252 C 
HETATM   27  O   UNK     0     -17.067  18.581  -6.186  0.00  0.00    -0.268 OA
HETATM   28  N   UNK     0     -17.005  17.654  -8.312  0.00  0.00    -0.343 N 
HETATM   29  H   UNK     0     -16.721  17.784  -9.277  0.00  0.00     0.163 HD
BRANCH  28  30
HETATM   30  C   UNK     0     -17.840  16.515  -8.024  0.00  0.00     0.183 C 
BRANCH  30  31
HETATM   31  C   UNK     0     -19.048  16.413  -8.963  0.00  0.00     0.046 C 
BRANCH  31  32
HETATM   32  C   UNK     0     -20.135  15.413  -8.548  0.00  0.00     0.112 C 
BRANCH  32  33
HETATM   33  C   UNK     0     -20.697  14.609  -9.700  0.00  0.00     0.139 C 
HETATM   34  O   UNK     0     -21.298  15.070 -10.661  0.00  0.00    -0.650 OA
BRANCH  33  35
HETATM   35  O   UNK     0     -20.490  13.278  -9.529  0.00  0.00    -0.776 OA
HETATM   36  H   UNK     0     -21.243  12.744  -9.860  0.00  0.00     0.167 HD
ENDBRANCH  33  35
ENDBRANCH  32  33
ENDBRANCH  31  32
ENDBRANCH  30  31
BRANCH  30  37
HETATM   37  C   UNK     0     -16.955  15.286  -8.029  0.00  0.00     0.163 C 
HETATM   38  O   UNK     0     -16.251  14.927  -8.964  0.00  0.00    -0.648 OA
BRANCH  37  39
HETATM   39  O   UNK     0     -16.997  14.624  -6.843  0.00  0.00    -0.775 OA
HETATM   40  H   UNK     0     -16.110  14.555  -6.431  0.00  0.00     0.167 HD
ENDBRANCH  37  39
ENDBRANCH  30  37
ENDBRANCH  28  30
ENDBRANCH   2  26
TORSDOF 13
ENDMDL
MODEL 2
REMARK VINA RESULT:      -8.4      1.889      2.593
REMARK  13 active torsions:
REMARK  status: ('A' for Active; 'I' for Inactive)
REMARK    1  A    between atoms: O_1  and  C_23 
REMARK    2  A    between atoms: O_4  and  C_28 
REMARK    3  A    between atoms: N_6  and  C_16 
REMARK    4  A    between atoms: N_6  and  C_18 
REMARK    5  A    between atoms: N_7  and  C_14 
REMARK       I    between atoms: N_7  and  C_20 
REMARK    6  A    between atoms: N_12  and  C_32 
REMARK    7  A    between atoms: N_13  and  C_33 
REMARK    8  A    between atoms: C_14  and  C_15 
REMARK    9  A    between atoms: C_14  and  C_23 
REMARK   10  A    between atoms: C_15  and  C_17 
REMARK   11  A    between atoms: C_17  and  C_28 
REMARK   12  A    between atoms: C_18  and  C_26 
REMARK   13  A    between atoms: C_19  and  C_20 
ROOT
HETATM    1  C   UNK     0     -14.117  21.937  -9.244  0.00  0.00     0.030 A 
HETATM    2  C   UNK     0     -15.527  19.564  -8.838  0.00  0.00     0.032 A 
HETATM    3  C   UNK     0     -14.847  21.751  -8.069  0.00  0.00     0.030 A 
HETATM    4  C   UNK     0     -14.093  20.936 -10.215  0.00  0.00     0.030 A 
HETATM    5  C   UNK     0     -15.552  20.564  -7.866  0.00  0.00     0.019 A 
HETATM    6  C   UNK     0     -14.798  19.750 -10.012  0.00  0.00     0.019 A 
ENDROOT
BRANCH   1   7
HETATM    7  N   UNK     0     -13.406  23.137  -9.449  0.00  0.00    -0.379 N 
HETATM    8  C   UNK     0     -14.076  24.305  -9.986  0.00  0.00     0.150 C 
BRANCH   7   9
HETATM    9  C   UNK     0     -11.999  23.223  -9.111  0.00  0.00     0.183 C 
BRANCH   9  10
HETATM   10  C   UNK     0     -11.759  24.346  -8.139  0.00  0.00     0.070 A 
HETATM   11  N   UNK     0     -10.797  25.234  -8.432  0.00  0.00    -0.242 NA
HETATM   12  C   UNK     0     -10.594  26.234  -7.553  0.00  0.00     0.151 A 
HETATM   13  C   UNK     0     -11.341  26.358  -6.379  0.00  0.00     0.201 A 
HETATM   14  C   UNK     0      -9.628  27.199  -7.761  0.00  0.00     0.173 A 
HETATM   15  N   UNK     0     -12.295  25.457  -6.115  0.00  0.00    -0.237 NA
HETATM   16  N   UNK     0     -11.120  27.362  -5.521  0.00  0.00    -0.041 NA
HETATM   17  C   UNK     0     -12.499  24.456  -6.994  0.00  0.00     0.148 A 
HETATM   18  C   UNK     0     -10.151  28.242  -5.834  0.00  0.00     0.724 A 
HETATM   19  N   UNK     0      -9.375  28.221  -6.924  0.00  0.00    -0.043 NA
BRANCH  18  20
HETATM   20  N   UNK     0      -9.930  29.293  -4.917  0.00  0.00    -0.231 N 
HETATM   21  H   UNK     0     -10.290  29.215  -3.977  0.00  0.00     0.174 HD
HETATM   22  H   UNK     0      -9.416  30.110  -5.213  0.00  0.00     0.174 HD
ENDBRANCH  18  20
BRANCH  14  23
HETATM   23  N   UNK     0      -8.843  27.111  -8.941  0.00  0.00    -0.381 N 
HETATM   24  H   UNK     0      -8.686  27.969  -9.454  0.00  0.00     0.157 HD
HETATM   25  H   UNK     0      -8.147  26.379  -9.000  0.00  0.00     0.157 HD
ENDBRANCH  14  23
ENDBRANCH   9  10
ENDBRANCH   7   9
ENDBRANCH   1   7
BRANCH   2  26
HETATM   26  C   UNK     0     -16.278  18.300  -8.622  0.00  0.00     0.252 C 
HETATM   27  O   UNK     0     -17.356  18.337  -8.034  0.00  0.00    -0.268 OA
HETATM   28  N   UNK     0     -15.695  17.150  -9.137  0.00  0.00    -0.343 N 
HETATM   29  H   UNK     0     -14.842  17.210  -9.683  0.00  0.00     0.163 HD
BRANCH  28  30
HETATM   30  C   UNK     0     -16.313  15.854  -9.029  0.00  0.00     0.183 C 
BRANCH  30  31
HETATM   31  C   UNK     0     -16.031  14.959 -10.243  0.00  0.00     0.046 C 
BRANCH  31  32
HETATM   32  C   UNK     0     -15.030  15.514 -11.264  0.00  0.00     0.112 C 
BRANCH  32  33
HETATM   33  C   UNK     0     -15.328  15.112 -12.692  0.00  0.00     0.139 C 
HETATM   34  O   UNK     0     -16.277  14.431 -13.054  0.00  0.00    -0.650 OA
BRANCH  33  35
HETATM   35  O   UNK     0     -14.379  15.570 -13.549  0.00  0.00    -0.776 OA
HETATM   36  H   UNK     0     -13.477  15.293 -13.280  0.00  0.00     0.167 HD
ENDBRANCH  33  35
ENDBRANCH  32  33
ENDBRANCH  31  32
ENDBRANCH  30  31
BRANCH  30  37
HETATM   37  C   UNK     0     -15.880  15.248  -7.710  0.00  0.00     0.163 C 
HETATM   38  O   UNK     0     -14.765  15.354  -7.217  0.00  0.00    -0.648 OA
BRANCH  37  39
HETATM   39  O   UNK     0     -16.897  14.587  -7.096  0.00  0.00    -0.775 OA
HETATM   40  H   UNK     0     -16.770  13.616  -7.120  0.00  0.00     0.167 HD
ENDBRANCH  37  39
ENDBRANCH  30  37
ENDBRANCH  28  30
ENDBRANCH   2  26
TORSDOF 13
ENDMDL
MODEL 3
REMARK VINA RESULT:      -8.3      4.720     10.401
REMARK  13 active torsions:
REMARK  status: ('A' for Active; 'I' for Inactive)
REMARK    1  A    between atoms: O_1  and  C_23 
REMARK    2  A    between atoms: O_4  and  C_28 
REMARK    3  A    between atoms: N_6  and  C_16 
REMARK    4  A    between atoms: N_6  and  C_18 
REMARK    5  A    between atoms: N_7  and  C_14 
REMARK       I    between atoms: N_7  and  C_20 
REMARK    6  A    between atoms: N_12  and  C_32 
REMARK    7  A    between atoms: N_13  and  C_33 
REMARK    8  A    between atoms: C_14  and  C_15 
REMARK    9  A    between atoms: C_14  and  C_23 
REMARK   10  A    between atoms: C_15  and  C_17 
REMARK   11  A    between atoms: C_17  and  C_28 
REMARK   12  A    between atoms: C_18  and  C_26 
REMARK   13  A    between atoms: C_19  and  C_20 
ROOT
HETATM    1  C   UNK     0     -16.344  17.907  -7.117  0.00  0.00     0.030 A 
HETATM    2  C   UNK     0     -15.548  19.858  -8.946  0.00  0.00     0.032 A 
HETATM    3  C   UNK     0     -14.997  18.259  -7.221  0.00  0.00     0.030 A 
HETATM    4  C   UNK     0     -17.291  18.532  -7.928  0.00  0.00     0.030 A 
HETATM    5  C   UNK     0     -14.599  19.234  -8.135  0.00  0.00     0.019 A 
HETATM    6  C   UNK     0     -16.893  19.507  -8.842  0.00  0.00     0.019 A 
ENDROOT
BRANCH   1   7
HETATM    7  N   UNK     0     -16.746  16.920  -6.193  0.00  0.00    -0.379 N 
HETATM    8  C   UNK     0     -17.439  17.294  -4.977  0.00  0.00     0.150 C 
BRANCH   7   9
HETATM    9  C   UNK     0     -16.486  15.519  -6.456  0.00  0.00     0.183 C 
BRANCH   9  10
HETATM   10  C   UNK     0     -16.284  15.288  -7.928  0.00  0.00     0.070 A 
HETATM   11  N   UNK     0     -15.032  15.079  -8.364  0.00  0.00    -0.242 NA
HETATM   12  C   UNK     0     -14.866  14.872  -9.684  0.00  0.00     0.151 A 
HETATM   13  C   UNK     0     -15.939  14.873 -10.580  0.00  0.00     0.201 A 
HETATM   14  C   UNK     0     -13.618  14.648 -10.234  0.00  0.00     0.173 A 
HETATM   15  N   UNK     0     -17.176  15.083 -10.115  0.00  0.00    -0.237 NA
HETATM   16  N   UNK     0     -15.747  14.665 -11.888  0.00  0.00    -0.041 NA
HETATM   17  C   UNK     0     -17.343  15.289  -8.794  0.00  0.00     0.148 A 
HETATM   18  C   UNK     0     -14.484  14.458 -12.305  0.00  0.00     0.724 A 
HETATM   19  N   UNK     0     -13.385  14.437 -11.542  0.00  0.00    -0.043 NA
BRANCH  18  20
HETATM   20  N   UNK     0     -14.301  14.241 -13.688  0.00  0.00    -0.231 N 
HETATM   21  H   UNK     0     -14.869  14.751 -14.350  0.00  0.00     0.174 HD
HETATM   22  H   UNK     0     -13.605  13.579 -13.999  0.00  0.00     0.174 HD
ENDBRANCH  18  20
BRANCH  14  23
HETATM   23  N   UNK     0     -12.499  14.641  -9.361  0.00  0.00    -0.381 N 
HETATM   24  H   UNK     0     -12.332  13.793  -8.834  0.00  0.00     0.157 HD
HETATM   25  H   UNK     0     -11.710  15.232  -9.589  0.00  0.00     0.157 HD
ENDBRANCH  14  23
ENDBRANCH   9  10
ENDBRANCH   7   9
ENDBRANCH   1   7
BRANCH   2  26
HETATM   26  C   UNK     0     -15.123  20.897  -9.920  0.00  0.00     0.252 C 
HETATM   27  O   UNK     0     -15.544  20.846 -11.072  0.00  0.00    -0.268 OA
HETATM   28  N   UNK     0     -14.279  21.883  -9.427  0.00  0.00    -0.343 N 
HETATM   29  H   UNK     0     -14.039  21.907  -8.442  0.00  0.00     0.163 HD
BRANCH  28  30
HETATM   30  C   UNK     0     -13.801  22.972 -10.242  0.00  0.00     0.183 C 
BRANCH  30  31
HETATM   31  C   UNK     0     -13.270  24.146  -9.411  0.00  0.00     0.046 C 
BRANCH  31  32
HETATM   32  C   UNK     0     -12.901  23.823  -7.957  0.00  0.00     0.112 C 
BRANCH  32  33
HETATM   33  C   UNK     0     -11.519  23.230  -7.794  0.00  0.00     0.139 C 
HETATM   34  O   UNK     0     -10.491  23.866  -7.608  0.00  0.00    -0.650 OA
BRANCH  33  35
HETATM   35  O   UNK     0     -11.537  21.878  -7.919  0.00  0.00    -0.776 OA
HETATM   36  H   UNK     0     -10.642  21.488  -7.819  0.00  0.00     0.167 HD
ENDBRANCH  33  35
ENDBRANCH  32  33
ENDBRANCH  31  32
ENDBRANCH  30  31
BRANCH  30  37
HETATM   37  C   UNK     0     -12.789  22.405 -11.216  0.00  0.00     0.163 C 
HETATM   38  O   UNK     0     -11.704  21.929 -10.909  0.00  0.00    -0.648 OA
BRANCH  37  39
HETATM   39  O   UNK     0     -13.240  22.446 -12.498  0.00  0.00    -0.775 OA
HETATM   40  H   UNK     0     -13.245  23.359 -12.855  0.00  0.00     0.167 HD
ENDBRANCH  37  39
ENDBRANCH  30  37
ENDBRANCH  28  30
ENDBRANCH   2  26
TORSDOF 13
ENDMDL
