MODEL 1
REMARK VINA RESULT:      -7.0      0.000      0.000
REMARK  13 active torsions:
REMARK  status: ('A' for Active; 'I' for Inactive)
REMARK    1  A    between atoms: O_1  and  C_23 
REMARK    2  A    between atoms: O_4  and  C_28 
REMARK    3  A    between atoms: N_6  and  C_16 
REMARK    4  A    between atoms: N_6  and  C_18 
REMARK    5  A    between atoms: N_7  and  C_14 
REMARK       I    between atoms: N_7  and  C_20 
REMARK    6  A    between atoms: N_12  and  C_32 
REMARK    7  A    between atoms: N_13  and  C_33 
REMARK    8  A    between atoms: C_14  and  C_15 
REMARK    9  A    between atoms: C_14  and  C_23 
REMARK   10  A    between atoms: C_15  and  C_17 
REMARK   11  A    between atoms: C_17  and  C_28 
REMARK   12  A    between atoms: C_18  and  C_26 
REMARK   13  A    between atoms: C_19  and  C_20 
ROOT
HETATM    1  C   UNK     0      40.840   2.907  31.666  0.00  0.00     0.030 A 
HETATM    2  C   UNK     0      39.821   2.484  29.104  0.00  0.00     0.032 A 
HETATM    3  C   UNK     0      41.510   2.062  30.779  0.00  0.00     0.030 A 
HETATM    4  C   UNK     0      39.662   3.540  31.270  0.00  0.00     0.030 A 
HETATM    5  C   UNK     0      41.000   1.851  29.498  0.00  0.00     0.019 A 
HETATM    6  C   UNK     0      39.153   3.329  29.989  0.00  0.00     0.019 A 
ENDROOT
BRANCH   1   7
HETATM    7  N   UNK     0      41.355   3.120  32.962  0.00  0.00    -0.379 N 
HETATM    8  C   UNK     0      42.306   2.189  33.535  0.00  0.00     0.150 C 
BRANCH   7   9
HETATM    9  C   UNK     0      40.952   4.281  33.730  0.00  0.00     0.183 C 
BRANCH   9  10
HETATM   10  C   UNK     0      40.273   3.859  35.004  0.00  0.00     0.070 A 
HETATM   11  N   UNK     0      39.159   4.513  35.366  0.00  0.00    -0.242 NA
HETATM   12  C   UNK     0      38.561   4.123  36.508  0.00  0.00     0.151 A 
HETATM   13  C   UNK     0      39.063   3.087  37.298  0.00  0.00     0.201 A 
HETATM   14  C   UNK     0      37.409   4.732  36.969  0.00  0.00     0.173 A 
HETATM   15  N   UNK     0      40.177   2.453  36.910  0.00  0.00    -0.237 NA
HETATM   16  N   UNK     0      38.450   2.719  38.429  0.00  0.00    -0.041 NA
HETATM   17  C   UNK     0      40.776   2.841  35.767  0.00  0.00     0.148 A 
HETATM   18  C   UNK     0      37.334   3.387  38.774  0.00  0.00     0.724 A 
HETATM   19  N   UNK     0      36.764   4.392  38.100  0.00  0.00    -0.043 NA
BRANCH  18  20
HETATM   20  N   UNK     0      36.701   2.986  39.971  0.00  0.00    -0.231 N 
HETATM   21  H   UNK     0      36.783   2.028  40.280  0.00  0.00     0.174 HD
HETATM   22  H   UNK     0      36.173   3.662  40.504  0.00  0.00     0.174 HD
ENDBRANCH  18  20
BRANCH  14  23
HETATM   23  N   UNK     0      36.863   5.792  36.199  0.00  0.00    -0.381 N 
HETATM   24  H   UNK     0      37.323   6.009  35.324  0.00  0.00     0.157 HD
HETATM   25  H   UNK     0      35.874   5.988  36.286  0.00  0.00     0.157 HD
ENDBRANCH  14  23
ENDBRANCH   9  10
ENDBRANCH   7   9
ENDBRANCH   1   7
BRANCH   2  26
HETATM   26  C   UNK     0      39.279   2.259  27.739  0.00  0.00     0.252 C 
HETATM   27  O   UNK     0      39.611   1.251  27.121  0.00  0.00    -0.268 OA
HETATM   28  N   UNK     0      38.397   3.222  27.268  0.00  0.00    -0.343 N 
HETATM   29  H   UNK     0      38.106   3.986  27.868  0.00  0.00     0.163 HD
BRANCH  28  30
HETATM   30  C   UNK     0      37.769   3.131  25.975  0.00  0.00     0.183 C 
BRANCH  30  31
HETATM   31  C   UNK     0      36.242   3.019  26.063  0.00  0.00     0.046 C 
BRANCH  31  32
HETATM   32  C   UNK     0      35.609   1.865  25.276  0.00  0.00     0.112 C 
BRANCH  32  33
HETATM   33  C   UNK     0      35.497   0.577  26.063  0.00  0.00     0.139 C 
HETATM   34  O   UNK     0      34.453   0.061  26.435  0.00  0.00    -0.650 OA
BRANCH  33  35
HETATM   35  O   UNK     0      36.719   0.061  26.354  0.00  0.00    -0.776 OA
HETATM   36  H   UNK     0      36.804  -0.870  26.057  0.00  0.00     0.167 HD
ENDBRANCH  33  35
ENDBRANCH  32  33
ENDBRANCH  31  32
ENDBRANCH  30  31
BRANCH  30  37
HETATM   37  C   UNK     0      38.248   4.307  25.148  0.00  0.00     0.163 C 
HETATM   38  O   UNK     0      38.496   4.273  23.950  0.00  0.00    -0.648 OA
BRANCH  37  39
HETATM   39  O   UNK     0      38.341   5.443  25.888  0.00  0.00    -0.775 OA
HETATM   40  H   UNK     0      38.709   5.270  26.780  0.00  0.00     0.167 HD
ENDBRANCH  37  39
ENDBRANCH  30  37
ENDBRANCH  28  30
ENDBRANCH   2  26
TORSDOF 13
ENDMDL
MODEL 2
REMARK VINA RESULT:      -6.8     25.485     27.673
REMARK  13 active torsions:
REMARK  status: ('A' for Active; 'I' for Inactive)
REMARK    1  A    between atoms: O_1  and  C_23 
REMARK    2  A    between atoms: O_4  and  C_28 
REMARK    3  A    between atoms: N_6  and  C_16 
REMARK    4  A    between atoms: N_6  and  C_18 
REMARK    5  A    between atoms: N_7  and  C_14 
REMARK       I    between atoms: N_7  and  C_20 
REMARK    6  A    between atoms: N_12  and  C_32 
REMARK    7  A    between atoms: N_13  and  C_33 
REMARK    8  A    between atoms: C_14  and  C_15 
REMARK    9  A    between atoms: C_14  and  C_23 
REMARK   10  A    between atoms: C_15  and  C_17 
REMARK   11  A    between atoms: C_17  and  C_28 
REMARK   12  A    between atoms: C_18  and  C_26 
REMARK   13  A    between atoms: C_19  and  C_20 
ROOT
HETATM    1  C   UNK     0      24.401  24.999  35.503  0.00  0.00     0.030 A 
HETATM    2  C   UNK     0      25.356  27.128  33.974  0.00  0.00     0.032 A 
HETATM    3  C   UNK     0      25.775  25.230  35.408  0.00  0.00     0.030 A 
HETATM    4  C   UNK     0      23.506  25.834  34.834  0.00  0.00     0.030 A 
HETATM    5  C   UNK     0      26.252  26.295  34.644  0.00  0.00     0.019 A 
HETATM    6  C   UNK     0      23.984  26.899  34.069  0.00  0.00     0.019 A 
ENDROOT
BRANCH   1   7
HETATM    7  N   UNK     0      23.919  23.922  36.276  0.00  0.00    -0.379 N 
HETATM    8  C   UNK     0      24.665  22.682  36.351  0.00  0.00     0.150 C 
BRANCH   7   9
HETATM    9  C   UNK     0      22.680  24.047  37.018  0.00  0.00     0.183 C 
BRANCH   9  10
HETATM   10  C   UNK     0      22.879  23.628  38.448  0.00  0.00     0.070 A 
HETATM   11  N   UNK     0      22.380  22.442  38.829  0.00  0.00    -0.242 NA
HETATM   12  C   UNK     0      22.566  22.080  40.112  0.00  0.00     0.151 A 
HETATM   13  C   UNK     0      23.246  22.889  41.025  0.00  0.00     0.201 A 
HETATM   14  C   UNK     0      22.091  20.879  40.604  0.00  0.00     0.173 A 
HETATM   15  N   UNK     0      23.733  24.066  40.615  0.00  0.00    -0.237 NA
HETATM   16  N   UNK     0      23.418  22.505  42.297  0.00  0.00    -0.041 NA
HETATM   17  C   UNK     0      23.548  24.431  39.332  0.00  0.00     0.148 A 
HETATM   18  C   UNK     0      22.909  21.313  42.658  0.00  0.00     0.724 A 
HETATM   19  N   UNK     0      22.242  20.459  41.873  0.00  0.00    -0.043 NA
BRANCH  18  20
HETATM   20  N   UNK     0      23.099  20.925  44.002  0.00  0.00    -0.231 N 
HETATM   21  H   UNK     0      24.037  20.799  44.355  0.00  0.00     0.174 HD
HETATM   22  H   UNK     0      22.294  20.778  44.595  0.00  0.00     0.174 HD
ENDBRANCH  18  20
BRANCH  14  23
HETATM   23  N   UNK     0      21.392  20.025  39.712  0.00  0.00    -0.381 N 
HETATM   24  H   UNK     0      21.489  20.214  38.722  0.00  0.00     0.157 HD
HETATM   25  H   UNK     0      21.206  19.074  40.005  0.00  0.00     0.157 HD
ENDBRANCH  14  23
ENDBRANCH   9  10
ENDBRANCH   7   9
ENDBRANCH   1   7
BRANCH   2  26
HETATM   26  C   UNK     0      25.864  28.263  33.159  0.00  0.00     0.252 C 
HETATM   27  O   UNK     0      25.073  28.923  32.491  0.00  0.00    -0.268 OA
HETATM   28  N   UNK     0      27.229  28.505  33.240  0.00  0.00    -0.343 N 
HETATM   29  H   UNK     0      27.808  27.968  33.878  0.00  0.00     0.163 HD
BRANCH  28  30
HETATM   30  C   UNK     0      27.867  29.583  32.529  0.00  0.00     0.183 C 
BRANCH  30  31
HETATM   31  C   UNK     0      28.176  30.786  33.428  0.00  0.00     0.046 C 
BRANCH  31  32
HETATM   32  C   UNK     0      27.714  30.667  34.886  0.00  0.00     0.112 C 
BRANCH  32  33
HETATM   33  C   UNK     0      26.362  31.291  35.152  0.00  0.00     0.139 C 
HETATM   34  O   UNK     0      25.787  32.080  34.414  0.00  0.00    -0.650 OA
BRANCH  33  35
HETATM   35  O   UNK     0      25.856  30.900  36.350  0.00  0.00    -0.776 OA
HETATM   36  H   UNK     0      25.744  29.927  36.400  0.00  0.00     0.167 HD
ENDBRANCH  33  35
ENDBRANCH  32  33
ENDBRANCH  31  32
ENDBRANCH  30  31
BRANCH  30  37
HETATM   37  C   UNK     0      29.085  29.014  31.830  0.00  0.00     0.163 C 
HETATM   38  O   UNK     0      29.930  29.672  31.237  0.00  0.00    -0.648 OA
BRANCH  37  39
HETATM   39  O   UNK     0      29.165  27.664  31.967  0.00  0.00    -0.775 OA
HETATM   40  H   UNK     0      29.963  27.394  32.468  0.00  0.00     0.167 HD
ENDBRANCH  37  39
ENDBRANCH  30  37
ENDBRANCH  28  30
ENDBRANCH   2  26
TORSDOF 13
ENDMDL
MODEL 3
REMARK VINA RESULT:      -6.8     23.960     26.745
REMARK  13 active torsions:
REMARK  status: ('A' for Active; 'I' for Inactive)
REMARK    1  A    between atoms: O_1  and  C_23 
REMARK    2  A    between atoms: O_4  and  C_28 
REMARK    3  A    between atoms: N_6  and  C_16 
REMARK    4  A    between atoms: N_6  and  C_18 
REMARK    5  A    between atoms: N_7  and  C_14 
REMARK       I    between atoms: N_7  and  C_20 
REMARK    6  A    between atoms: N_12  and  C_32 
REMARK    7  A    between atoms: N_13  and  C_33 
REMARK    8  A    between atoms: C_14  and  C_15 
REMARK    9  A    between atoms: C_14  and  C_23 
REMARK   10  A    between atoms: C_15  and  C_17 
REMARK   11  A    between atoms: C_17  and  C_28 
REMARK   12  A    between atoms: C_18  and  C_26 
REMARK   13  A    between atoms: C_19  and  C_20 
ROOT
HETATM    1  C   UNK     0      21.594  20.179  42.955  0.00  0.00     0.030 A 
HETATM    2  C   UNK     0      21.645  17.859  44.503  0.00  0.00     0.032 A 
HETATM    3  C   UNK     0      20.444  19.398  43.079  0.00  0.00     0.030 A 
HETATM    4  C   UNK     0      22.768  19.799  43.605  0.00  0.00     0.030 A 
HETATM    5  C   UNK     0      20.469  18.238  43.853  0.00  0.00     0.019 A 
HETATM    6  C   UNK     0      22.793  18.639  44.379  0.00  0.00     0.019 A 
ENDROOT
BRANCH   1   7
HETATM    7  N   UNK     0      21.568  21.352  42.172  0.00  0.00    -0.379 N 
HETATM    8  C   UNK     0      20.377  22.176  42.125  0.00  0.00     0.150 C 
BRANCH   7   9
HETATM    9  C   UNK     0      22.736  21.756  41.415  0.00  0.00     0.183 C 
BRANCH   9  10
HETATM   10  C   UNK     0      22.397  21.895  39.957  0.00  0.00     0.070 A 
HETATM   11  N   UNK     0      21.754  20.879  39.362  0.00  0.00    -0.242 NA
HETATM   12  C   UNK     0      21.456  21.018  38.057  0.00  0.00     0.151 A 
HETATM   13  C   UNK     0      21.793  22.164  37.333  0.00  0.00     0.201 A 
HETATM   14  C   UNK     0      20.796  20.029  37.352  0.00  0.00     0.173 A 
HETATM   15  N   UNK     0      22.433  23.162  37.954  0.00  0.00    -0.237 NA
HETATM   16  N   UNK     0      21.485  22.279  36.035  0.00  0.00    -0.041 NA
HETATM   17  C   UNK     0      22.731  23.025  39.260  0.00  0.00     0.148 A 
HETATM   18  C   UNK     0      20.841  21.247  35.458  0.00  0.00     0.724 A 
HETATM   19  N   UNK     0      20.470  20.106  36.049  0.00  0.00    -0.043 NA
BRANCH  18  20
HETATM   20  N   UNK     0      20.525  21.385  34.089  0.00  0.00    -0.231 N 
HETATM   21  H   UNK     0      20.844  20.687  33.433  0.00  0.00     0.174 HD
HETATM   22  H   UNK     0      19.984  22.181  33.781  0.00  0.00     0.174 HD
ENDBRANCH  18  20
BRANCH  14  23
HETATM   23  N   UNK     0      20.435  18.846  38.048  0.00  0.00    -0.381 N 
HETATM   24  H   UNK     0      19.562  18.861  38.560  0.00  0.00     0.157 HD
HETATM   25  H   UNK     0      20.771  17.960  37.693  0.00  0.00     0.157 HD
ENDBRANCH  14  23
ENDBRANCH   9  10
ENDBRANCH   7   9
ENDBRANCH   1   7
BRANCH   2  26
HETATM   26  C   UNK     0      21.672  16.623  45.328  0.00  0.00     0.252 C 
HETATM   27  O   UNK     0      21.715  16.719  46.551  0.00  0.00    -0.268 OA
HETATM   28  N   UNK     0      21.621  15.424  44.628  0.00  0.00    -0.343 N 
HETATM   29  H   UNK     0      21.504  15.424  43.621  0.00  0.00     0.163 HD
BRANCH  28  30
HETATM   30  C   UNK     0      21.615  14.143  45.287  0.00  0.00     0.183 C 
BRANCH  30  31
HETATM   31  C   UNK     0      20.265  13.424  45.172  0.00  0.00     0.046 C 
BRANCH  31  32
HETATM   32  C   UNK     0      19.270  14.025  44.172  0.00  0.00     0.112 C 
BRANCH  32  33
HETATM   33  C   UNK     0      18.758  13.035  43.149  0.00  0.00     0.139 C 
HETATM   34  O   UNK     0      17.595  12.924  42.789  0.00  0.00    -0.650 OA
BRANCH  33  35
HETATM   35  O   UNK     0      19.752  12.233  42.687  0.00  0.00    -0.776 OA
HETATM   36  H   UNK     0      20.341  11.927  43.410  0.00  0.00     0.167 HD
ENDBRANCH  33  35
ENDBRANCH  32  33
ENDBRANCH  31  32
ENDBRANCH  30  31
BRANCH  30  37
HETATM   37  C   UNK     0      22.781  13.343  44.746  0.00  0.00     0.163 C 
HETATM   38  O   UNK     0      23.936  13.422  45.144  0.00  0.00    -0.648 OA
BRANCH  37  39
HETATM   39  O   UNK     0      22.396  12.478  43.771  0.00  0.00    -0.775 OA
HETATM   40  H   UNK     0      22.786  12.708  42.902  0.00  0.00     0.167 HD
ENDBRANCH  37  39
ENDBRANCH  30  37
ENDBRANCH  28  30
ENDBRANCH   2  26
TORSDOF 13
ENDMDL
