MODEL 1
REMARK VINA RESULT:      -8.6      0.000      0.000
REMARK  13 active torsions:
REMARK  status: ('A' for Active; 'I' for Inactive)
REMARK    1  A    between atoms: O_1  and  C_23 
REMARK    2  A    between atoms: O_4  and  C_28 
REMARK    3  A    between atoms: N_6  and  C_16 
REMARK    4  A    between atoms: N_6  and  C_18 
REMARK    5  A    between atoms: N_7  and  C_14 
REMARK       I    between atoms: N_7  and  C_20 
REMARK    6  A    between atoms: N_12  and  C_32 
REMARK    7  A    between atoms: N_13  and  C_33 
REMARK    8  A    between atoms: C_14  and  C_15 
REMARK    9  A    between atoms: C_14  and  C_23 
REMARK   10  A    between atoms: C_15  and  C_17 
REMARK   11  A    between atoms: C_17  and  C_28 
REMARK   12  A    between atoms: C_18  and  C_26 
REMARK   13  A    between atoms: C_19  and  C_20 
ROOT
HETATM    1  C   UNK     0     -21.492  10.396  15.858  0.00  0.00     0.030 A 
HETATM    2  C   UNK     0     -21.834   7.744  16.652  0.00  0.00     0.032 A 
HETATM    3  C   UNK     0     -20.450   9.718  16.494  0.00  0.00     0.030 A 
HETATM    4  C   UNK     0     -22.703   9.747  15.619  0.00  0.00     0.030 A 
HETATM    5  C   UNK     0     -20.622   8.392  16.891  0.00  0.00     0.019 A 
HETATM    6  C   UNK     0     -22.874   8.421  16.016  0.00  0.00     0.019 A 
ENDROOT
BRANCH   1   7
HETATM    7  N   UNK     0     -21.318  11.737  15.457  0.00  0.00    -0.379 N 
HETATM    8  C   UNK     0     -20.398  12.070  14.388  0.00  0.00     0.150 C 
BRANCH   7   9
HETATM    9  C   UNK     0     -22.069  12.798  16.099  0.00  0.00     0.183 C 
BRANCH   9  10
HETATM   10  C   UNK     0     -22.360  13.903  15.121  0.00  0.00     0.070 A 
HETATM   11  N   UNK     0     -23.138  13.617  14.066  0.00  0.00    -0.242 NA
HETATM   12  C   UNK     0     -23.390  14.616  13.199  0.00  0.00     0.151 A 
HETATM   13  C   UNK     0     -22.874  15.903  13.372  0.00  0.00     0.201 A 
HETATM   14  C   UNK     0     -24.179  14.426  12.080  0.00  0.00     0.173 A 
HETATM   15  N   UNK     0     -22.102  16.157  14.435  0.00  0.00    -0.237 NA
HETATM   16  N   UNK     0     -23.140  16.879  12.495  0.00  0.00    -0.041 NA
HETATM   17  C   UNK     0     -21.849  15.159  15.304  0.00  0.00     0.148 A 
HETATM   18  C   UNK     0     -23.922  16.571  11.444  0.00  0.00     0.724 A 
HETATM   19  N   UNK     0     -24.469  15.380  11.177  0.00  0.00    -0.043 NA
BRANCH  18  20
HETATM   20  N   UNK     0     -24.191  17.613  10.530  0.00  0.00    -0.231 N 
HETATM   21  H   UNK     0     -24.261  18.563  10.865  0.00  0.00     0.174 HD
HETATM   22  H   UNK     0     -24.313  17.395   9.551  0.00  0.00     0.174 HD
ENDBRANCH  18  20
BRANCH  14  23
HETATM   23  N   UNK     0     -24.724  13.133  11.864  0.00  0.00    -0.381 N 
HETATM   24  H   UNK     0     -24.760  12.804  10.907  0.00  0.00     0.157 HD
HETATM   25  H   UNK     0     -24.649  12.451  12.607  0.00  0.00     0.157 HD
ENDBRANCH  14  23
ENDBRANCH   9  10
ENDBRANCH   7   9
ENDBRANCH   1   7
BRANCH   2  26
HETATM   26  C   UNK     0     -22.016   6.331  17.075  0.00  0.00     0.252 C 
HETATM   27  O   UNK     0     -21.063   5.720  17.551  0.00  0.00    -0.268 OA
HETATM   28  N   UNK     0     -23.292   5.807  16.914  0.00  0.00    -0.343 N 
HETATM   29  H   UNK     0     -24.050   6.398  16.589  0.00  0.00     0.163 HD
BRANCH  28  30
HETATM   30  C   UNK     0     -23.631   4.462  17.300  0.00  0.00     0.183 C 
BRANCH  30  31
HETATM   31  C   UNK     0     -24.948   4.383  18.083  0.00  0.00     0.046 C 
BRANCH  31  32
HETATM   32  C   UNK     0     -25.890   5.583  17.928  0.00  0.00     0.112 C 
BRANCH  32  33
HETATM   33  C   UNK     0     -27.344   5.200  17.761  0.00  0.00     0.139 C 
HETATM   34  O   UNK     0     -27.755   4.088  17.461  0.00  0.00    -0.650 OA
BRANCH  33  35
HETATM   35  O   UNK     0     -28.167   6.264  17.948  0.00  0.00    -0.776 OA
HETATM   36  H   UNK     0     -28.556   6.579  17.104  0.00  0.00     0.167 HD
ENDBRANCH  33  35
ENDBRANCH  32  33
ENDBRANCH  31  32
ENDBRANCH  30  31
BRANCH  30  37
HETATM   37  C   UNK     0     -23.613   3.607  16.049  0.00  0.00     0.163 C 
HETATM   38  O   UNK     0     -22.604   3.219  15.474  0.00  0.00    -0.648 OA
BRANCH  37  39
HETATM   39  O   UNK     0     -24.866   3.277  15.641  0.00  0.00    -0.775 OA
HETATM   40  H   UNK     0     -25.553   3.779  16.127  0.00  0.00     0.167 HD
ENDBRANCH  37  39
ENDBRANCH  30  37
ENDBRANCH  28  30
ENDBRANCH   2  26
TORSDOF 13
ENDMDL
MODEL 2
REMARK VINA RESULT:      -8.3      1.085      1.869
REMARK  13 active torsions:
REMARK  status: ('A' for Active; 'I' for Inactive)
REMARK    1  A    between atoms: O_1  and  C_23 
REMARK    2  A    between atoms: O_4  and  C_28 
REMARK    3  A    between atoms: N_6  and  C_16 
REMARK    4  A    between atoms: N_6  and  C_18 
REMARK    5  A    between atoms: N_7  and  C_14 
REMARK       I    between atoms: N_7  and  C_20 
REMARK    6  A    between atoms: N_12  and  C_32 
REMARK    7  A    between atoms: N_13  and  C_33 
REMARK    8  A    between atoms: C_14  and  C_15 
REMARK    9  A    between atoms: C_14  and  C_23 
REMARK   10  A    between atoms: C_15  and  C_17 
REMARK   11  A    between atoms: C_17  and  C_28 
REMARK   12  A    between atoms: C_18  and  C_26 
REMARK   13  A    between atoms: C_19  and  C_20 
ROOT
HETATM    1  C   UNK     0     -21.495   9.603  16.191  0.00  0.00     0.030 A 
HETATM    2  C   UNK     0     -21.975   6.931  16.834  0.00  0.00     0.032 A 
HETATM    3  C   UNK     0     -20.479   8.826  16.750  0.00  0.00     0.030 A 
HETATM    4  C   UNK     0     -22.750   9.043  15.954  0.00  0.00     0.030 A 
HETATM    5  C   UNK     0     -20.719   7.490  17.071  0.00  0.00     0.019 A 
HETATM    6  C   UNK     0     -22.990   7.707  16.275  0.00  0.00     0.019 A 
ENDROOT
BRANCH   1   7
HETATM    7  N   UNK     0     -21.252  10.954  15.867  0.00  0.00    -0.379 N 
HETATM    8  C   UNK     0     -20.086  11.323  15.089  0.00  0.00     0.150 C 
BRANCH   7   9
HETATM    9  C   UNK     0     -22.172  11.989  16.294  0.00  0.00     0.183 C 
BRANCH   9  10
HETATM   10  C   UNK     0     -22.757  12.697  15.103  0.00  0.00     0.070 A 
HETATM   11  N   UNK     0     -22.425  13.983  14.913  0.00  0.00    -0.242 NA
HETATM   12  C   UNK     0     -22.956  14.604  13.843  0.00  0.00     0.151 A 
HETATM   13  C   UNK     0     -23.819  13.956  12.956  0.00  0.00     0.201 A 
HETATM   14  C   UNK     0     -22.678  15.927  13.558  0.00  0.00     0.173 A 
HETATM   15  N   UNK     0     -24.130  12.672  13.171  0.00  0.00    -0.237 NA
HETATM   16  N   UNK     0     -24.333  14.596  11.898  0.00  0.00    -0.041 NA
HETATM   17  C   UNK     0     -23.600  12.049  14.241  0.00  0.00     0.148 A 
HETATM   18  C   UNK     0     -23.988  15.885  11.726  0.00  0.00     0.724 A 
HETATM   19  N   UNK     0     -23.175  16.605  12.508  0.00  0.00    -0.043 NA
BRANCH  18  20
HETATM   20  N   UNK     0     -24.540  16.544  10.607  0.00  0.00    -0.231 N 
HETATM   21  H   UNK     0     -25.278  16.097  10.081  0.00  0.00     0.174 HD
HETATM   22  H   UNK     0     -24.190  17.454  10.343  0.00  0.00     0.174 HD
ENDBRANCH  18  20
BRANCH  14  23
HETATM   23  N   UNK     0     -21.807  16.627  14.434  0.00  0.00    -0.381 N 
HETATM   24  H   UNK     0     -21.046  16.100  14.844  0.00  0.00     0.157 HD
HETATM   25  H   UNK     0     -21.686  17.622  14.296  0.00  0.00     0.157 HD
ENDBRANCH  14  23
ENDBRANCH   9  10
ENDBRANCH   7   9
ENDBRANCH   1   7
BRANCH   2  26
HETATM   26  C   UNK     0     -22.230   5.508  17.176  0.00  0.00     0.252 C 
HETATM   27  O   UNK     0     -21.522   4.957  18.015  0.00  0.00    -0.268 OA
HETATM   28  N   UNK     0     -23.295   4.906  16.519  0.00  0.00    -0.343 N 
HETATM   29  H   UNK     0     -23.886   5.449  15.899  0.00  0.00     0.163 HD
BRANCH  28  30
HETATM   30  C   UNK     0     -23.682   3.540  16.762  0.00  0.00     0.183 C 
BRANCH  30  31
HETATM   31  C   UNK     0     -25.199   3.329  16.677  0.00  0.00     0.046 C 
BRANCH  31  32
HETATM   32  C   UNK     0     -26.060   4.582  16.878  0.00  0.00     0.112 C 
BRANCH  32  33
HETATM   33  C   UNK     0     -27.355   4.321  17.615  0.00  0.00     0.139 C 
HETATM   34  O   UNK     0     -27.837   3.219  17.836  0.00  0.00    -0.650 OA
BRANCH  33  35
HETATM   35  O   UNK     0     -27.964   5.479  17.983  0.00  0.00    -0.776 OA
HETATM   36  H   UNK     0     -28.108   6.076  17.218  0.00  0.00     0.167 HD
ENDBRANCH  33  35
ENDBRANCH  32  33
ENDBRANCH  31  32
ENDBRANCH  30  31
BRANCH  30  37
HETATM   37  C   UNK     0     -22.889   2.663  15.814  0.00  0.00     0.163 C 
HETATM   38  O   UNK     0     -22.074   3.066  14.994  0.00  0.00    -0.648 OA
BRANCH  37  39
HETATM   39  O   UNK     0     -23.156   1.343  15.999  0.00  0.00    -0.775 OA
HETATM   40  H   UNK     0     -22.337   0.812  16.081  0.00  0.00     0.167 HD
ENDBRANCH  37  39
ENDBRANCH  30  37
ENDBRANCH  28  30
ENDBRANCH   2  26
TORSDOF 13
ENDMDL
MODEL 3
REMARK VINA RESULT:      -7.9      1.268      2.741
REMARK  13 active torsions:
REMARK  status: ('A' for Active; 'I' for Inactive)
REMARK    1  A    between atoms: O_1  and  C_23 
REMARK    2  A    between atoms: O_4  and  C_28 
REMARK    3  A    between atoms: N_6  and  C_16 
REMARK    4  A    between atoms: N_6  and  C_18 
REMARK    5  A    between atoms: N_7  and  C_14 
REMARK       I    between atoms: N_7  and  C_20 
REMARK    6  A    between atoms: N_12  and  C_32 
REMARK    7  A    between atoms: N_13  and  C_33 
REMARK    8  A    between atoms: C_14  and  C_15 
REMARK    9  A    between atoms: C_14  and  C_23 
REMARK   10  A    between atoms: C_15  and  C_17 
REMARK   11  A    between atoms: C_17  and  C_28 
REMARK   12  A    between atoms: C_18  and  C_26 
REMARK   13  A    between atoms: C_19  and  C_20 
ROOT
HETATM    1  C   UNK     0     -22.403  10.580  15.806  0.00  0.00     0.030 A 
HETATM    2  C   UNK     0     -23.833   8.198  15.548  0.00  0.00     0.032 A 
HETATM    3  C   UNK     0     -21.895   9.399  16.350  0.00  0.00     0.030 A 
HETATM    4  C   UNK     0     -23.625  10.568  15.133  0.00  0.00     0.030 A 
HETATM    5  C   UNK     0     -22.610   8.208  16.221  0.00  0.00     0.019 A 
HETATM    6  C   UNK     0     -24.340   9.378  15.005  0.00  0.00     0.019 A 
ENDROOT
BRANCH   1   7
HETATM    7  N   UNK     0     -21.680  11.784  15.937  0.00  0.00    -0.379 N 
HETATM    8  C   UNK     0     -20.322  11.881  15.442  0.00  0.00     0.150 C 
BRANCH   7   9
HETATM    9  C   UNK     0     -22.292  12.944  16.554  0.00  0.00     0.183 C 
BRANCH   9  10
HETATM   10  C   UNK     0     -22.503  14.031  15.537  0.00  0.00     0.070 A 
HETATM   11  N   UNK     0     -23.186  13.724  14.423  0.00  0.00    -0.242 NA
HETATM   12  C   UNK     0     -23.368  14.708  13.522  0.00  0.00     0.151 A 
HETATM   13  C   UNK     0     -22.875  16.000  13.718  0.00  0.00     0.201 A 
HETATM   14  C   UNK     0     -24.057  14.494  12.343  0.00  0.00     0.173 A 
HETATM   15  N   UNK     0     -22.199  16.276  14.839  0.00  0.00    -0.237 NA
HETATM   16  N   UNK     0     -23.070  16.960  12.806  0.00  0.00    -0.041 NA
HETATM   17  C   UNK     0     -22.016  15.293  15.742  0.00  0.00     0.148 A 
HETATM   18  C   UNK     0     -23.757  16.631  11.696  0.00  0.00     0.724 A 
HETATM   19  N   UNK     0     -24.273  15.432  11.403  0.00  0.00    -0.043 NA
BRANCH  18  20
HETATM   20  N   UNK     0     -23.952  17.656  10.746  0.00  0.00    -0.231 N 
HETATM   21  H   UNK     0     -23.267  17.795  10.017  0.00  0.00     0.174 HD
HETATM   22  H   UNK     0     -24.775  18.240  10.806  0.00  0.00     0.174 HD
ENDBRANCH  18  20
BRANCH  14  23
HETATM   23  N   UNK     0     -24.575  13.195  12.102  0.00  0.00    -0.381 N 
HETATM   24  H   UNK     0     -24.554  12.862  11.146  0.00  0.00     0.157 HD
HETATM   25  H   UNK     0     -24.535  12.516  12.851  0.00  0.00     0.157 HD
ENDBRANCH  14  23
ENDBRANCH   9  10
ENDBRANCH   7   9
ENDBRANCH   1   7
BRANCH   2  26
HETATM   26  C   UNK     0     -24.594   6.929  15.412  0.00  0.00     0.252 C 
HETATM   27  O   UNK     0     -25.055   6.622  14.316  0.00  0.00    -0.268 OA
HETATM   28  N   UNK     0     -24.706   6.160  16.562  0.00  0.00    -0.343 N 
HETATM   29  H   UNK     0     -24.229   6.439  17.413  0.00  0.00     0.163 HD
BRANCH  28  30
HETATM   30  C   UNK     0     -25.393   4.894  16.583  0.00  0.00     0.183 C 
BRANCH  30  31
HETATM   31  C   UNK     0     -24.433   3.701  16.681  0.00  0.00     0.046 C 
BRANCH  31  32
HETATM   32  C   UNK     0     -22.956   4.006  16.403  0.00  0.00     0.112 C 
BRANCH  32  33
HETATM   33  C   UNK     0     -22.100   4.071  17.648  0.00  0.00     0.139 C 
HETATM   34  O   UNK     0     -21.806   3.120  18.358  0.00  0.00    -0.650 OA
BRANCH  33  35
HETATM   35  O   UNK     0     -21.714   5.344  17.924  0.00  0.00    -0.776 OA
HETATM   36  H   UNK     0     -22.341   6.004  17.559  0.00  0.00     0.167 HD
ENDBRANCH  33  35
ENDBRANCH  32  33
ENDBRANCH  31  32
ENDBRANCH  30  31
BRANCH  30  37
HETATM   37  C   UNK     0     -26.418   4.946  17.697  0.00  0.00     0.163 C 
HETATM   38  O   UNK     0     -27.200   4.048  17.980  0.00  0.00    -0.648 OA
BRANCH  37  39
HETATM   39  O   UNK     0     -26.352   6.112  18.393  0.00  0.00    -0.775 OA
HETATM   40  H   UNK     0     -26.394   5.963  19.361  0.00  0.00     0.167 HD
ENDBRANCH  37  39
ENDBRANCH  30  37
ENDBRANCH  28  30
ENDBRANCH   2  26
TORSDOF 13
ENDMDL
