MODEL 1
REMARK VINA RESULT:      -6.9      0.000      0.000
REMARK  13 active torsions:
REMARK  status: ('A' for Active; 'I' for Inactive)
REMARK    1  A    between atoms: O_1  and  C_23 
REMARK    2  A    between atoms: O_4  and  C_28 
REMARK    3  A    between atoms: N_6  and  C_16 
REMARK    4  A    between atoms: N_6  and  C_18 
REMARK    5  A    between atoms: N_7  and  C_14 
REMARK       I    between atoms: N_7  and  C_20 
REMARK    6  A    between atoms: N_12  and  C_32 
REMARK    7  A    between atoms: N_13  and  C_33 
REMARK    8  A    between atoms: C_14  and  C_15 
REMARK    9  A    between atoms: C_14  and  C_23 
REMARK   10  A    between atoms: C_15  and  C_17 
REMARK   11  A    between atoms: C_17  and  C_28 
REMARK   12  A    between atoms: C_18  and  C_26 
REMARK   13  A    between atoms: C_19  and  C_20 
ROOT
HETATM    1  C   UNK     0      -9.867  29.718  54.509  0.00  0.00     0.030 A 
HETATM    2  C   UNK     0     -12.368  30.697  53.756  0.00  0.00     0.032 A 
HETATM    3  C   UNK     0     -11.022  29.225  55.118  0.00  0.00     0.030 A 
HETATM    4  C   UNK     0      -9.964  30.700  53.523  0.00  0.00     0.030 A 
HETATM    5  C   UNK     0     -12.273  29.714  54.742  0.00  0.00     0.019 A 
HETATM    6  C   UNK     0     -11.215  31.189  53.147  0.00  0.00     0.019 A 
ENDROOT
BRANCH   1   7
HETATM    7  N   UNK     0      -8.603  29.223  54.890  0.00  0.00    -0.379 N 
HETATM    8  C   UNK     0      -7.725  30.019  55.724  0.00  0.00     0.150 C 
BRANCH   7   9
HETATM    9  C   UNK     0      -8.171  27.906  54.466  0.00  0.00     0.183 C 
BRANCH   9  10
HETATM   10  C   UNK     0      -7.142  28.015  53.375  0.00  0.00     0.070 A 
HETATM   11  N   UNK     0      -7.570  28.299  52.136  0.00  0.00    -0.242 NA
HETATM   12  C   UNK     0      -6.637  28.394  51.170  0.00  0.00     0.151 A 
HETATM   13  C   UNK     0      -5.277  28.208  51.425  0.00  0.00     0.201 A 
HETATM   14  C   UNK     0      -6.974  28.683  49.861  0.00  0.00     0.173 A 
HETATM   15  N   UNK     0      -4.880  27.927  52.672  0.00  0.00    -0.237 NA
HETATM   16  N   UNK     0      -4.369  28.309  50.446  0.00  0.00    -0.041 NA
HETATM   17  C   UNK     0      -5.812  27.831  53.640  0.00  0.00     0.148 A 
HETATM   18  C   UNK     0      -4.819  28.594  49.210  0.00  0.00     0.724 A 
HETATM   19  N   UNK     0      -6.093  28.791  48.850  0.00  0.00    -0.043 NA
BRANCH  18  20
HETATM   20  N   UNK     0      -3.848  28.695  48.191  0.00  0.00    -0.231 N 
HETATM   21  H   UNK     0      -2.964  29.142  48.389  0.00  0.00     0.174 HD
HETATM   22  H   UNK     0      -4.049  28.320  47.274  0.00  0.00     0.174 HD
ENDBRANCH  18  20
BRANCH  14  23
HETATM   23  N   UNK     0      -8.346  28.878  49.555  0.00  0.00    -0.381 N 
HETATM   24  H   UNK     0      -9.021  28.517  50.217  0.00  0.00     0.157 HD
HETATM   25  H   UNK     0      -8.603  29.679  48.992  0.00  0.00     0.157 HD
ENDBRANCH  14  23
ENDBRANCH   9  10
ENDBRANCH   7   9
ENDBRANCH   1   7
BRANCH   2  26
HETATM   26  C   UNK     0     -13.701  31.219  53.355  0.00  0.00     0.252 C 
HETATM   27  O   UNK     0     -14.504  30.461  52.817  0.00  0.00    -0.268 OA
HETATM   28  N   UNK     0     -13.946  32.553  53.651  0.00  0.00    -0.343 N 
HETATM   29  H   UNK     0     -13.265  33.095  54.172  0.00  0.00     0.163 HD
BRANCH  28  30
HETATM   30  C   UNK     0     -15.199  33.196  53.348  0.00  0.00     0.183 C 
BRANCH  30  31
HETATM   31  C   UNK     0     -15.553  34.306  54.345  0.00  0.00     0.046 C 
BRANCH  31  32
HETATM   32  C   UNK     0     -14.482  34.627  55.396  0.00  0.00     0.112 C 
BRANCH  32  33
HETATM   33  C   UNK     0     -13.803  35.963  55.188  0.00  0.00     0.139 C 
HETATM   34  O   UNK     0     -13.414  36.707  56.077  0.00  0.00    -0.650 OA
BRANCH  33  35
HETATM   35  O   UNK     0     -13.705  36.275  53.870  0.00  0.00    -0.776 OA
HETATM   36  H   UNK     0     -14.459  35.920  53.352  0.00  0.00     0.167 HD
ENDBRANCH  33  35
ENDBRANCH  32  33
ENDBRANCH  31  32
ENDBRANCH  30  31
BRANCH  30  37
HETATM   37  C   UNK     0     -15.137  33.664  51.908  0.00  0.00     0.163 C 
HETATM   38  O   UNK     0     -15.840  33.244  50.998  0.00  0.00    -0.648 OA
BRANCH  37  39
HETATM   39  O   UNK     0     -14.220  34.653  51.735  0.00  0.00    -0.775 OA
HETATM   40  H   UNK     0     -14.066  35.158  52.561  0.00  0.00     0.167 HD
ENDBRANCH  37  39
ENDBRANCH  30  37
ENDBRANCH  28  30
ENDBRANCH   2  26
TORSDOF 13
ENDMDL
MODEL 2
REMARK VINA RESULT:      -6.8      1.783      2.584
REMARK  13 active torsions:
REMARK  status: ('A' for Active; 'I' for Inactive)
REMARK    1  A    between atoms: O_1  and  C_23 
REMARK    2  A    between atoms: O_4  and  C_28 
REMARK    3  A    between atoms: N_6  and  C_16 
REMARK    4  A    between atoms: N_6  and  C_18 
REMARK    5  A    between atoms: N_7  and  C_14 
REMARK       I    between atoms: N_7  and  C_20 
REMARK    6  A    between atoms: N_12  and  C_32 
REMARK    7  A    between atoms: N_13  and  C_33 
REMARK    8  A    between atoms: C_14  and  C_15 
REMARK    9  A    between atoms: C_14  and  C_23 
REMARK   10  A    between atoms: C_15  and  C_17 
REMARK   11  A    between atoms: C_17  and  C_28 
REMARK   12  A    between atoms: C_18  and  C_26 
REMARK   13  A    between atoms: C_19  and  C_20 
ROOT
HETATM    1  C   UNK     0     -10.968  30.170  53.790  0.00  0.00     0.030 A 
HETATM    2  C   UNK     0     -13.632  30.985  53.654  0.00  0.00     0.032 A 
HETATM    3  C   UNK     0     -11.917  29.600  54.640  0.00  0.00     0.030 A 
HETATM    4  C   UNK     0     -11.353  31.147  52.872  0.00  0.00     0.030 A 
HETATM    5  C   UNK     0     -13.249  30.007  54.572  0.00  0.00     0.019 A 
HETATM    6  C   UNK     0     -12.685  31.555  52.804  0.00  0.00     0.019 A 
ENDROOT
BRANCH   1   7
HETATM    7  N   UNK     0      -9.621  29.758  53.860  0.00  0.00    -0.379 N 
HETATM    8  C   UNK     0      -8.614  30.636  54.420  0.00  0.00     0.150 C 
BRANCH   7   9
HETATM    9  C   UNK     0      -9.229  28.445  53.387  0.00  0.00     0.183 C 
BRANCH   9  10
HETATM   10  C   UNK     0      -8.344  28.564  52.177  0.00  0.00     0.070 A 
HETATM   11  N   UNK     0      -7.056  28.209  52.305  0.00  0.00    -0.242 NA
HETATM   12  C   UNK     0      -6.276  28.320  51.214  0.00  0.00     0.151 A 
HETATM   13  C   UNK     0      -6.765  28.783  49.990  0.00  0.00     0.201 A 
HETATM   14  C   UNK     0      -4.936  27.980  51.241  0.00  0.00     0.173 A 
HETATM   15  N   UNK     0      -8.055  29.129  49.893  0.00  0.00    -0.237 NA
HETATM   16  N   UNK     0      -5.968  28.884  48.919  0.00  0.00    -0.041 NA
HETATM   17  C   UNK     0      -8.837  29.018  50.984  0.00  0.00     0.148 A 
HETATM   18  C   UNK     0      -4.680  28.523  49.069  0.00  0.00     0.724 A 
HETATM   19  N   UNK     0      -4.104  28.069  50.188  0.00  0.00    -0.043 NA
BRANCH  18  20
HETATM   20  N   UNK     0      -3.854  28.637  47.930  0.00  0.00    -0.231 N 
HETATM   21  H   UNK     0      -4.181  29.161  47.130  0.00  0.00     0.174 HD
HETATM   22  H   UNK     0      -2.947  28.192  47.928  0.00  0.00     0.174 HD
ENDBRANCH  18  20
BRANCH  14  23
HETATM   23  N   UNK     0      -4.396  27.506  52.464  0.00  0.00    -0.381 N 
HETATM   24  H   UNK     0      -4.983  26.899  53.022  0.00  0.00     0.157 HD
HETATM   25  H   UNK     0      -3.391  27.407  52.538  0.00  0.00     0.157 HD
ENDBRANCH  14  23
ENDBRANCH   9  10
ENDBRANCH   7   9
ENDBRANCH   1   7
BRANCH   2  26
HETATM   26  C   UNK     0     -15.052  31.420  53.581  0.00  0.00     0.252 C 
HETATM   27  O   UNK     0     -15.927  30.686  54.033  0.00  0.00    -0.268 OA
HETATM   28  N   UNK     0     -15.278  32.666  53.013  0.00  0.00    -0.343 N 
HETATM   29  H   UNK     0     -14.498  33.252  52.736  0.00  0.00     0.163 HD
BRANCH  28  30
HETATM   30  C   UNK     0     -16.597  33.235  52.895  0.00  0.00     0.183 C 
BRANCH  30  31
HETATM   31  C   UNK     0     -16.610  34.752  53.120  0.00  0.00     0.046 C 
BRANCH  31  32
HETATM   32  C   UNK     0     -15.331  35.498  52.720  0.00  0.00     0.112 C 
BRANCH  32  33
HETATM   33  C   UNK     0     -15.423  36.196  51.381  0.00  0.00     0.139 C 
HETATM   34  O   UNK     0     -15.934  37.289  51.183  0.00  0.00    -0.650 OA
BRANCH  33  35
HETATM   35  O   UNK     0     -14.896  35.438  50.385  0.00  0.00    -0.776 OA
HETATM   36  H   UNK     0     -14.675  35.974  49.594  0.00  0.00     0.167 HD
ENDBRANCH  33  35
ENDBRANCH  32  33
ENDBRANCH  31  32
ENDBRANCH  30  31
BRANCH  30  37
HETATM   37  C   UNK     0     -17.160  32.811  51.554  0.00  0.00     0.163 C 
HETATM   38  O   UNK     0     -16.776  33.220  50.466  0.00  0.00    -0.648 OA
BRANCH  37  39
HETATM   39  O   UNK     0     -18.138  31.876  51.687  0.00  0.00    -0.775 OA
HETATM   40  H   UNK     0     -18.338  31.434  50.836  0.00  0.00     0.167 HD
ENDBRANCH  37  39
ENDBRANCH  30  37
ENDBRANCH  28  30
ENDBRANCH   2  26
TORSDOF 13
ENDMDL
MODEL 3
REMARK VINA RESULT:      -6.6      7.018     12.096
REMARK  13 active torsions:
REMARK  status: ('A' for Active; 'I' for Inactive)
REMARK    1  A    between atoms: O_1  and  C_23 
REMARK    2  A    between atoms: O_4  and  C_28 
REMARK    3  A    between atoms: N_6  and  C_16 
REMARK    4  A    between atoms: N_6  and  C_18 
REMARK    5  A    between atoms: N_7  and  C_14 
REMARK       I    between atoms: N_7  and  C_20 
REMARK    6  A    between atoms: N_12  and  C_32 
REMARK    7  A    between atoms: N_13  and  C_33 
REMARK    8  A    between atoms: C_14  and  C_15 
REMARK    9  A    between atoms: C_14  and  C_23 
REMARK   10  A    between atoms: C_15  and  C_17 
REMARK   11  A    between atoms: C_17  and  C_28 
REMARK   12  A    between atoms: C_18  and  C_26 
REMARK   13  A    between atoms: C_19  and  C_20 
ROOT
HETATM    1  C   UNK     0      -5.062  28.233  49.815  0.00  0.00     0.030 A 
HETATM    2  C   UNK     0      -2.976  26.392  49.613  0.00  0.00     0.032 A 
HETATM    3  C   UNK     0      -5.058  27.293  48.783  0.00  0.00     0.030 A 
HETATM    4  C   UNK     0      -4.023  28.251  50.745  0.00  0.00     0.030 A 
HETATM    5  C   UNK     0      -4.015  26.372  48.682  0.00  0.00     0.019 A 
HETATM    6  C   UNK     0      -2.980  27.331  50.644  0.00  0.00     0.019 A 
ENDROOT
BRANCH   1   7
HETATM    7  N   UNK     0      -6.116  29.165  49.916  0.00  0.00    -0.379 N 
HETATM    8  C   UNK     0      -5.837  30.564  50.170  0.00  0.00     0.150 C 
BRANCH   7   9
HETATM    9  C   UNK     0      -7.491  28.737  49.751  0.00  0.00     0.183 C 
BRANCH   9  10
HETATM   10  C   UNK     0      -8.134  28.503  51.091  0.00  0.00     0.070 A 
HETATM   11  N   UNK     0      -8.968  29.443  51.559  0.00  0.00    -0.242 NA
HETATM   12  C   UNK     0      -9.536  29.219  52.759  0.00  0.00     0.151 A 
HETATM   13  C   UNK     0      -9.281  28.063  53.501  0.00  0.00     0.201 A 
HETATM   14  C   UNK     0     -10.410  30.125  53.330  0.00  0.00     0.173 A 
HETATM   15  N   UNK     0      -8.445  27.143  53.007  0.00  0.00    -0.237 NA
HETATM   16  N   UNK     0      -9.859  27.864  54.692  0.00  0.00    -0.041 NA
HETATM   17  C   UNK     0      -7.876  27.365  51.806  0.00  0.00     0.148 A 
HETATM   18  C   UNK     0     -10.692  28.820  55.144  0.00  0.00     0.724 A 
HETATM   19  N   UNK     0     -11.009  29.962  54.523  0.00  0.00    -0.043 NA
BRANCH  18  20
HETATM   20  N   UNK     0     -11.292  28.593  56.402  0.00  0.00    -0.231 N 
HETATM   21  H   UNK     0     -12.298  28.541  56.471  0.00  0.00     0.174 HD
HETATM   22  H   UNK     0     -10.707  28.487  57.219  0.00  0.00     0.174 HD
ENDBRANCH  18  20
BRANCH  14  23
HETATM   23  N   UNK     0     -10.697  31.315  52.611  0.00  0.00    -0.381 N 
HETATM   24  H   UNK     0     -10.567  31.289  51.608  0.00  0.00     0.157 HD
HETATM   25  H   UNK     0     -11.386  31.951  52.993  0.00  0.00     0.157 HD
ENDBRANCH  14  23
ENDBRANCH   9  10
ENDBRANCH   7   9
ENDBRANCH   1   7
BRANCH   2  26
HETATM   26  C   UNK     0      -1.865  25.411  49.506  0.00  0.00     0.252 C 
HETATM   27  O   UNK     0      -1.014  25.370  50.390  0.00  0.00    -0.268 OA
HETATM   28  N   UNK     0      -1.892  24.581  48.393  0.00  0.00    -0.343 N 
HETATM   29  H   UNK     0      -2.673  24.617  47.746  0.00  0.00     0.163 HD
BRANCH  28  30
HETATM   30  C   UNK     0      -0.899  23.563  48.162  0.00  0.00     0.183 C 
BRANCH  30  31
HETATM   31  C   UNK     0      -1.325  22.187  48.688  0.00  0.00     0.046 C 
BRANCH  31  32
HETATM   32  C   UNK     0      -2.823  22.013  48.968  0.00  0.00     0.112 C 
BRANCH  32  33
HETATM   33  C   UNK     0      -3.640  21.684  47.738  0.00  0.00     0.139 C 
HETATM   34  O   UNK     0      -3.713  20.584  47.208  0.00  0.00    -0.650 OA
BRANCH  33  35
HETATM   35  O   UNK     0      -4.272  22.782  47.248  0.00  0.00    -0.776 OA
HETATM   36  H   UNK     0      -5.137  22.557  46.843  0.00  0.00     0.167 HD
ENDBRANCH  33  35
ENDBRANCH  32  33
ENDBRANCH  31  32
ENDBRANCH  30  31
BRANCH  30  37
HETATM   37  C   UNK     0      -0.566  23.576  46.684  0.00  0.00     0.163 C 
HETATM   38  O   UNK     0      -0.645  22.611  45.934  0.00  0.00    -0.648 OA
BRANCH  37  39
HETATM   39  O   UNK     0      -0.195  24.811  46.257  0.00  0.00    -0.775 OA
HETATM   40  H   UNK     0       0.080  24.806  45.317  0.00  0.00     0.167 HD
ENDBRANCH  37  39
ENDBRANCH  30  37
ENDBRANCH  28  30
ENDBRANCH   2  26
TORSDOF 13
ENDMDL
