MODEL 1
REMARK VINA RESULT:      -5.0      0.000      0.000
REMARK  4 active torsions:
REMARK  status: ('A' for Active; 'I' for Inactive)
REMARK    1  A    between atoms: O_1  and  C_5 
REMARK    2  A    between atoms: O_1  and  C_12 
REMARK    3  A    between atoms: O_2  and  C_11 
REMARK    4  A    between atoms: C_6  and  C_11 
ROOT
HETATM    1  C   UNK     0      15.149  48.119  18.581  0.00  0.00     0.096 A 
HETATM    2  C   UNK     0      14.691  49.334  18.071  0.00  0.00     0.071 A 
HETATM    3  C   UNK     0      16.411  47.645  18.226  0.00  0.00     0.038 A 
HETATM    4  C   UNK     0      15.497  50.075  17.206  0.00  0.00     0.021 A 
HETATM    5  C   UNK     0      17.218  48.385  17.362  0.00  0.00     0.003 A 
HETATM    6  C   UNK     0      16.760  49.600  16.851  0.00  0.00     0.001 A 
ENDROOT
BRANCH   1   7
HETATM    7  O   UNK     0      14.378  47.382  19.429  0.00  0.00    -0.278 OA
BRANCH   7   8
HETATM    8  C   UNK     0      14.859  47.337  20.747  0.00  0.00     0.260 C 
HETATM    9  O   UNK     0      15.189  48.303  21.422  0.00  0.00    -0.265 OA
HETATM   10  C   UNK     0      14.916  45.917  21.224  0.00  0.00     0.126 C 
ENDBRANCH   7   8
ENDBRANCH   1   7
BRANCH   2  11
HETATM   11  C   UNK     0      13.377  49.848  18.431  0.00  0.00     0.178 C 
HETATM   12  O   UNK     0      12.400  49.924  17.693  0.00  0.00    -0.646 OA
BRANCH  11  13
HETATM   13  O   UNK     0      13.331  50.260  19.728  0.00  0.00    -0.773 OA
HETATM   14  H   UNK     0      13.035  51.192  19.805  0.00  0.00     0.167 HD
ENDBRANCH  11  13
ENDBRANCH   2  11
TORSDOF 4
ENDMDL
MODEL 2
REMARK VINA RESULT:      -4.9      1.816      2.929
REMARK  4 active torsions:
REMARK  status: ('A' for Active; 'I' for Inactive)
REMARK    1  A    between atoms: O_1  and  C_5 
REMARK    2  A    between atoms: O_1  and  C_12 
REMARK    3  A    between atoms: O_2  and  C_11 
REMARK    4  A    between atoms: C_6  and  C_11 
ROOT
HETATM    1  C   UNK     0      14.751  47.987  18.876  0.00  0.00     0.096 A 
HETATM    2  C   UNK     0      15.561  48.814  18.095  0.00  0.00     0.071 A 
HETATM    3  C   UNK     0      13.383  48.240  18.971  0.00  0.00     0.038 A 
HETATM    4  C   UNK     0      15.001  49.891  17.410  0.00  0.00     0.021 A 
HETATM    5  C   UNK     0      12.823  49.318  18.285  0.00  0.00     0.003 A 
HETATM    6  C   UNK     0      13.632  50.144  17.505  0.00  0.00     0.001 A 
ENDROOT
BRANCH   1   7
HETATM    7  O   UNK     0      15.279  46.928  19.552  0.00  0.00    -0.278 OA
BRANCH   7   8
HETATM    8  C   UNK     0      15.303  47.093  20.945  0.00  0.00     0.260 C 
HETATM    9  O   UNK     0      15.759  48.058  21.544  0.00  0.00    -0.265 OA
HETATM   10  C   UNK     0      14.686  45.902  21.614  0.00  0.00     0.126 C 
ENDBRANCH   7   8
ENDBRANCH   1   7
BRANCH   2  11
HETATM   11  C   UNK     0      16.991  48.566  17.981  0.00  0.00     0.178 C 
HETATM   12  O   UNK     0      17.581  48.157  16.986  0.00  0.00    -0.646 OA
BRANCH  11  13
HETATM   13  O   UNK     0      17.648  48.843  19.142  0.00  0.00    -0.773 OA
HETATM   14  H   UNK     0      17.172  48.490  19.924  0.00  0.00     0.167 HD
ENDBRANCH  11  13
ENDBRANCH   2  11
TORSDOF 4
ENDMDL
MODEL 3
REMARK VINA RESULT:      -4.9      2.313      3.688
REMARK  4 active torsions:
REMARK  status: ('A' for Active; 'I' for Inactive)
REMARK    1  A    between atoms: O_1  and  C_5 
REMARK    2  A    between atoms: O_1  and  C_12 
REMARK    3  A    between atoms: O_2  and  C_11 
REMARK    4  A    between atoms: C_6  and  C_11 
ROOT
HETATM    1  C   UNK     0      15.391  47.947  18.899  0.00  0.00     0.096 A 
HETATM    2  C   UNK     0      14.353  47.471  19.701  0.00  0.00     0.071 A 
HETATM    3  C   UNK     0      15.215  49.108  18.148  0.00  0.00     0.038 A 
HETATM    4  C   UNK     0      13.140  48.158  19.752  0.00  0.00     0.021 A 
HETATM    5  C   UNK     0      14.002  49.796  18.199  0.00  0.00     0.003 A 
HETATM    6  C   UNK     0      12.965  49.321  19.000  0.00  0.00     0.001 A 
ENDROOT
BRANCH   1   7
HETATM    7  O   UNK     0      16.584  47.291  18.837  0.00  0.00    -0.278 OA
BRANCH   7   8
HETATM    8  C   UNK     0      17.606  47.891  19.588  0.00  0.00     0.260 C 
HETATM    9  O   UNK     0      17.579  48.104  20.793  0.00  0.00    -0.265 OA
HETATM   10  C   UNK     0      18.757  48.246  18.695  0.00  0.00     0.126 C 
ENDBRANCH   7   8
ENDBRANCH   1   7
BRANCH   2  11
HETATM   11  C   UNK     0      14.516  46.260  20.494  0.00  0.00     0.178 C 
HETATM   12  O   UNK     0      14.142  45.133  20.185  0.00  0.00    -0.646 OA
BRANCH  11  13
HETATM   13  O   UNK     0      15.153  46.509  21.672  0.00  0.00    -0.773 OA
HETATM   14  H   UNK     0      14.785  45.972  22.406  0.00  0.00     0.167 HD
ENDBRANCH  11  13
ENDBRANCH   2  11
TORSDOF 4
ENDMDL
