MODEL 1
REMARK VINA RESULT:      -7.0      0.000      0.000
REMARK  4 active torsions:
REMARK  status: ('A' for Active; 'I' for Inactive)
REMARK    1  A    between atoms: O_1  and  C_5 
REMARK    2  A    between atoms: O_1  and  C_12 
REMARK    3  A    between atoms: O_2  and  C_11 
REMARK    4  A    between atoms: C_6  and  C_11 
ROOT
HETATM    1  C   UNK     0      21.462  29.827  16.638  0.00  0.00     0.096 A 
HETATM    2  C   UNK     0      20.389  29.212  15.992  0.00  0.00     0.071 A 
HETATM    3  C   UNK     0      21.844  31.119  16.279  0.00  0.00     0.038 A 
HETATM    4  C   UNK     0      19.698  29.891  14.988  0.00  0.00     0.021 A 
HETATM    5  C   UNK     0      21.154  31.798  15.275  0.00  0.00     0.003 A 
HETATM    6  C   UNK     0      20.081  31.184  14.629  0.00  0.00     0.001 A 
ENDROOT
BRANCH   1   7
HETATM    7  O   UNK     0      22.148  29.182  17.624  0.00  0.00    -0.278 OA
BRANCH   7   8
HETATM    8  C   UNK     0      23.543  29.294  17.517  0.00  0.00     0.260 C 
HETATM    9  O   UNK     0      24.169  29.485  16.483  0.00  0.00    -0.265 OA
HETATM   10  C   UNK     0      24.174  29.142  18.869  0.00  0.00     0.126 C 
ENDBRANCH   7   8
ENDBRANCH   1   7
BRANCH   2  11
HETATM   11  C   UNK     0      19.972  27.864  16.353  0.00  0.00     0.178 C 
HETATM   12  O   UNK     0      18.908  27.548  16.876  0.00  0.00    -0.646 OA
BRANCH  11  13
HETATM   13  O   UNK     0      20.923  26.940  16.043  0.00  0.00    -0.773 OA
HETATM   14  H   UNK     0      20.884  26.680  15.097  0.00  0.00     0.167 HD
ENDBRANCH  11  13
ENDBRANCH   2  11
TORSDOF 4
ENDMDL
MODEL 2
REMARK VINA RESULT:      -6.8      1.851      3.119
REMARK  4 active torsions:
REMARK  status: ('A' for Active; 'I' for Inactive)
REMARK    1  A    between atoms: O_1  and  C_5 
REMARK    2  A    between atoms: O_1  and  C_12 
REMARK    3  A    between atoms: O_2  and  C_11 
REMARK    4  A    between atoms: C_6  and  C_11 
ROOT
HETATM    1  C   UNK     0      21.593  29.849  16.595  0.00  0.00     0.096 A 
HETATM    2  C   UNK     0      20.873  30.700  15.756  0.00  0.00     0.071 A 
HETATM    3  C   UNK     0      21.326  28.481  16.596  0.00  0.00     0.038 A 
HETATM    4  C   UNK     0      19.887  30.180  14.917  0.00  0.00     0.021 A 
HETATM    5  C   UNK     0      20.340  27.961  15.758  0.00  0.00     0.003 A 
HETATM    6  C   UNK     0      19.620  28.811  14.918  0.00  0.00     0.001 A 
ENDROOT
BRANCH   1   7
HETATM    7  O   UNK     0      22.562  30.337  17.421  0.00  0.00    -0.278 OA
BRANCH   7   8
HETATM    8  C   UNK     0      23.720  29.546  17.473  0.00  0.00     0.260 C 
HETATM    9  O   UNK     0      24.471  29.311  16.535  0.00  0.00    -0.265 OA
HETATM   10  C   UNK     0      23.915  29.013  18.861  0.00  0.00     0.126 C 
ENDBRANCH   7   8
ENDBRANCH   1   7
BRANCH   2  11
HETATM   11  C   UNK     0      21.138  32.132  15.738  0.00  0.00     0.178 C 
HETATM   12  O   UNK     0      21.614  32.771  14.805  0.00  0.00    -0.646 OA
BRANCH  11  13
HETATM   13  O   UNK     0      20.791  32.726  16.913  0.00  0.00    -0.773 OA
HETATM   14  H   UNK     0      20.016  33.319  16.808  0.00  0.00     0.167 HD
ENDBRANCH  11  13
ENDBRANCH   2  11
TORSDOF 4
ENDMDL
MODEL 3
REMARK VINA RESULT:      -6.1      1.726      3.733
REMARK  4 active torsions:
REMARK  status: ('A' for Active; 'I' for Inactive)
REMARK    1  A    between atoms: O_1  and  C_5 
REMARK    2  A    between atoms: O_1  and  C_12 
REMARK    3  A    between atoms: O_2  and  C_11 
REMARK    4  A    between atoms: C_6  and  C_11 
ROOT
HETATM    1  C   UNK     0      21.206  29.124  16.571  0.00  0.00     0.096 A 
HETATM    2  C   UNK     0      20.865  28.209  17.569  0.00  0.00     0.071 A 
HETATM    3  C   UNK     0      22.370  29.882  16.689  0.00  0.00     0.038 A 
HETATM    4  C   UNK     0      21.690  28.054  18.683  0.00  0.00     0.021 A 
HETATM    5  C   UNK     0      23.195  29.727  17.803  0.00  0.00     0.003 A 
HETATM    6  C   UNK     0      22.855  28.813  18.800  0.00  0.00     0.001 A 
ENDROOT
BRANCH   1   7
HETATM    7  O   UNK     0      20.415  29.289  15.474  0.00  0.00    -0.278 OA
BRANCH   7   8
HETATM    8  C   UNK     0      19.644  30.461  15.496  0.00  0.00     0.260 C 
HETATM    9  O   UNK     0      19.046  30.908  16.466  0.00  0.00    -0.265 OA
HETATM   10  C   UNK     0      19.650  31.104  14.141  0.00  0.00     0.126 C 
ENDBRANCH   7   8
ENDBRANCH   1   7
BRANCH   2  11
HETATM   11  C   UNK     0      19.655  27.406  17.465  0.00  0.00     0.178 C 
HETATM   12  O   UNK     0      18.514  27.774  17.726  0.00  0.00    -0.646 OA
BRANCH  11  13
HETATM   13  O   UNK     0      19.921  26.143  17.030  0.00  0.00    -0.773 OA
HETATM   14  H   UNK     0      20.598  26.136  16.320  0.00  0.00     0.167 HD
ENDBRANCH  11  13
ENDBRANCH   2  11
TORSDOF 4
ENDMDL
