MODEL 1
REMARK VINA RESULT:      -6.3      0.000      0.000
REMARK  4 active torsions:
REMARK  status: ('A' for Active; 'I' for Inactive)
REMARK    1  A    between atoms: O_1  and  C_5 
REMARK    2  A    between atoms: O_1  and  C_12 
REMARK    3  A    between atoms: O_2  and  C_11 
REMARK    4  A    between atoms: C_6  and  C_11 
ROOT
HETATM    1  C   UNK     0      11.621  15.492   1.480  0.00  0.00     0.096 A 
HETATM    2  C   UNK     0      11.689  16.102   0.227  0.00  0.00     0.071 A 
HETATM    3  C   UNK     0      10.426  14.920   1.913  0.00  0.00     0.038 A 
HETATM    4  C   UNK     0      10.560  16.139  -0.592  0.00  0.00     0.021 A 
HETATM    5  C   UNK     0       9.297  14.957   1.095  0.00  0.00     0.003 A 
HETATM    6  C   UNK     0       9.364  15.567  -0.158  0.00  0.00     0.001 A 
ENDROOT
BRANCH   1   7
HETATM    7  O   UNK     0      12.714  15.443   2.294  0.00  0.00    -0.278 OA
BRANCH   7   8
HETATM    8  C   UNK     0      12.503  15.994   3.568  0.00  0.00     0.260 C 
HETATM    9  O   UNK     0      12.337  15.362   4.603  0.00  0.00    -0.265 OA
HETATM   10  C   UNK     0      12.505  17.491   3.486  0.00  0.00     0.126 C 
ENDBRANCH   7   8
ENDBRANCH   1   7
BRANCH   2  11
HETATM   11  C   UNK     0      12.928  16.704  -0.245  0.00  0.00     0.178 C 
HETATM   12  O   UNK     0      13.032  17.741  -0.892  0.00  0.00    -0.646 OA
BRANCH  11  13
HETATM   13  O   UNK     0      14.018  15.970   0.114  0.00  0.00    -0.773 OA
HETATM   14  H   UNK     0      14.115  15.166  -0.440  0.00  0.00     0.167 HD
ENDBRANCH  11  13
ENDBRANCH   2  11
TORSDOF 4
ENDMDL
MODEL 2
REMARK VINA RESULT:      -6.0      2.470      3.421
REMARK  4 active torsions:
REMARK  status: ('A' for Active; 'I' for Inactive)
REMARK    1  A    between atoms: O_1  and  C_5 
REMARK    2  A    between atoms: O_1  and  C_12 
REMARK    3  A    between atoms: O_2  and  C_11 
REMARK    4  A    between atoms: C_6  and  C_11 
ROOT
HETATM    1  C   UNK     0       9.936  15.064   3.118  0.00  0.00     0.096 A 
HETATM    2  C   UNK     0       8.981  14.980   2.104  0.00  0.00     0.071 A 
HETATM    3  C   UNK     0       9.533  15.194   4.447  0.00  0.00     0.038 A 
HETATM    4  C   UNK     0       7.623  15.027   2.421  0.00  0.00     0.021 A 
HETATM    5  C   UNK     0       8.176  15.241   4.763  0.00  0.00     0.003 A 
HETATM    6  C   UNK     0       7.221  15.158   3.750  0.00  0.00     0.001 A 
ENDROOT
BRANCH   1   7
HETATM    7  O   UNK     0      11.268  15.018   2.830  0.00  0.00    -0.278 OA
BRANCH   7   8
HETATM    8  C   UNK     0      11.875  16.279   2.732  0.00  0.00     0.260 C 
HETATM    9  O   UNK     0      11.760  17.059   1.796  0.00  0.00    -0.265 OA
HETATM   10  C   UNK     0      12.704  16.545   3.953  0.00  0.00     0.126 C 
ENDBRANCH   7   8
ENDBRANCH   1   7
BRANCH   2  11
HETATM   11  C   UNK     0       9.380  14.842   0.711  0.00  0.00     0.178 C 
HETATM   12  O   UNK     0       8.931  15.474  -0.240  0.00  0.00    -0.646 OA
BRANCH  11  13
HETATM   13  O   UNK     0      10.348  13.896   0.552  0.00  0.00    -0.773 OA
HETATM   14  H   UNK     0      11.116  14.241   0.049  0.00  0.00     0.167 HD
ENDBRANCH  11  13
ENDBRANCH   2  11
TORSDOF 4
ENDMDL
MODEL 3
REMARK VINA RESULT:      -5.8      2.729      3.550
REMARK  4 active torsions:
REMARK  status: ('A' for Active; 'I' for Inactive)
REMARK    1  A    between atoms: O_1  and  C_5 
REMARK    2  A    between atoms: O_1  and  C_12 
REMARK    3  A    between atoms: O_2  and  C_11 
REMARK    4  A    between atoms: C_6  and  C_11 
ROOT
HETATM    1  C   UNK     0       9.795  15.140   3.281  0.00  0.00     0.096 A 
HETATM    2  C   UNK     0       8.950  15.009   2.178  0.00  0.00     0.071 A 
HETATM    3  C   UNK     0       9.256  15.299   4.557  0.00  0.00     0.038 A 
HETATM    4  C   UNK     0       7.566  15.037   2.353  0.00  0.00     0.021 A 
HETATM    5  C   UNK     0       7.872  15.327   4.732  0.00  0.00     0.003 A 
HETATM    6  C   UNK     0       7.027  15.196   3.630  0.00  0.00     0.001 A 
ENDROOT
BRANCH   1   7
HETATM    7  O   UNK     0      11.149  15.113   3.131  0.00  0.00    -0.278 OA
BRANCH   7   8
HETATM    8  C   UNK     0      11.767  13.996   3.713  0.00  0.00     0.260 C 
HETATM    9  O   UNK     0      11.500  12.825   3.476  0.00  0.00    -0.265 OA
HETATM   10  C   UNK     0      12.817  14.440   4.687  0.00  0.00     0.126 C 
ENDBRANCH   7   8
ENDBRANCH   1   7
BRANCH   2  11
HETATM   11  C   UNK     0       9.492  14.840   0.837  0.00  0.00     0.178 C 
HETATM   12  O   UNK     0       9.215  15.516  -0.149  0.00  0.00    -0.646 OA
BRANCH  11  13
HETATM   13  O   UNK     0      10.379  13.809   0.775  0.00  0.00    -0.773 OA
HETATM   14  H   UNK     0      10.051  13.016   1.250  0.00  0.00     0.167 HD
ENDBRANCH  11  13
ENDBRANCH   2  11
TORSDOF 4
ENDMDL
