MODEL 1
REMARK VINA RESULT:      -6.4      0.000      0.000
REMARK  4 active torsions:
REMARK  status: ('A' for Active; 'I' for Inactive)
REMARK    1  A    between atoms: O_1  and  C_5 
REMARK    2  A    between atoms: O_1  and  C_12 
REMARK    3  A    between atoms: O_2  and  C_11 
REMARK    4  A    between atoms: C_6  and  C_11 
ROOT
HETATM    1  C   UNK     0      53.290 -12.713  29.610  0.00  0.00     0.096 A 
HETATM    2  C   UNK     0      51.941 -12.678  29.257  0.00  0.00     0.071 A 
HETATM    3  C   UNK     0      54.238 -12.081  28.805  0.00  0.00     0.038 A 
HETATM    4  C   UNK     0      51.541 -12.011  28.099  0.00  0.00     0.021 A 
HETATM    5  C   UNK     0      53.838 -11.414  27.647  0.00  0.00     0.003 A 
HETATM    6  C   UNK     0      52.489 -11.379  27.294  0.00  0.00     0.001 A 
ENDROOT
BRANCH   1   7
HETATM    7  O   UNK     0      53.702 -13.357  30.738  0.00  0.00    -0.278 OA
BRANCH   7   8
HETATM    8  C   UNK     0      54.115 -12.499  31.769  0.00  0.00     0.260 C 
HETATM    9  O   UNK     0      53.428 -11.638  32.303  0.00  0.00    -0.265 OA
HETATM   10  C   UNK     0      55.542 -12.784  32.132  0.00  0.00     0.126 C 
ENDBRANCH   7   8
ENDBRANCH   1   7
BRANCH   2  11
HETATM   11  C   UNK     0      50.935 -13.329  30.084  0.00  0.00     0.178 C 
HETATM   12  O   UNK     0      50.335 -14.366  29.818  0.00  0.00    -0.646 OA
BRANCH  11  13
HETATM   13  O   UNK     0      50.708 -12.644  31.239  0.00  0.00    -0.773 OA
HETATM   14  H   UNK     0      51.433 -12.015  31.439  0.00  0.00     0.167 HD
ENDBRANCH  11  13
ENDBRANCH   2  11
TORSDOF 4
ENDMDL
MODEL 2
REMARK VINA RESULT:      -6.3      1.555      3.545
REMARK  4 active torsions:
REMARK  status: ('A' for Active; 'I' for Inactive)
REMARK    1  A    between atoms: O_1  and  C_5 
REMARK    2  A    between atoms: O_1  and  C_12 
REMARK    3  A    between atoms: O_2  and  C_11 
REMARK    4  A    between atoms: C_6  and  C_11 
ROOT
HETATM    1  C   UNK     0      52.427 -12.848  29.711  0.00  0.00     0.096 A 
HETATM    2  C   UNK     0      53.725 -12.779  29.204  0.00  0.00     0.071 A 
HETATM    3  C   UNK     0      51.364 -12.318  28.981  0.00  0.00     0.038 A 
HETATM    4  C   UNK     0      53.959 -12.180  27.966  0.00  0.00     0.021 A 
HETATM    5  C   UNK     0      51.597 -11.718  27.743  0.00  0.00     0.003 A 
HETATM    6  C   UNK     0      52.895 -11.649  27.236  0.00  0.00     0.001 A 
ENDROOT
BRANCH   1   7
HETATM    7  O   UNK     0      52.178 -13.431  30.917  0.00  0.00    -0.278 OA
BRANCH   7   8
HETATM    8  C   UNK     0      51.509 -14.662  30.830  0.00  0.00     0.260 C 
HETATM    9  O   UNK     0      51.891 -15.642  30.204  0.00  0.00    -0.265 OA
HETATM   10  C   UNK     0      50.236 -14.611  31.621  0.00  0.00     0.126 C 
ENDBRANCH   7   8
ENDBRANCH   1   7
BRANCH   2  11
HETATM   11  C   UNK     0      54.849 -13.328  29.950  0.00  0.00     0.178 C 
HETATM   12  O   UNK     0      55.734 -12.687  30.507  0.00  0.00    -0.646 OA
BRANCH  11  13
HETATM   13  O   UNK     0      54.826 -14.690  29.971  0.00  0.00    -0.773 OA
HETATM   14  H   UNK     0      53.928 -15.043  29.792  0.00  0.00     0.167 HD
ENDBRANCH  11  13
ENDBRANCH   2  11
TORSDOF 4
ENDMDL
MODEL 3
REMARK VINA RESULT:      -6.0      2.709      4.496
REMARK  4 active torsions:
REMARK  status: ('A' for Active; 'I' for Inactive)
REMARK    1  A    between atoms: O_1  and  C_5 
REMARK    2  A    between atoms: O_1  and  C_12 
REMARK    3  A    between atoms: O_2  and  C_11 
REMARK    4  A    between atoms: C_6  and  C_11 
ROOT
HETATM    1  C   UNK     0      54.862 -12.687  31.952  0.00  0.00     0.096 A 
HETATM    2  C   UNK     0      54.118 -11.546  32.256  0.00  0.00     0.071 A 
HETATM    3  C   UNK     0      55.691 -13.256  32.919  0.00  0.00     0.038 A 
HETATM    4  C   UNK     0      54.203 -10.976  33.526  0.00  0.00     0.021 A 
HETATM    5  C   UNK     0      55.776 -12.686  34.189  0.00  0.00     0.003 A 
HETATM    6  C   UNK     0      55.033 -11.545  34.492  0.00  0.00     0.001 A 
ENDROOT
BRANCH   1   7
HETATM    7  O   UNK     0      54.791 -13.261  30.718  0.00  0.00    -0.278 OA
BRANCH   7   8
HETATM    8  C   UNK     0      54.096 -14.480  30.693  0.00  0.00     0.260 C 
HETATM    9  O   UNK     0      52.989 -14.683  31.173  0.00  0.00    -0.265 OA
HETATM   10  C   UNK     0      54.913 -15.521  29.988  0.00  0.00     0.126 C 
ENDBRANCH   7   8
ENDBRANCH   1   7
BRANCH   2  11
HETATM   11  C   UNK     0      53.244 -10.938  31.262  0.00  0.00     0.178 C 
HETATM   12  O   UNK     0      53.461  -9.901  30.642  0.00  0.00    -0.646 OA
BRANCH  11  13
HETATM   13  O   UNK     0      52.106 -11.662  31.076  0.00  0.00    -0.773 OA
HETATM   14  H   UNK     0      51.669 -11.442  30.225  0.00  0.00     0.167 HD
ENDBRANCH  11  13
ENDBRANCH   2  11
TORSDOF 4
ENDMDL
