MODEL 1
REMARK VINA RESULT:      -6.2      0.000      0.000
REMARK  4 active torsions:
REMARK  status: ('A' for Active; 'I' for Inactive)
REMARK    1  A    between atoms: O_1  and  C_5 
REMARK    2  A    between atoms: O_1  and  C_12 
REMARK    3  A    between atoms: O_2  and  C_11 
REMARK    4  A    between atoms: C_6  and  C_11 
ROOT
HETATM    1  C   UNK     0     -20.940 -13.276  26.413  0.00  0.00     0.096 A 
HETATM    2  C   UNK     0     -20.111 -12.360  25.764  0.00  0.00     0.071 A 
HETATM    3  C   UNK     0     -22.295 -13.341  26.088  0.00  0.00     0.038 A 
HETATM    4  C   UNK     0     -20.637 -11.511  24.791  0.00  0.00     0.021 A 
HETATM    5  C   UNK     0     -22.821 -12.491  25.115  0.00  0.00     0.003 A 
HETATM    6  C   UNK     0     -21.992 -11.576  24.467  0.00  0.00     0.001 A 
ENDROOT
BRANCH   1   7
HETATM    7  O   UNK     0     -20.445 -14.116  27.365  0.00  0.00    -0.278 OA
BRANCH   7   8
HETATM    8  C   UNK     0     -20.886 -13.829  28.666  0.00  0.00     0.260 C 
HETATM    9  O   UNK     0     -21.959 -13.321  28.963  0.00  0.00    -0.265 OA
HETATM   10  C   UNK     0     -19.840 -14.233  29.662  0.00  0.00     0.126 C 
ENDBRANCH   7   8
ENDBRANCH   1   7
BRANCH   2  11
HETATM   11  C   UNK     0     -18.693 -12.277  26.087  0.00  0.00     0.178 C 
HETATM   12  O   UNK     0     -18.053 -11.250  26.291  0.00  0.00    -0.646 OA
BRANCH  11  13
HETATM   13  O   UNK     0     -18.113 -13.508  26.143  0.00  0.00    -0.773 OA
HETATM   14  H   UNK     0     -17.136 -13.448  26.216  0.00  0.00     0.167 HD
ENDBRANCH  11  13
ENDBRANCH   2  11
TORSDOF 4
ENDMDL
MODEL 2
REMARK VINA RESULT:      -6.2      2.146      3.302
REMARK  4 active torsions:
REMARK  status: ('A' for Active; 'I' for Inactive)
REMARK    1  A    between atoms: O_1  and  C_5 
REMARK    2  A    between atoms: O_1  and  C_12 
REMARK    3  A    between atoms: O_2  and  C_11 
REMARK    4  A    between atoms: C_6  and  C_11 
ROOT
HETATM    1  C   UNK     0     -22.986 -13.151  25.842  0.00  0.00     0.096 A 
HETATM    2  C   UNK     0     -21.671 -12.730  26.041  0.00  0.00     0.071 A 
HETATM    3  C   UNK     0     -23.829 -12.430  24.997  0.00  0.00     0.038 A 
HETATM    4  C   UNK     0     -21.200 -11.588  25.394  0.00  0.00     0.021 A 
HETATM    5  C   UNK     0     -23.358 -11.287  24.350  0.00  0.00     0.003 A 
HETATM    6  C   UNK     0     -22.043 -10.866  24.549  0.00  0.00     0.001 A 
ENDROOT
BRANCH   1   7
HETATM    7  O   UNK     0     -23.465 -14.266  26.463  0.00  0.00    -0.278 OA
BRANCH   7   8
HETATM    8  C   UNK     0     -24.082 -15.182  25.598  0.00  0.00     0.260 C 
HETATM    9  O   UNK     0     -25.264 -15.500  25.615  0.00  0.00    -0.265 OA
HETATM   10  C   UNK     0     -23.076 -15.733  24.632  0.00  0.00     0.126 C 
ENDBRANCH   7   8
ENDBRANCH   1   7
BRANCH   2  11
HETATM   11  C   UNK     0     -20.774 -13.471  26.917  0.00  0.00     0.178 C 
HETATM   12  O   UNK     0     -19.645 -13.863  26.638  0.00  0.00    -0.646 OA
BRANCH  11  13
HETATM   13  O   UNK     0     -21.333 -13.700  28.138  0.00  0.00    -0.773 OA
HETATM   14  H   UNK     0     -22.127 -14.273  28.073  0.00  0.00     0.167 HD
ENDBRANCH  11  13
ENDBRANCH   2  11
TORSDOF 4
ENDMDL
MODEL 3
REMARK VINA RESULT:      -6.0      2.222      3.861
REMARK  4 active torsions:
REMARK  status: ('A' for Active; 'I' for Inactive)
REMARK    1  A    between atoms: O_1  and  C_5 
REMARK    2  A    between atoms: O_1  and  C_12 
REMARK    3  A    between atoms: O_2  and  C_11 
REMARK    4  A    between atoms: C_6  and  C_11 
ROOT
HETATM    1  C   UNK     0     -22.656 -13.784  26.728  0.00  0.00     0.096 A 
HETATM    2  C   UNK     0     -21.729 -13.537  27.742  0.00  0.00     0.071 A 
HETATM    3  C   UNK     0     -23.920 -14.280  27.044  0.00  0.00     0.038 A 
HETATM    4  C   UNK     0     -22.069 -13.785  29.072  0.00  0.00     0.021 A 
HETATM    5  C   UNK     0     -24.260 -14.529  28.374  0.00  0.00     0.003 A 
HETATM    6  C   UNK     0     -23.335 -14.282  29.388  0.00  0.00     0.001 A 
ENDROOT
BRANCH   1   7
HETATM    7  O   UNK     0     -22.344 -13.546  25.423  0.00  0.00    -0.278 OA
BRANCH   7   8
HETATM    8  C   UNK     0     -22.824 -12.321  24.934  0.00  0.00     0.260 C 
HETATM    9  O   UNK     0     -24.002 -12.004  24.830  0.00  0.00    -0.265 OA
HETATM   10  C   UNK     0     -21.676 -11.437  24.547  0.00  0.00     0.126 C 
ENDBRANCH   7   8
ENDBRANCH   1   7
BRANCH   2  11
HETATM   11  C   UNK     0     -20.404 -13.017  27.434  0.00  0.00     0.178 C 
HETATM   12  O   UNK     0     -19.976 -11.904  27.720  0.00  0.00    -0.646 OA
BRANCH  11  13
HETATM   13  O   UNK     0     -19.646 -13.928  26.762  0.00  0.00    -0.773 OA
HETATM   14  H   UNK     0     -20.163 -14.727  26.523  0.00  0.00     0.167 HD
ENDBRANCH  11  13
ENDBRANCH   2  11
TORSDOF 4
ENDMDL
