MODEL 1
REMARK VINA RESULT:      -6.2      0.000      0.000
REMARK  4 active torsions:
REMARK  status: ('A' for Active; 'I' for Inactive)
REMARK    1  A    between atoms: O_1  and  C_5 
REMARK    2  A    between atoms: O_1  and  C_12 
REMARK    3  A    between atoms: O_2  and  C_11 
REMARK    4  A    between atoms: C_6  and  C_11 
ROOT
HETATM    1  C   UNK     0     -22.157 -12.618  25.676  0.00  0.00     0.096 A 
HETATM    2  C   UNK     0     -20.779 -12.563  25.887  0.00  0.00     0.071 A 
HETATM    3  C   UNK     0     -22.729 -11.912  24.618  0.00  0.00     0.038 A 
HETATM    4  C   UNK     0     -19.974 -11.802  25.039  0.00  0.00     0.021 A 
HETATM    5  C   UNK     0     -21.924 -11.152  23.770  0.00  0.00     0.003 A 
HETATM    6  C   UNK     0     -20.547 -11.096  23.981  0.00  0.00     0.001 A 
ENDROOT
BRANCH   1   7
HETATM    7  O   UNK     0     -22.961 -13.357  26.493  0.00  0.00    -0.278 OA
BRANCH   7   8
HETATM    8  C   UNK     0     -23.775 -14.276  25.814  0.00  0.00     0.260 C 
HETATM    9  O   UNK     0     -23.423 -14.999  24.891  0.00  0.00    -0.265 OA
HETATM   10  C   UNK     0     -25.163 -14.249  26.381  0.00  0.00     0.126 C 
ENDBRANCH   7   8
ENDBRANCH   1   7
BRANCH   2  11
HETATM   11  C   UNK     0     -20.161 -13.294  26.985  0.00  0.00     0.178 C 
HETATM   12  O   UNK     0     -20.177 -12.975  28.170  0.00  0.00    -0.646 OA
BRANCH  11  13
HETATM   13  O   UNK     0     -19.531 -14.421  26.553  0.00  0.00    -0.773 OA
HETATM   14  H   UNK     0     -19.252 -14.346  25.615  0.00  0.00     0.167 HD
ENDBRANCH  11  13
ENDBRANCH   2  11
TORSDOF 4
ENDMDL
MODEL 2
REMARK VINA RESULT:      -6.2      1.975      4.560
REMARK  4 active torsions:
REMARK  status: ('A' for Active; 'I' for Inactive)
REMARK    1  A    between atoms: O_1  and  C_5 
REMARK    2  A    between atoms: O_1  and  C_12 
REMARK    3  A    between atoms: O_2  and  C_11 
REMARK    4  A    between atoms: C_6  and  C_11 
ROOT
HETATM    1  C   UNK     0     -22.616 -13.234  26.011  0.00  0.00     0.096 A 
HETATM    2  C   UNK     0     -23.730 -13.883  26.547  0.00  0.00     0.071 A 
HETATM    3  C   UNK     0     -21.568 -12.845  26.845  0.00  0.00     0.038 A 
HETATM    4  C   UNK     0     -23.793 -14.143  27.916  0.00  0.00     0.021 A 
HETATM    5  C   UNK     0     -21.632 -13.105  28.214  0.00  0.00     0.003 A 
HETATM    6  C   UNK     0     -22.744 -13.753  28.749  0.00  0.00     0.001 A 
ENDROOT
BRANCH   1   7
HETATM    7  O   UNK     0     -22.534 -12.974  24.676  0.00  0.00    -0.278 OA
BRANCH   7   8
HETATM    8  C   UNK     0     -22.534 -11.607  24.359  0.00  0.00     0.260 C 
HETATM    9  O   UNK     0     -23.447 -10.821  24.574  0.00  0.00    -0.265 OA
HETATM   10  C   UNK     0     -21.237 -11.232  23.706  0.00  0.00     0.126 C 
ENDBRANCH   7   8
ENDBRANCH   1   7
BRANCH   2  11
HETATM   11  C   UNK     0     -24.834 -14.299  25.694  0.00  0.00     0.178 C 
HETATM   12  O   UNK     0     -25.241 -15.447  25.540  0.00  0.00    -0.646 OA
BRANCH  11  13
HETATM   13  O   UNK     0     -25.402 -13.243  25.048  0.00  0.00    -0.773 OA
HETATM   14  H   UNK     0     -25.312 -12.411  25.560  0.00  0.00     0.167 HD
ENDBRANCH  11  13
ENDBRANCH   2  11
TORSDOF 4
ENDMDL
MODEL 3
REMARK VINA RESULT:      -6.1      1.450      3.472
REMARK  4 active torsions:
REMARK  status: ('A' for Active; 'I' for Inactive)
REMARK    1  A    between atoms: O_1  and  C_5 
REMARK    2  A    between atoms: O_1  and  C_12 
REMARK    3  A    between atoms: O_2  and  C_11 
REMARK    4  A    between atoms: C_6  and  C_11 
ROOT
HETATM    1  C   UNK     0     -21.161 -12.681  25.590  0.00  0.00     0.096 A 
HETATM    2  C   UNK     0     -22.112 -12.223  24.676  0.00  0.00     0.071 A 
HETATM    3  C   UNK     0     -19.858 -12.186  25.546  0.00  0.00     0.038 A 
HETATM    4  C   UNK     0     -21.758 -11.271  23.721  0.00  0.00     0.021 A 
HETATM    5  C   UNK     0     -19.504 -11.234  24.590  0.00  0.00     0.003 A 
HETATM    6  C   UNK     0     -20.454 -10.776  23.677  0.00  0.00     0.001 A 
ENDROOT
BRANCH   1   7
HETATM    7  O   UNK     0     -21.487 -13.609  26.533  0.00  0.00    -0.278 OA
BRANCH   7   8
HETATM    8  C   UNK     0     -21.303 -13.172  27.853  0.00  0.00     0.260 C 
HETATM    9  O   UNK     0     -21.835 -12.196  28.366  0.00  0.00    -0.265 OA
HETATM   10  C   UNK     0     -20.344 -14.079  28.565  0.00  0.00     0.126 C 
ENDBRANCH   7   8
ENDBRANCH   1   7
BRANCH   2  11
HETATM   11  C   UNK     0     -23.479 -12.725  24.706  0.00  0.00     0.178 C 
HETATM   12  O   UNK     0     -24.491 -12.063  24.912  0.00  0.00    -0.646 OA
BRANCH  11  13
HETATM   13  O   UNK     0     -23.531 -14.066  24.473  0.00  0.00    -0.773 OA
HETATM   14  H   UNK     0     -22.756 -14.378  23.959  0.00  0.00     0.167 HD
ENDBRANCH  11  13
ENDBRANCH   2  11
TORSDOF 4
ENDMDL
