MODEL 1
REMARK VINA RESULT:      -5.7      0.000      0.000
REMARK  4 active torsions:
REMARK  status: ('A' for Active; 'I' for Inactive)
REMARK    1  A    between atoms: O_1  and  C_5 
REMARK    2  A    between atoms: O_1  and  C_12 
REMARK    3  A    between atoms: O_2  and  C_11 
REMARK    4  A    between atoms: C_6  and  C_11 
ROOT
HETATM    1  C   UNK     0     -38.036  51.098  14.698  0.00  0.00     0.096 A 
HETATM    2  C   UNK     0     -38.029  50.130  15.704  0.00  0.00     0.071 A 
HETATM    3  C   UNK     0     -39.148  51.234  13.869  0.00  0.00     0.038 A 
HETATM    4  C   UNK     0     -39.136  49.299  15.878  0.00  0.00     0.021 A 
HETATM    5  C   UNK     0     -40.255  50.403  14.043  0.00  0.00     0.003 A 
HETATM    6  C   UNK     0     -40.249  49.435  15.048  0.00  0.00     0.001 A 
ENDROOT
BRANCH   1   7
HETATM    7  O   UNK     0     -36.965  51.921  14.513  0.00  0.00    -0.278 OA
BRANCH   7   8
HETATM    8  C   UNK     0     -36.952  53.042  15.358  0.00  0.00     0.260 C 
HETATM    9  O   UNK     0     -37.934  53.568  15.866  0.00  0.00    -0.265 OA
HETATM   10  C   UNK     0     -35.544  53.518  15.556  0.00  0.00     0.126 C 
ENDBRANCH   7   8
ENDBRANCH   1   7
BRANCH   2  11
HETATM   11  C   UNK     0     -36.878  49.973  16.582  0.00  0.00     0.178 C 
HETATM   12  O   UNK     0     -36.896  49.973  17.809  0.00  0.00    -0.646 OA
BRANCH  11  13
HETATM   13  O   UNK     0     -35.721  49.821  15.880  0.00  0.00    -0.773 OA
HETATM   14  H   UNK     0     -35.596  50.538  15.223  0.00  0.00     0.167 HD
ENDBRANCH  11  13
ENDBRANCH   2  11
TORSDOF 4
ENDMDL
MODEL 2
REMARK VINA RESULT:      -5.4      1.734      3.088
REMARK  4 active torsions:
REMARK  status: ('A' for Active; 'I' for Inactive)
REMARK    1  A    between atoms: O_1  and  C_5 
REMARK    2  A    between atoms: O_1  and  C_12 
REMARK    3  A    between atoms: O_2  and  C_11 
REMARK    4  A    between atoms: C_6  and  C_11 
ROOT
HETATM    1  C   UNK     0     -37.762  50.614  14.980  0.00  0.00     0.096 A 
HETATM    2  C   UNK     0     -39.077  50.190  14.781  0.00  0.00     0.071 A 
HETATM    3  C   UNK     0     -36.935  49.927  15.868  0.00  0.00     0.038 A 
HETATM    4  C   UNK     0     -39.562  49.079  15.471  0.00  0.00     0.021 A 
HETATM    5  C   UNK     0     -37.420  48.816  16.558  0.00  0.00     0.003 A 
HETATM    6  C   UNK     0     -38.734  48.392  16.359  0.00  0.00     0.001 A 
ENDROOT
BRANCH   1   7
HETATM    7  O   UNK     0     -37.268  51.695  14.314  0.00  0.00    -0.278 OA
BRANCH   7   8
HETATM    8  C   UNK     0     -36.647  52.643  15.143  0.00  0.00     0.260 C 
HETATM    9  O   UNK     0     -35.441  52.806  15.266  0.00  0.00    -0.265 OA
HETATM   10  C   UNK     0     -37.685  53.441  15.875  0.00  0.00     0.126 C 
ENDBRANCH   7   8
ENDBRANCH   1   7
BRANCH   2  11
HETATM   11  C   UNK     0     -39.956  50.891  13.857  0.00  0.00     0.178 C 
HETATM   12  O   UNK     0     -41.116  51.230  14.073  0.00  0.00    -0.646 OA
BRANCH  11  13
HETATM   13  O   UNK     0     -39.342  51.148  12.668  0.00  0.00    -0.773 OA
HETATM   14  H   UNK     0     -39.395  50.382  12.057  0.00  0.00     0.167 HD
ENDBRANCH  11  13
ENDBRANCH   2  11
TORSDOF 4
ENDMDL
MODEL 3
REMARK VINA RESULT:      -5.3      2.961      4.367
REMARK  4 active torsions:
REMARK  status: ('A' for Active; 'I' for Inactive)
REMARK    1  A    between atoms: O_1  and  C_5 
REMARK    2  A    between atoms: O_1  and  C_12 
REMARK    3  A    between atoms: O_2  and  C_11 
REMARK    4  A    between atoms: C_6  and  C_11 
ROOT
HETATM    1  C   UNK     0     -39.669  50.293  14.624  0.00  0.00     0.096 A 
HETATM    2  C   UNK     0     -39.439  49.276  15.552  0.00  0.00     0.071 A 
HETATM    3  C   UNK     0     -38.601  51.044  14.134  0.00  0.00     0.038 A 
HETATM    4  C   UNK     0     -38.141  49.012  15.989  0.00  0.00     0.021 A 
HETATM    5  C   UNK     0     -37.303  50.779  14.570  0.00  0.00     0.003 A 
HETATM    6  C   UNK     0     -37.073  49.763  15.498  0.00  0.00     0.001 A 
ENDROOT
BRANCH   1   7
HETATM    7  O   UNK     0     -40.929  50.566  14.183  0.00  0.00    -0.278 OA
BRANCH   7   8
HETATM    8  C   UNK     0     -41.120  50.326  12.813  0.00  0.00     0.260 C 
HETATM    9  O   UNK     0     -40.929  51.131  11.912  0.00  0.00    -0.265 OA
HETATM   10  C   UNK     0     -41.604  48.922  12.601  0.00  0.00     0.126 C 
ENDBRANCH   7   8
ENDBRANCH   1   7
BRANCH   2  11
HETATM   11  C   UNK     0     -40.540  48.479  16.075  0.00  0.00     0.178 C 
HETATM   12  O   UNK     0     -40.688  47.268  15.941  0.00  0.00    -0.646 OA
BRANCH  11  13
HETATM   13  O   UNK     0     -41.437  49.241  16.760  0.00  0.00    -0.773 OA
HETATM   14  H   UNK     0     -41.640  50.078  16.289  0.00  0.00     0.167 HD
ENDBRANCH  11  13
ENDBRANCH   2  11
TORSDOF 4
ENDMDL
