MODEL 1
REMARK VINA RESULT:      -5.1      0.000      0.000
REMARK  4 active torsions:
REMARK  status: ('A' for Active; 'I' for Inactive)
REMARK    1  A    between atoms: O_1  and  C_5 
REMARK    2  A    between atoms: O_1  and  C_12 
REMARK    3  A    between atoms: O_2  and  C_11 
REMARK    4  A    between atoms: C_6  and  C_11 
ROOT
HETATM    1  C   UNK     0     -31.314 -57.957   9.868  0.00  0.00     0.096 A 
HETATM    2  C   UNK     0     -30.240 -57.739   9.005  0.00  0.00     0.071 A 
HETATM    3  C   UNK     0     -31.533 -59.227  10.402  0.00  0.00     0.038 A 
HETATM    4  C   UNK     0     -29.385 -58.791   8.677  0.00  0.00     0.021 A 
HETATM    5  C   UNK     0     -30.678 -60.279  10.073  0.00  0.00     0.003 A 
HETATM    6  C   UNK     0     -29.604 -60.061   9.211  0.00  0.00     0.001 A 
ENDROOT
BRANCH   1   7
HETATM    7  O   UNK     0     -32.159 -56.942  10.203  0.00  0.00    -0.278 OA
BRANCH   7   8
HETATM    8  C   UNK     0     -33.302 -56.858   9.393  0.00  0.00     0.260 C 
HETATM    9  O   UNK     0     -34.036 -57.790   9.092  0.00  0.00    -0.265 OA
HETATM   10  C   UNK     0     -33.503 -55.445   8.935  0.00  0.00     0.126 C 
ENDBRANCH   7   8
ENDBRANCH   1   7
BRANCH   2  11
HETATM   11  C   UNK     0     -29.992 -56.420   8.439  0.00  0.00     0.178 C 
HETATM   12  O   UNK     0     -30.255 -56.059   7.296  0.00  0.00    -0.646 OA
BRANCH  11  13
HETATM   13  O   UNK     0     -29.410 -55.582   9.341  0.00  0.00    -0.773 OA
HETATM   14  H   UNK     0     -29.721 -55.758  10.255  0.00  0.00     0.167 HD
ENDBRANCH  11  13
ENDBRANCH   2  11
TORSDOF 4
ENDMDL
MODEL 2
REMARK VINA RESULT:      -5.1      1.905      2.387
REMARK  4 active torsions:
REMARK  status: ('A' for Active; 'I' for Inactive)
REMARK    1  A    between atoms: O_1  and  C_5 
REMARK    2  A    between atoms: O_1  and  C_12 
REMARK    3  A    between atoms: O_2  and  C_11 
REMARK    4  A    between atoms: C_6  and  C_11 
ROOT
HETATM    1  C   UNK     0     -30.722 -58.557   8.523  0.00  0.00     0.096 A 
HETATM    2  C   UNK     0     -29.498 -58.586   9.192  0.00  0.00     0.071 A 
HETATM    3  C   UNK     0     -31.828 -59.211   9.064  0.00  0.00     0.038 A 
HETATM    4  C   UNK     0     -29.382 -59.270  10.402  0.00  0.00     0.021 A 
HETATM    5  C   UNK     0     -31.712 -59.895  10.274  0.00  0.00     0.003 A 
HETATM    6  C   UNK     0     -30.488 -59.925  10.943  0.00  0.00     0.001 A 
ENDROOT
BRANCH   1   7
HETATM    7  O   UNK     0     -30.857 -57.892   7.340  0.00  0.00    -0.278 OA
BRANCH   7   8
HETATM    8  C   UNK     0     -31.642 -56.731   7.423  0.00  0.00     0.260 C 
HETATM    9  O   UNK     0     -31.463 -55.799   8.196  0.00  0.00    -0.265 OA
HETATM   10  C   UNK     0     -32.753 -56.790   6.418  0.00  0.00     0.126 C 
ENDBRANCH   7   8
ENDBRANCH   1   7
BRANCH   2  11
HETATM   11  C   UNK     0     -28.331 -57.907   8.645  0.00  0.00     0.178 C 
HETATM   12  O   UNK     0     -27.305 -58.441   8.237  0.00  0.00    -0.646 OA
BRANCH  11  13
HETATM   13  O   UNK     0     -28.492 -56.554   8.631  0.00  0.00    -0.773 OA
HETATM   14  H   UNK     0     -29.420 -56.295   8.818  0.00  0.00     0.167 HD
ENDBRANCH  11  13
ENDBRANCH   2  11
TORSDOF 4
ENDMDL
MODEL 3
REMARK VINA RESULT:      -5.1      1.345      3.024
REMARK  4 active torsions:
REMARK  status: ('A' for Active; 'I' for Inactive)
REMARK    1  A    between atoms: O_1  and  C_5 
REMARK    2  A    between atoms: O_1  and  C_12 
REMARK    3  A    between atoms: O_2  and  C_11 
REMARK    4  A    between atoms: C_6  and  C_11 
ROOT
HETATM    1  C   UNK     0     -30.768 -57.604   9.042  0.00  0.00     0.096 A 
HETATM    2  C   UNK     0     -31.611 -58.102  10.036  0.00  0.00     0.071 A 
HETATM    3  C   UNK     0     -29.822 -58.438   8.448  0.00  0.00     0.038 A 
HETATM    4  C   UNK     0     -31.507 -59.434  10.434  0.00  0.00     0.021 A 
HETATM    5  C   UNK     0     -29.718 -59.771   8.846  0.00  0.00     0.003 A 
HETATM    6  C   UNK     0     -30.560 -60.269   9.840  0.00  0.00     0.001 A 
ENDROOT
BRANCH   1   7
HETATM    7  O   UNK     0     -30.855 -56.306   8.636  0.00  0.00    -0.278 OA
BRANCH   7   8
HETATM    8  C   UNK     0     -31.384 -56.143   7.347  0.00  0.00     0.260 C 
HETATM    9  O   UNK     0     -32.434 -56.621   6.937  0.00  0.00    -0.265 OA
HETATM   10  C   UNK     0     -30.469 -55.290   6.521  0.00  0.00     0.126 C 
ENDBRANCH   7   8
ENDBRANCH   1   7
BRANCH   2  11
HETATM   11  C   UNK     0     -32.607 -57.248  10.668  0.00  0.00     0.178 C 
HETATM   12  O   UNK     0     -32.596 -56.855  11.830  0.00  0.00    -0.646 OA
BRANCH  11  13
HETATM   13  O   UNK     0     -33.605 -56.909   9.805  0.00  0.00    -0.773 OA
HETATM   14  H   UNK     0     -33.883 -57.670   9.252  0.00  0.00     0.167 HD
ENDBRANCH  11  13
ENDBRANCH   2  11
TORSDOF 4
ENDMDL
