MODEL 1
REMARK VINA RESULT:      -6.4      0.000      0.000
REMARK  4 active torsions:
REMARK  status: ('A' for Active; 'I' for Inactive)
REMARK    1  A    between atoms: O_1  and  C_5 
REMARK    2  A    between atoms: O_1  and  C_12 
REMARK    3  A    between atoms: O_2  and  C_11 
REMARK    4  A    between atoms: C_6  and  C_11 
ROOT
HETATM    1  C   UNK     0      -3.506  18.581 -25.045  0.00  0.00     0.096 A 
HETATM    2  C   UNK     0      -2.538  19.305 -25.744  0.00  0.00     0.071 A 
HETATM    3  C   UNK     0      -3.223  18.090 -23.771  0.00  0.00     0.038 A 
HETATM    4  C   UNK     0      -1.290  19.537 -25.167  0.00  0.00     0.021 A 
HETATM    5  C   UNK     0      -1.975  18.322 -23.194  0.00  0.00     0.003 A 
HETATM    6  C   UNK     0      -1.008  19.045 -23.892  0.00  0.00     0.001 A 
ENDROOT
BRANCH   1   7
HETATM    7  O   UNK     0      -4.732  18.345 -25.590  0.00  0.00    -0.278 OA
BRANCH   7   8
HETATM    8  C   UNK     0      -4.927  17.020 -26.009  0.00  0.00     0.260 C 
HETATM    9  O   UNK     0      -5.232  16.078 -25.290  0.00  0.00    -0.265 OA
HETATM   10  C   UNK     0      -4.702  16.912 -27.488  0.00  0.00     0.126 C 
ENDBRANCH   7   8
ENDBRANCH   1   7
BRANCH   2  11
HETATM   11  C   UNK     0      -2.813  19.828 -27.075  0.00  0.00     0.178 C 
HETATM   12  O   UNK     0      -2.133  19.650 -28.080  0.00  0.00    -0.646 OA
BRANCH  11  13
HETATM   13  O   UNK     0      -3.954  20.572 -27.102  0.00  0.00    -0.773 OA
HETATM   14  H   UNK     0      -4.757  20.011 -27.038  0.00  0.00     0.167 HD
ENDBRANCH  11  13
ENDBRANCH   2  11
TORSDOF 4
ENDMDL
MODEL 2
REMARK VINA RESULT:      -6.4      1.846      3.984
REMARK  4 active torsions:
REMARK  status: ('A' for Active; 'I' for Inactive)
REMARK    1  A    between atoms: O_1  and  C_5 
REMARK    2  A    between atoms: O_1  and  C_12 
REMARK    3  A    between atoms: O_2  and  C_11 
REMARK    4  A    between atoms: C_6  and  C_11 
ROOT
HETATM    1  C   UNK     0      -2.656  18.449 -25.812  0.00  0.00     0.096 A 
HETATM    2  C   UNK     0      -3.810  17.990 -26.449  0.00  0.00     0.071 A 
HETATM    3  C   UNK     0      -2.153  19.715 -26.109  0.00  0.00     0.038 A 
HETATM    4  C   UNK     0      -4.460  18.799 -27.381  0.00  0.00     0.021 A 
HETATM    5  C   UNK     0      -2.803  20.524 -27.041  0.00  0.00     0.003 A 
HETATM    6  C   UNK     0      -3.956  20.066 -27.677  0.00  0.00     0.001 A 
ENDROOT
BRANCH   1   7
HETATM    7  O   UNK     0      -2.008  17.674 -24.897  0.00  0.00    -0.278 OA
BRANCH   7   8
HETATM    8  C   UNK     0      -2.139  18.122 -23.573  0.00  0.00     0.260 C 
HETATM    9  O   UNK     0      -3.192  18.254 -22.963  0.00  0.00    -0.265 OA
HETATM   10  C   UNK     0      -0.788  18.427 -22.999  0.00  0.00     0.126 C 
ENDBRANCH   7   8
ENDBRANCH   1   7
BRANCH   2  11
HETATM   11  C   UNK     0      -4.353  16.671 -26.152  0.00  0.00     0.178 C 
HETATM   12  O   UNK     0      -4.407  15.718 -26.923  0.00  0.00    -0.646 OA
BRANCH  11  13
HETATM   13  O   UNK     0      -4.821  16.591 -24.876  0.00  0.00    -0.773 OA
HETATM   14  H   UNK     0      -4.618  15.722 -24.467  0.00  0.00     0.167 HD
ENDBRANCH  11  13
ENDBRANCH   2  11
TORSDOF 4
ENDMDL
MODEL 3
REMARK VINA RESULT:      -6.3      1.172      3.286
REMARK  4 active torsions:
REMARK  status: ('A' for Active; 'I' for Inactive)
REMARK    1  A    between atoms: O_1  and  C_5 
REMARK    2  A    between atoms: O_1  and  C_12 
REMARK    3  A    between atoms: O_2  and  C_11 
REMARK    4  A    between atoms: C_6  and  C_11 
ROOT
HETATM    1  C   UNK     0      -2.199  18.516 -25.678  0.00  0.00     0.096 A 
HETATM    2  C   UNK     0      -3.152  18.260 -24.691  0.00  0.00     0.071 A 
HETATM    3  C   UNK     0      -0.872  18.749 -25.322  0.00  0.00     0.038 A 
HETATM    4  C   UNK     0      -2.775  18.236 -23.349  0.00  0.00     0.021 A 
HETATM    5  C   UNK     0      -0.495  18.725 -23.979  0.00  0.00     0.003 A 
HETATM    6  C   UNK     0      -1.446  18.469 -22.993  0.00  0.00     0.001 A 
ENDROOT
BRANCH   1   7
HETATM    7  O   UNK     0      -2.547  18.542 -26.996  0.00  0.00    -0.278 OA
BRANCH   7   8
HETATM    8  C   UNK     0      -2.758  19.831 -27.507  0.00  0.00     0.260 C 
HETATM    9  O   UNK     0      -2.813  20.862 -26.850  0.00  0.00    -0.265 OA
HETATM   10  C   UNK     0      -2.913  19.774 -28.998  0.00  0.00     0.126 C 
ENDBRANCH   7   8
ENDBRANCH   1   7
BRANCH   2  11
HETATM   11  C   UNK     0      -4.544  18.012 -25.042  0.00  0.00     0.178 C 
HETATM   12  O   UNK     0      -5.375  18.858 -25.359  0.00  0.00    -0.646 OA
BRANCH  11  13
HETATM   13  O   UNK     0      -4.854  16.687 -24.982  0.00  0.00    -0.773 OA
HETATM   14  H   UNK     0      -4.183  16.135 -25.437  0.00  0.00     0.167 HD
ENDBRANCH  11  13
ENDBRANCH   2  11
TORSDOF 4
ENDMDL
