MODEL 1
REMARK VINA RESULT:      -5.9      0.000      0.000
REMARK  4 active torsions:
REMARK  status: ('A' for Active; 'I' for Inactive)
REMARK    1  A    between atoms: O_1  and  C_5 
REMARK    2  A    between atoms: O_1  and  C_12 
REMARK    3  A    between atoms: O_2  and  C_11 
REMARK    4  A    between atoms: C_6  and  C_11 
ROOT
HETATM    1  C   UNK     0       2.955   6.839  19.025  0.00  0.00     0.096 A 
HETATM    2  C   UNK     0       2.288   5.742  19.572  0.00  0.00     0.071 A 
HETATM    3  C   UNK     0       3.837   7.581  19.810  0.00  0.00     0.038 A 
HETATM    4  C   UNK     0       2.504   5.388  20.904  0.00  0.00     0.021 A 
HETATM    5  C   UNK     0       4.054   7.226  21.142  0.00  0.00     0.003 A 
HETATM    6  C   UNK     0       3.387   6.130  21.689  0.00  0.00     0.001 A 
ENDROOT
BRANCH   1   7
HETATM    7  O   UNK     0       2.759   7.200  17.726  0.00  0.00    -0.278 OA
BRANCH   7   8
HETATM    8  C   UNK     0       2.060   8.407  17.566  0.00  0.00     0.260 C 
HETATM    9  O   UNK     0       0.902   8.614  17.906  0.00  0.00    -0.265 OA
HETATM   10  C   UNK     0       2.941   9.427  16.908  0.00  0.00     0.126 C 
ENDBRANCH   7   8
ENDBRANCH   1   7
BRANCH   2  11
HETATM   11  C   UNK     0       1.364   4.953  18.769  0.00  0.00     0.178 C 
HETATM   12  O   UNK     0       1.538   3.802  18.381  0.00  0.00    -0.646 OA
BRANCH  11  13
HETATM   13  O   UNK     0       0.231   5.647  18.471  0.00  0.00    -0.773 OA
HETATM   14  H   UNK     0       0.142   5.805  17.507  0.00  0.00     0.167 HD
ENDBRANCH  11  13
ENDBRANCH   2  11
TORSDOF 4
ENDMDL
MODEL 2
REMARK VINA RESULT:      -5.7      1.943      3.418
REMARK  4 active torsions:
REMARK  status: ('A' for Active; 'I' for Inactive)
REMARK    1  A    between atoms: O_1  and  C_5 
REMARK    2  A    between atoms: O_1  and  C_12 
REMARK    3  A    between atoms: O_2  and  C_11 
REMARK    4  A    between atoms: C_6  and  C_11 
ROOT
HETATM    1  C   UNK     0       2.908   6.759  19.526  0.00  0.00     0.096 A 
HETATM    2  C   UNK     0       1.845   6.804  18.623  0.00  0.00     0.071 A 
HETATM    3  C   UNK     0       3.074   5.649  20.354  0.00  0.00     0.038 A 
HETATM    4  C   UNK     0       0.949   5.738  18.549  0.00  0.00     0.021 A 
HETATM    5  C   UNK     0       2.178   4.583  20.280  0.00  0.00     0.003 A 
HETATM    6  C   UNK     0       1.115   4.627  19.378  0.00  0.00     0.001 A 
ENDROOT
BRANCH   1   7
HETATM    7  O   UNK     0       3.796   7.790  19.613  0.00  0.00    -0.278 OA
BRANCH   7   8
HETATM    8  C   UNK     0       5.071   7.490  19.108  0.00  0.00     0.260 C 
HETATM    9  O   UNK     0       5.319   7.094  17.977  0.00  0.00    -0.265 OA
HETATM   10  C   UNK     0       6.108   7.723  20.166  0.00  0.00     0.126 C 
ENDBRANCH   7   8
ENDBRANCH   1   7
BRANCH   2  11
HETATM   11  C   UNK     0       1.655   7.953  17.748  0.00  0.00     0.178 C 
HETATM   12  O   UNK     0       0.770   8.797  17.840  0.00  0.00    -0.646 OA
BRANCH  11  13
HETATM   13  O   UNK     0       2.599   8.005  16.768  0.00  0.00    -0.773 OA
HETATM   14  H   UNK     0       3.096   8.851  16.784  0.00  0.00     0.167 HD
ENDBRANCH  11  13
ENDBRANCH   2  11
TORSDOF 4
ENDMDL
MODEL 3
REMARK VINA RESULT:      -5.5      1.911      3.668
REMARK  4 active torsions:
REMARK  status: ('A' for Active; 'I' for Inactive)
REMARK    1  A    between atoms: O_1  and  C_5 
REMARK    2  A    between atoms: O_1  and  C_12 
REMARK    3  A    between atoms: O_2  and  C_11 
REMARK    4  A    between atoms: C_6  and  C_11 
ROOT
HETATM    1  C   UNK     0       3.235   6.606  18.904  0.00  0.00     0.096 A 
HETATM    2  C   UNK     0       2.373   6.319  17.845  0.00  0.00     0.071 A 
HETATM    3  C   UNK     0       4.605   6.733  18.673  0.00  0.00     0.038 A 
HETATM    4  C   UNK     0       2.881   6.160  16.556  0.00  0.00     0.021 A 
HETATM    5  C   UNK     0       5.113   6.574  17.384  0.00  0.00     0.003 A 
HETATM    6  C   UNK     0       4.251   6.287  16.325  0.00  0.00     0.001 A 
ENDROOT
BRANCH   1   7
HETATM    7  O   UNK     0       2.759   6.767  20.171  0.00  0.00    -0.278 OA
BRANCH   7   8
HETATM    8  C   UNK     0       3.034   5.690  21.027  0.00  0.00     0.260 C 
HETATM    9  O   UNK     0       2.781   4.514  20.802  0.00  0.00    -0.265 OA
HETATM   10  C   UNK     0       3.691   6.186  22.280  0.00  0.00     0.126 C 
ENDBRANCH   7   8
ENDBRANCH   1   7
BRANCH   2  11
HETATM   11  C   UNK     0       0.939   6.184  18.065  0.00  0.00     0.178 C 
HETATM   12  O   UNK     0       0.364   5.202  18.524  0.00  0.00    -0.646 OA
BRANCH  11  13
HETATM   13  O   UNK     0       0.261   7.305  17.692  0.00  0.00    -0.773 OA
HETATM   14  H   UNK     0      -0.655   7.099  17.407  0.00  0.00     0.167 HD
ENDBRANCH  11  13
ENDBRANCH   2  11
TORSDOF 4
ENDMDL
