MODEL 1
REMARK VINA RESULT:      -5.3      0.000      0.000
REMARK  4 active torsions:
REMARK  status: ('A' for Active; 'I' for Inactive)
REMARK    1  A    between atoms: O_1  and  C_5 
REMARK    2  A    between atoms: O_1  and  C_12 
REMARK    3  A    between atoms: O_2  and  C_11 
REMARK    4  A    between atoms: C_6  and  C_11 
ROOT
HETATM    1  C   UNK     0      30.766  16.759   0.214  0.00  0.00     0.096 A 
HETATM    2  C   UNK     0      32.058  17.032  -0.237  0.00  0.00     0.071 A 
HETATM    3  C   UNK     0      30.126  17.648   1.077  0.00  0.00     0.038 A 
HETATM    4  C   UNK     0      32.708  18.195   0.176  0.00  0.00     0.021 A 
HETATM    5  C   UNK     0      30.776  18.811   1.490  0.00  0.00     0.003 A 
HETATM    6  C   UNK     0      32.067  19.084   1.039  0.00  0.00     0.001 A 
ENDROOT
BRANCH   1   7
HETATM    7  O   UNK     0      30.112  15.629  -0.179  0.00  0.00    -0.278 OA
BRANCH   7   8
HETATM    8  C   UNK     0      29.054  15.861  -1.070  0.00  0.00     0.260 C 
HETATM    9  O   UNK     0      29.146  16.392  -2.169  0.00  0.00    -0.265 OA
HETATM   10  C   UNK     0      27.768  15.365  -0.479  0.00  0.00     0.126 C 
ENDBRANCH   7   8
ENDBRANCH   1   7
BRANCH   2  11
HETATM   11  C   UNK     0      32.743  16.118  -1.139  0.00  0.00     0.178 C 
HETATM   12  O   UNK     0      33.705  15.408  -0.862  0.00  0.00    -0.646 OA
BRANCH  11  13
HETATM   13  O   UNK     0      32.191  16.126  -2.384  0.00  0.00    -0.773 OA
HETATM   14  H   UNK     0      31.972  15.220  -2.692  0.00  0.00     0.167 HD
ENDBRANCH  11  13
ENDBRANCH   2  11
TORSDOF 4
ENDMDL
MODEL 2
REMARK VINA RESULT:      -5.2      2.062      4.542
REMARK  4 active torsions:
REMARK  status: ('A' for Active; 'I' for Inactive)
REMARK    1  A    between atoms: O_1  and  C_5 
REMARK    2  A    between atoms: O_1  and  C_12 
REMARK    3  A    between atoms: O_2  and  C_11 
REMARK    4  A    between atoms: C_6  and  C_11 
ROOT
HETATM    1  C   UNK     0      31.918  16.584  -0.183  0.00  0.00     0.096 A 
HETATM    2  C   UNK     0      30.539  16.393  -0.085  0.00  0.00     0.071 A 
HETATM    3  C   UNK     0      32.566  16.378  -1.400  0.00  0.00     0.038 A 
HETATM    4  C   UNK     0      29.809  15.997  -1.206  0.00  0.00     0.021 A 
HETATM    5  C   UNK     0      31.836  15.981  -2.521  0.00  0.00     0.003 A 
HETATM    6  C   UNK     0      30.458  15.790  -2.424  0.00  0.00     0.001 A 
ENDROOT
BRANCH   1   7
HETATM    7  O   UNK     0      32.648  16.973   0.900  0.00  0.00    -0.278 OA
BRANCH   7   8
HETATM    8  C   UNK     0      33.041  18.320   0.870  0.00  0.00     0.260 C 
HETATM    9  O   UNK     0      32.290  19.285   0.822  0.00  0.00    -0.265 OA
HETATM   10  C   UNK     0      34.537  18.418   0.904  0.00  0.00     0.126 C 
ENDBRANCH   7   8
ENDBRANCH   1   7
BRANCH   2  11
HETATM   11  C   UNK     0      29.842  16.605   1.176  0.00  0.00     0.178 C 
HETATM   12  O   UNK     0      29.307  15.741   1.864  0.00  0.00    -0.646 OA
BRANCH  11  13
HETATM   13  O   UNK     0      29.838  17.917   1.538  0.00  0.00    -0.773 OA
HETATM   14  H   UNK     0      30.641  18.158   2.049  0.00  0.00     0.167 HD
ENDBRANCH  11  13
ENDBRANCH   2  11
TORSDOF 4
ENDMDL
MODEL 3
REMARK VINA RESULT:      -5.0      1.374      3.357
REMARK  4 active torsions:
REMARK  status: ('A' for Active; 'I' for Inactive)
REMARK    1  A    between atoms: O_1  and  C_5 
REMARK    2  A    between atoms: O_1  and  C_12 
REMARK    3  A    between atoms: O_2  and  C_11 
REMARK    4  A    between atoms: C_6  and  C_11 
ROOT
HETATM    1  C   UNK     0      31.802  16.636   0.302  0.00  0.00     0.096 A 
HETATM    2  C   UNK     0      30.631  17.146   0.864  0.00  0.00     0.071 A 
HETATM    3  C   UNK     0      32.968  17.401   0.305  0.00  0.00     0.038 A 
HETATM    4  C   UNK     0      30.627  18.421   1.429  0.00  0.00     0.021 A 
HETATM    5  C   UNK     0      32.964  18.677   0.870  0.00  0.00     0.003 A 
HETATM    6  C   UNK     0      31.793  19.187   1.431  0.00  0.00     0.001 A 
ENDROOT
BRANCH   1   7
HETATM    7  O   UNK     0      31.827  15.391  -0.253  0.00  0.00    -0.278 OA
BRANCH   7   8
HETATM    8  C   UNK     0      32.299  15.363  -1.574  0.00  0.00     0.260 C 
HETATM    9  O   UNK     0      33.402  14.972  -1.933  0.00  0.00    -0.265 OA
HETATM   10  C   UNK     0      31.249  15.892  -2.505  0.00  0.00     0.126 C 
ENDBRANCH   7   8
ENDBRANCH   1   7
BRANCH   2  11
HETATM   11  C   UNK     0      29.404  16.362   0.873  0.00  0.00     0.178 C 
HETATM   12  O   UNK     0      28.712  16.083  -0.102  0.00  0.00    -0.646 OA
BRANCH  11  13
HETATM   13  O   UNK     0      29.076  15.947   2.128  0.00  0.00    -0.773 OA
HETATM   14  H   UNK     0      28.626  15.075   2.118  0.00  0.00     0.167 HD
ENDBRANCH  11  13
ENDBRANCH   2  11
TORSDOF 4
ENDMDL
