MODEL 1
REMARK VINA RESULT:      -5.6      0.000      0.000
REMARK  4 active torsions:
REMARK  status: ('A' for Active; 'I' for Inactive)
REMARK    1  A    between atoms: O_1  and  C_5 
REMARK    2  A    between atoms: O_1  and  C_12 
REMARK    3  A    between atoms: O_2  and  C_11 
REMARK    4  A    between atoms: C_6  and  C_11 
ROOT
HETATM    1  C   UNK     0     -23.849  -2.546  18.965  0.00  0.00     0.096 A 
HETATM    2  C   UNK     0     -23.424  -2.254  17.669  0.00  0.00     0.071 A 
HETATM    3  C   UNK     0     -24.850  -1.779  19.560  0.00  0.00     0.038 A 
HETATM    4  C   UNK     0     -24.002  -1.195  16.968  0.00  0.00     0.021 A 
HETATM    5  C   UNK     0     -25.428  -0.720  18.859  0.00  0.00     0.003 A 
HETATM    6  C   UNK     0     -25.003  -0.428  17.563  0.00  0.00     0.001 A 
ENDROOT
BRANCH   1   7
HETATM    7  O   UNK     0     -23.299  -3.577  19.666  0.00  0.00    -0.278 OA
BRANCH   7   8
HETATM    8  C   UNK     0     -24.150  -4.683  19.819  0.00  0.00     0.260 C 
HETATM    9  O   UNK     0     -24.479  -5.462  18.934  0.00  0.00    -0.265 OA
HETATM   10  C   UNK     0     -24.615  -4.779  21.242  0.00  0.00     0.126 C 
ENDBRANCH   7   8
ENDBRANCH   1   7
BRANCH   2  11
HETATM   11  C   UNK     0     -22.381  -3.044  17.029  0.00  0.00     0.178 C 
HETATM   12  O   UNK     0     -21.217  -2.701  16.848  0.00  0.00    -0.646 OA
BRANCH  11  13
HETATM   13  O   UNK     0     -22.842  -4.261  16.627  0.00  0.00    -0.773 OA
HETATM   14  H   UNK     0     -23.458  -4.653  17.282  0.00  0.00     0.167 HD
ENDBRANCH  11  13
ENDBRANCH   2  11
TORSDOF 4
ENDMDL
MODEL 2
REMARK VINA RESULT:      -5.6      1.884      3.024
REMARK  4 active torsions:
REMARK  status: ('A' for Active; 'I' for Inactive)
REMARK    1  A    between atoms: O_1  and  C_5 
REMARK    2  A    between atoms: O_1  and  C_12 
REMARK    3  A    between atoms: O_2  and  C_11 
REMARK    4  A    between atoms: C_6  and  C_11 
ROOT
HETATM    1  C   UNK     0     -24.643  -2.557  19.421  0.00  0.00     0.096 A 
HETATM    2  C   UNK     0     -23.955  -3.592  18.786  0.00  0.00     0.071 A 
HETATM    3  C   UNK     0     -24.841  -1.344  18.763  0.00  0.00     0.038 A 
HETATM    4  C   UNK     0     -23.466  -3.412  17.492  0.00  0.00     0.021 A 
HETATM    5  C   UNK     0     -24.353  -1.164  17.469  0.00  0.00     0.003 A 
HETATM    6  C   UNK     0     -23.665  -2.198  16.833  0.00  0.00     0.001 A 
ENDROOT
BRANCH   1   7
HETATM    7  O   UNK     0     -25.130  -2.713  20.685  0.00  0.00    -0.278 OA
BRANCH   7   8
HETATM    8  C   UNK     0     -26.531  -2.679  20.766  0.00  0.00     0.260 C 
HETATM    9  O   UNK     0     -27.213  -1.681  20.958  0.00  0.00    -0.265 OA
HETATM   10  C   UNK     0     -27.089  -4.059  20.584  0.00  0.00     0.126 C 
ENDBRANCH   7   8
ENDBRANCH   1   7
BRANCH   2  11
HETATM   11  C   UNK     0     -23.738  -4.867  19.456  0.00  0.00     0.178 C 
HETATM   12  O   UNK     0     -23.973  -5.979  18.993  0.00  0.00    -0.646 OA
BRANCH  11  13
HETATM   13  O   UNK     0     -23.228  -4.702  20.707  0.00  0.00    -0.773 OA
HETATM   14  H   UNK     0     -23.211  -3.758  20.973  0.00  0.00     0.167 HD
ENDBRANCH  11  13
ENDBRANCH   2  11
TORSDOF 4
ENDMDL
MODEL 3
REMARK VINA RESULT:      -5.5      2.090      3.339
REMARK  4 active torsions:
REMARK  status: ('A' for Active; 'I' for Inactive)
REMARK    1  A    between atoms: O_1  and  C_5 
REMARK    2  A    between atoms: O_1  and  C_12 
REMARK    3  A    between atoms: O_2  and  C_11 
REMARK    4  A    between atoms: C_6  and  C_11 
ROOT
HETATM    1  C   UNK     0     -24.862  -2.302  19.539  0.00  0.00     0.096 A 
HETATM    2  C   UNK     0     -24.276  -3.508  19.153  0.00  0.00     0.071 A 
HETATM    3  C   UNK     0     -24.851  -1.212  18.670  0.00  0.00     0.038 A 
HETATM    4  C   UNK     0     -23.680  -3.622  17.898  0.00  0.00     0.021 A 
HETATM    5  C   UNK     0     -24.255  -1.326  17.415  0.00  0.00     0.003 A 
HETATM    6  C   UNK     0     -23.669  -2.531  17.028  0.00  0.00     0.001 A 
ENDROOT
BRANCH   1   7
HETATM    7  O   UNK     0     -25.452  -2.171  20.761  0.00  0.00    -0.278 OA
BRANCH   7   8
HETATM    8  C   UNK     0     -26.850  -2.291  20.737  0.00  0.00     0.260 C 
HETATM    9  O   UNK     0     -27.477  -3.326  20.557  0.00  0.00    -0.265 OA
HETATM   10  C   UNK     0     -27.484  -0.951  20.964  0.00  0.00     0.126 C 
ENDBRANCH   7   8
ENDBRANCH   1   7
BRANCH   2  11
HETATM   11  C   UNK     0     -24.279  -4.660  20.045  0.00  0.00     0.178 C 
HETATM   12  O   UNK     0     -23.368  -5.002  20.793  0.00  0.00    -0.646 OA
BRANCH  11  13
HETATM   13  O   UNK     0     -25.445  -5.359  19.967  0.00  0.00    -0.773 OA
HETATM   14  H   UNK     0     -25.496  -6.060  20.652  0.00  0.00     0.167 HD
ENDBRANCH  11  13
ENDBRANCH   2  11
TORSDOF 4
ENDMDL
