MODEL 1
REMARK VINA RESULT:      -6.6      0.000      0.000
REMARK  4 active torsions:
REMARK  status: ('A' for Active; 'I' for Inactive)
REMARK    1  A    between atoms: O_1  and  C_5 
REMARK    2  A    between atoms: O_1  and  C_12 
REMARK    3  A    between atoms: O_2  and  C_11 
REMARK    4  A    between atoms: C_6  and  C_11 
ROOT
HETATM    1  C   UNK     0     164.239  -4.150 341.191  0.00  0.00     0.096 A 
HETATM    2  C   UNK     0     163.243  -3.304 340.704  0.00  0.00     0.071 A 
HETATM    3  C   UNK     0     165.445  -4.276 340.503  0.00  0.00     0.038 A 
HETATM    4  C   UNK     0     163.454  -2.583 339.529  0.00  0.00     0.021 A 
HETATM    5  C   UNK     0     165.657  -3.555 339.327  0.00  0.00     0.003 A 
HETATM    6  C   UNK     0     164.661  -2.709 338.840  0.00  0.00     0.001 A 
ENDROOT
BRANCH   1   7
HETATM    7  O   UNK     0     164.053  -4.861 342.339  0.00  0.00    -0.278 OA
BRANCH   7   8
HETATM    8  C   UNK     0     164.863  -4.446 343.407  0.00  0.00     0.260 C 
HETATM    9  O   UNK     0     164.923  -3.311 343.861  0.00  0.00    -0.265 OA
HETATM   10  C   UNK     0     165.664  -5.603 343.924  0.00  0.00     0.126 C 
ENDBRANCH   7   8
ENDBRANCH   1   7
BRANCH   2  11
HETATM   11  C   UNK     0     161.977  -3.157 341.408  0.00  0.00     0.178 C 
HETATM   12  O   UNK     0     160.866  -3.448 340.975  0.00  0.00    -0.646 OA
BRANCH  11  13
HETATM   13  O   UNK     0     162.148  -2.638 342.656  0.00  0.00    -0.773 OA
HETATM   14  H   UNK     0     161.959  -3.299 343.355  0.00  0.00     0.167 HD
ENDBRANCH  11  13
ENDBRANCH   2  11
TORSDOF 4
ENDMDL
MODEL 2
REMARK VINA RESULT:      -6.4      2.608      3.601
REMARK  4 active torsions:
REMARK  status: ('A' for Active; 'I' for Inactive)
REMARK    1  A    between atoms: O_1  and  C_5 
REMARK    2  A    between atoms: O_1  and  C_12 
REMARK    3  A    between atoms: O_2  and  C_11 
REMARK    4  A    between atoms: C_6  and  C_11 
ROOT
HETATM    1  C   UNK     0     166.193  -4.028 340.407  0.00  0.00     0.096 A 
HETATM    2  C   UNK     0     166.035  -2.973 341.306  0.00  0.00     0.071 A 
HETATM    3  C   UNK     0     165.668  -3.931 339.119  0.00  0.00     0.038 A 
HETATM    4  C   UNK     0     165.351  -1.821 340.915  0.00  0.00     0.021 A 
HETATM    5  C   UNK     0     164.985  -2.780 338.728  0.00  0.00     0.003 A 
HETATM    6  C   UNK     0     164.826  -1.725 339.626  0.00  0.00     0.001 A 
ENDROOT
BRANCH   1   7
HETATM    7  O   UNK     0     166.859  -5.161 340.768  0.00  0.00    -0.278 OA
BRANCH   7   8
HETATM    8  C   UNK     0     166.037  -6.291 340.898  0.00  0.00     0.260 C 
HETATM    9  O   UNK     0     165.017  -6.362 341.570  0.00  0.00    -0.265 OA
HETATM   10  C   UNK     0     166.592  -7.424 340.087  0.00  0.00     0.126 C 
ENDBRANCH   7   8
ENDBRANCH   1   7
BRANCH   2  11
HETATM   11  C   UNK     0     166.577  -3.053 342.655  0.00  0.00     0.178 C 
HETATM   12  O   UNK     0     165.931  -3.058 343.699  0.00  0.00    -0.646 OA
BRANCH  11  13
HETATM   13  O   UNK     0     167.937  -3.124 342.652  0.00  0.00    -0.773 OA
HETATM   14  H   UNK     0     168.290  -3.310 341.756  0.00  0.00     0.167 HD
ENDBRANCH  11  13
ENDBRANCH   2  11
TORSDOF 4
ENDMDL
MODEL 3
REMARK VINA RESULT:      -6.3      2.668      3.797
REMARK  4 active torsions:
REMARK  status: ('A' for Active; 'I' for Inactive)
REMARK    1  A    between atoms: O_1  and  C_5 
REMARK    2  A    between atoms: O_1  and  C_12 
REMARK    3  A    between atoms: O_2  and  C_11 
REMARK    4  A    between atoms: C_6  and  C_11 
ROOT
HETATM    1  C   UNK     0     167.369  -4.538 341.711  0.00  0.00     0.096 A 
HETATM    2  C   UNK     0     166.474  -4.811 340.675  0.00  0.00     0.071 A 
HETATM    3  C   UNK     0     168.287  -5.508 342.113  0.00  0.00     0.038 A 
HETATM    4  C   UNK     0     166.498  -6.054 340.043  0.00  0.00     0.021 A 
HETATM    5  C   UNK     0     168.311  -6.751 341.481  0.00  0.00     0.003 A 
HETATM    6  C   UNK     0     167.417  -7.025 340.446  0.00  0.00     0.001 A 
ENDROOT
BRANCH   1   7
HETATM    7  O   UNK     0     167.363  -3.329 342.340  0.00  0.00    -0.278 OA
BRANCH   7   8
HETATM    8  C   UNK     0     166.888  -3.373 343.660  0.00  0.00     0.260 C 
HETATM    9  O   UNK     0     165.753  -3.675 344.003  0.00  0.00    -0.265 OA
HETATM   10  C   UNK     0     167.982  -2.990 344.611  0.00  0.00     0.126 C 
ENDBRANCH   7   8
ENDBRANCH   1   7
BRANCH   2  11
HETATM   11  C   UNK     0     165.509  -3.812 340.239  0.00  0.00     0.178 C 
HETATM   12  O   UNK     0     165.487  -3.251 339.147  0.00  0.00    -0.646 OA
BRANCH  11  13
HETATM   13  O   UNK     0     164.587  -3.541 341.204  0.00  0.00    -0.773 OA
HETATM   14  H   UNK     0     164.682  -4.139 341.976  0.00  0.00     0.167 HD
ENDBRANCH  11  13
ENDBRANCH   2  11
TORSDOF 4
ENDMDL
