MODEL 1
REMARK VINA RESULT:      -6.3      0.000      0.000
REMARK  4 active torsions:
REMARK  status: ('A' for Active; 'I' for Inactive)
REMARK    1  A    between atoms: O_1  and  C_5 
REMARK    2  A    between atoms: O_1  and  C_12 
REMARK    3  A    between atoms: O_2  and  C_11 
REMARK    4  A    between atoms: C_6  and  C_11 
ROOT
HETATM    1  C   UNK     0     -13.633  29.731  -2.686  0.00  0.00     0.096 A 
HETATM    2  C   UNK     0     -12.760  30.771  -3.006  0.00  0.00     0.071 A 
HETATM    3  C   UNK     0     -14.052  28.842  -3.675  0.00  0.00     0.038 A 
HETATM    4  C   UNK     0     -12.307  30.922  -4.317  0.00  0.00     0.021 A 
HETATM    5  C   UNK     0     -13.599  28.992  -4.986  0.00  0.00     0.003 A 
HETATM    6  C   UNK     0     -12.727  30.032  -5.307  0.00  0.00     0.001 A 
ENDROOT
BRANCH   1   7
HETATM    7  O   UNK     0     -14.085  29.565  -1.411  0.00  0.00    -0.278 OA
BRANCH   7   8
HETATM    8  C   UNK     0     -15.480  29.645  -1.284  0.00  0.00     0.260 C 
HETATM    9  O   UNK     0     -16.268  28.722  -1.442  0.00  0.00    -0.265 OA
HETATM   10  C   UNK     0     -15.883  31.044  -0.923  0.00  0.00     0.126 C 
ENDBRANCH   7   8
ENDBRANCH   1   7
BRANCH   2  11
HETATM   11  C   UNK     0     -12.309  31.709  -1.988  0.00  0.00     0.178 C 
HETATM   12  O   UNK     0     -12.955  32.642  -1.521  0.00  0.00    -0.646 OA
BRANCH  11  13
HETATM   13  O   UNK     0     -11.037  31.443  -1.581  0.00  0.00    -0.773 OA
HETATM   14  H   UNK     0     -10.998  30.656  -0.995  0.00  0.00     0.167 HD
ENDBRANCH  11  13
ENDBRANCH   2  11
TORSDOF 4
ENDMDL
MODEL 2
REMARK VINA RESULT:      -6.0      1.456      3.495
REMARK  4 active torsions:
REMARK  status: ('A' for Active; 'I' for Inactive)
REMARK    1  A    between atoms: O_1  and  C_5 
REMARK    2  A    between atoms: O_1  and  C_12 
REMARK    3  A    between atoms: O_2  and  C_11 
REMARK    4  A    between atoms: C_6  and  C_11 
ROOT
HETATM    1  C   UNK     0     -14.067  29.989  -2.097  0.00  0.00     0.096 A 
HETATM    2  C   UNK     0     -13.833  31.255  -1.558  0.00  0.00     0.071 A 
HETATM    3  C   UNK     0     -15.287  29.352  -1.877  0.00  0.00     0.038 A 
HETATM    4  C   UNK     0     -14.821  31.882  -0.799  0.00  0.00     0.021 A 
HETATM    5  C   UNK     0     -16.275  29.979  -1.118  0.00  0.00     0.003 A 
HETATM    6  C   UNK     0     -16.042  31.244  -0.579  0.00  0.00     0.001 A 
ENDROOT
BRANCH   1   7
HETATM    7  O   UNK     0     -13.115  29.361  -2.843  0.00  0.00    -0.278 OA
BRANCH   7   8
HETATM    8  C   UNK     0     -13.254  29.552  -4.226  0.00  0.00     0.260 C 
HETATM    9  O   UNK     0     -13.234  30.629  -4.806  0.00  0.00    -0.265 OA
HETATM   10  C   UNK     0     -13.438  28.230  -4.911  0.00  0.00     0.126 C 
ENDBRANCH   7   8
ENDBRANCH   1   7
BRANCH   2  11
HETATM   11  C   UNK     0     -12.566  31.939  -1.778  0.00  0.00     0.178 C 
HETATM   12  O   UNK     0     -12.418  33.052  -2.272  0.00  0.00    -0.646 OA
BRANCH  11  13
HETATM   13  O   UNK     0     -11.507  31.190  -1.363  0.00  0.00    -0.773 OA
HETATM   14  H   UNK     0     -10.794  31.746  -0.982  0.00  0.00     0.167 HD
ENDBRANCH  11  13
ENDBRANCH   2  11
TORSDOF 4
ENDMDL
MODEL 3
REMARK VINA RESULT:      -5.9     30.643     32.163
REMARK  4 active torsions:
REMARK  status: ('A' for Active; 'I' for Inactive)
REMARK    1  A    between atoms: O_1  and  C_5 
REMARK    2  A    between atoms: O_1  and  C_12 
REMARK    3  A    between atoms: O_2  and  C_11 
REMARK    4  A    between atoms: C_6  and  C_11 
ROOT
HETATM    1  C   UNK     0      -8.778   0.364 -12.132  0.00  0.00     0.096 A 
HETATM    2  C   UNK     0      -8.261  -0.524 -13.076  0.00  0.00     0.071 A 
HETATM    3  C   UNK     0     -10.030   0.944 -12.333  0.00  0.00     0.038 A 
HETATM    4  C   UNK     0      -8.998  -0.832 -14.219  0.00  0.00     0.021 A 
HETATM    5  C   UNK     0     -10.767   0.636 -13.477  0.00  0.00     0.003 A 
HETATM    6  C   UNK     0     -10.251  -0.252 -14.420  0.00  0.00     0.001 A 
ENDROOT
BRANCH   1   7
HETATM    7  O   UNK     0      -8.075   0.677 -11.007  0.00  0.00    -0.278 OA
BRANCH   7   8
HETATM    8  C   UNK     0      -7.538   1.973 -11.009  0.00  0.00     0.260 C 
HETATM    9  O   UNK     0      -7.144   2.583 -11.994  0.00  0.00    -0.265 OA
HETATM   10  C   UNK     0      -7.511   2.520  -9.613  0.00  0.00     0.126 C 
ENDBRANCH   7   8
ENDBRANCH   1   7
BRANCH   2  11
HETATM   11  C   UNK     0      -6.956  -1.142 -12.884  0.00  0.00     0.178 C 
HETATM   12  O   UNK     0      -6.740  -2.331 -12.671  0.00  0.00    -0.646 OA
BRANCH  11  13
HETATM   13  O   UNK     0      -5.947  -0.232 -12.967  0.00  0.00    -0.773 OA
HETATM   14  H   UNK     0      -5.604   0.014 -12.081  0.00  0.00     0.167 HD
ENDBRANCH  11  13
ENDBRANCH   2  11
TORSDOF 4
ENDMDL
