MODEL 1
REMARK VINA RESULT:      -6.3      0.000      0.000
REMARK  4 active torsions:
REMARK  status: ('A' for Active; 'I' for Inactive)
REMARK    1  A    between atoms: O_1  and  C_5 
REMARK    2  A    between atoms: O_1  and  C_12 
REMARK    3  A    between atoms: O_2  and  C_11 
REMARK    4  A    between atoms: C_6  and  C_11 
ROOT
HETATM    1  C   UNK     0     -24.184   5.382  16.832  0.00  0.00     0.096 A 
HETATM    2  C   UNK     0     -23.498   6.538  16.457  0.00  0.00     0.071 A 
HETATM    3  C   UNK     0     -23.520   4.372  17.528  0.00  0.00     0.038 A 
HETATM    4  C   UNK     0     -22.149   6.682  16.779  0.00  0.00     0.021 A 
HETATM    5  C   UNK     0     -22.171   4.517  17.850  0.00  0.00     0.003 A 
HETATM    6  C   UNK     0     -21.485   5.672  17.475  0.00  0.00     0.001 A 
ENDROOT
BRANCH   1   7
HETATM    7  O   UNK     0     -25.503   5.222  16.530  0.00  0.00    -0.278 OA
BRANCH   7   8
HETATM    8  C   UNK     0     -26.362   5.338  17.634  0.00  0.00     0.260 C 
HETATM    9  O   UNK     0     -26.376   6.261  18.437  0.00  0.00    -0.265 OA
HETATM   10  C   UNK     0     -27.275   4.150  17.700  0.00  0.00     0.126 C 
ENDBRANCH   7   8
ENDBRANCH   1   7
BRANCH   2  11
HETATM   11  C   UNK     0     -24.173   7.605  15.732  0.00  0.00     0.178 C 
HETATM   12  O   UNK     0     -24.106   8.805  15.976  0.00  0.00    -0.646 OA
BRANCH  11  13
HETATM   13  O   UNK     0     -24.927   7.122  14.705  0.00  0.00    -0.773 OA
HETATM   14  H   UNK     0     -25.530   6.406  15.000  0.00  0.00     0.167 HD
ENDBRANCH  11  13
ENDBRANCH   2  11
TORSDOF 4
ENDMDL
MODEL 2
REMARK VINA RESULT:      -6.1      1.926      3.115
REMARK  4 active torsions:
REMARK  status: ('A' for Active; 'I' for Inactive)
REMARK    1  A    between atoms: O_1  and  C_5 
REMARK    2  A    between atoms: O_1  and  C_12 
REMARK    3  A    between atoms: O_2  and  C_11 
REMARK    4  A    between atoms: C_6  and  C_11 
ROOT
HETATM    1  C   UNK     0     -22.521   5.374  17.300  0.00  0.00     0.096 A 
HETATM    2  C   UNK     0     -23.093   6.458  16.633  0.00  0.00     0.071 A 
HETATM    3  C   UNK     0     -21.197   5.440  17.732  0.00  0.00     0.038 A 
HETATM    4  C   UNK     0     -22.340   7.609  16.401  0.00  0.00     0.021 A 
HETATM    5  C   UNK     0     -20.444   6.591  17.499  0.00  0.00     0.003 A 
HETATM    6  C   UNK     0     -21.015   7.675  16.833  0.00  0.00     0.001 A 
ENDROOT
BRANCH   1   7
HETATM    7  O   UNK     0     -23.241   4.241  17.539  0.00  0.00    -0.278 OA
BRANCH   7   8
HETATM    8  C   UNK     0     -22.618   3.064  17.098  0.00  0.00     0.260 C 
HETATM    9  O   UNK     0     -22.002   2.273  17.800  0.00  0.00    -0.265 OA
HETATM   10  C   UNK     0     -22.810   2.905  15.619  0.00  0.00     0.126 C 
ENDBRANCH   7   8
ENDBRANCH   1   7
BRANCH   2  11
HETATM   11  C   UNK     0     -24.475   6.410  16.176  0.00  0.00     0.178 C 
HETATM   12  O   UNK     0     -24.866   6.587  15.027  0.00  0.00    -0.646 OA
BRANCH  11  13
HETATM   13  O   UNK     0     -25.337   6.138  17.195  0.00  0.00    -0.773 OA
HETATM   14  H   UNK     0     -24.966   5.481  17.821  0.00  0.00     0.167 HD
ENDBRANCH  11  13
ENDBRANCH   2  11
TORSDOF 4
ENDMDL
MODEL 3
REMARK VINA RESULT:      -6.1      2.805      4.454
REMARK  4 active torsions:
REMARK  status: ('A' for Active; 'I' for Inactive)
REMARK    1  A    between atoms: O_1  and  C_5 
REMARK    2  A    between atoms: O_1  and  C_12 
REMARK    3  A    between atoms: O_2  and  C_11 
REMARK    4  A    between atoms: C_6  and  C_11 
ROOT
HETATM    1  C   UNK     0     -22.242   4.932  17.525  0.00  0.00     0.096 A 
HETATM    2  C   UNK     0     -21.099   4.661  18.278  0.00  0.00     0.071 A 
HETATM    3  C   UNK     0     -22.327   6.110  16.785  0.00  0.00     0.038 A 
HETATM    4  C   UNK     0     -20.041   5.569  18.290  0.00  0.00     0.021 A 
HETATM    5  C   UNK     0     -21.269   7.019  16.796  0.00  0.00     0.003 A 
HETATM    6  C   UNK     0     -20.126   6.749  17.549  0.00  0.00     0.001 A 
ENDROOT
BRANCH   1   7
HETATM    7  O   UNK     0     -23.286   4.055  17.498  0.00  0.00    -0.278 OA
BRANCH   7   8
HETATM    8  C   UNK     0     -23.591   3.568  16.218  0.00  0.00     0.260 C 
HETATM    9  O   UNK     0     -24.489   3.975  15.492  0.00  0.00    -0.265 OA
HETATM   10  C   UNK     0     -22.651   2.458  15.854  0.00  0.00     0.126 C 
ENDBRANCH   7   8
ENDBRANCH   1   7
BRANCH   2  11
HETATM   11  C   UNK     0     -20.990   3.434  19.056  0.00  0.00     0.178 C 
HETATM   12  O   UNK     0     -20.023   2.680  19.092  0.00  0.00    -0.646 OA
BRANCH  11  13
HETATM   13  O   UNK     0     -22.119   3.189  19.777  0.00  0.00    -0.773 OA
HETATM   14  H   UNK     0     -22.166   3.747  20.583  0.00  0.00     0.167 HD
ENDBRANCH  11  13
ENDBRANCH   2  11
TORSDOF 4
ENDMDL
