MODEL 1
REMARK VINA RESULT:      -5.9      0.000      0.000
REMARK  4 active torsions:
REMARK  status: ('A' for Active; 'I' for Inactive)
REMARK    1  A    between atoms: O_1  and  C_5 
REMARK    2  A    between atoms: O_1  and  C_12 
REMARK    3  A    between atoms: O_2  and  C_11 
REMARK    4  A    between atoms: C_6  and  C_11 
ROOT
HETATM    1  C   UNK     0     -17.683  36.602  40.997  0.00  0.00     0.096 A 
HETATM    2  C   UNK     0     -17.375  35.427  41.686  0.00  0.00     0.071 A 
HETATM    3  C   UNK     0     -17.383  36.713  39.640  0.00  0.00     0.038 A 
HETATM    4  C   UNK     0     -16.767  34.366  41.015  0.00  0.00     0.021 A 
HETATM    5  C   UNK     0     -16.775  35.652  38.970  0.00  0.00     0.003 A 
HETATM    6  C   UNK     0     -16.467  34.478  39.657  0.00  0.00     0.001 A 
ENDROOT
BRANCH   1   7
HETATM    7  O   UNK     0     -18.279  37.649  41.633  0.00  0.00    -0.278 OA
BRANCH   7   8
HETATM    8  C   UNK     0     -19.671  37.706  41.461  0.00  0.00     0.260 C 
HETATM    9  O   UNK     0     -20.255  37.870  40.398  0.00  0.00    -0.265 OA
HETATM   10  C   UNK     0     -20.358  37.539  42.783  0.00  0.00     0.126 C 
ENDBRANCH   7   8
ENDBRANCH   1   7
BRANCH   2  11
HETATM   11  C   UNK     0     -17.682  35.289  43.102  0.00  0.00     0.178 C 
HETATM   12  O   UNK     0     -18.523  34.543  43.594  0.00  0.00    -0.646 OA
BRANCH  11  13
HETATM   13  O   UNK     0     -16.912  36.109  43.870  0.00  0.00    -0.773 OA
HETATM   14  H   UNK     0     -16.261  35.603  44.404  0.00  0.00     0.167 HD
ENDBRANCH  11  13
ENDBRANCH   2  11
TORSDOF 4
ENDMDL
MODEL 2
REMARK VINA RESULT:      -5.7      1.849      2.983
REMARK  4 active torsions:
REMARK  status: ('A' for Active; 'I' for Inactive)
REMARK    1  A    between atoms: O_1  and  C_5 
REMARK    2  A    between atoms: O_1  and  C_12 
REMARK    3  A    between atoms: O_2  and  C_11 
REMARK    4  A    between atoms: C_6  and  C_11 
ROOT
HETATM    1  C   UNK     0     -17.565  36.109  42.007  0.00  0.00     0.096 A 
HETATM    2  C   UNK     0     -17.158  35.131  41.098  0.00  0.00     0.071 A 
HETATM    3  C   UNK     0     -18.357  37.174  41.577  0.00  0.00     0.038 A 
HETATM    4  C   UNK     0     -17.545  35.219  39.761  0.00  0.00     0.021 A 
HETATM    5  C   UNK     0     -18.744  37.261  40.240  0.00  0.00     0.003 A 
HETATM    6  C   UNK     0     -18.338  36.284  39.332  0.00  0.00     0.001 A 
ENDROOT
BRANCH   1   7
HETATM    7  O   UNK     0     -17.200  36.041  43.318  0.00  0.00    -0.278 OA
BRANCH   7   8
HETATM    8  C   UNK     0     -18.249  35.702  44.187  0.00  0.00     0.260 C 
HETATM    9  O   UNK     0     -18.945  34.698  44.112  0.00  0.00    -0.265 OA
HETATM   10  C   UNK     0     -18.406  36.760  45.238  0.00  0.00     0.126 C 
ENDBRANCH   7   8
ENDBRANCH   1   7
BRANCH   2  11
HETATM   11  C   UNK     0     -16.333  34.011  41.526  0.00  0.00     0.178 C 
HETATM   12  O   UNK     0     -15.127  33.883  41.337  0.00  0.00    -0.646 OA
BRANCH  11  13
HETATM   13  O   UNK     0     -17.060  33.069  42.189  0.00  0.00    -0.773 OA
HETATM   14  H   UNK     0     -16.635  32.807  43.033  0.00  0.00     0.167 HD
ENDBRANCH  11  13
ENDBRANCH   2  11
TORSDOF 4
ENDMDL
MODEL 3
REMARK VINA RESULT:      -5.7      0.995      3.000
REMARK  4 active torsions:
REMARK  status: ('A' for Active; 'I' for Inactive)
REMARK    1  A    between atoms: O_1  and  C_5 
REMARK    2  A    between atoms: O_1  and  C_12 
REMARK    3  A    between atoms: O_2  and  C_11 
REMARK    4  A    between atoms: C_6  and  C_11 
ROOT
HETATM    1  C   UNK     0     -17.213  35.647  41.978  0.00  0.00     0.096 A 
HETATM    2  C   UNK     0     -17.740  36.516  41.023  0.00  0.00     0.071 A 
HETATM    3  C   UNK     0     -16.431  34.563  41.579  0.00  0.00     0.038 A 
HETATM    4  C   UNK     0     -17.485  36.301  39.669  0.00  0.00     0.021 A 
HETATM    5  C   UNK     0     -16.176  34.348  40.225  0.00  0.00     0.003 A 
HETATM    6  C   UNK     0     -16.703  35.216  39.270  0.00  0.00     0.001 A 
ENDROOT
BRANCH   1   7
HETATM    7  O   UNK     0     -17.449  35.841  43.307  0.00  0.00    -0.278 OA
BRANCH   7   8
HETATM    8  C   UNK     0     -18.524  35.093  43.812  0.00  0.00     0.260 C 
HETATM    9  O   UNK     0     -18.625  33.874  43.783  0.00  0.00    -0.265 OA
HETATM   10  C   UNK     0     -19.555  36.010  44.400  0.00  0.00     0.126 C 
ENDBRANCH   7   8
ENDBRANCH   1   7
BRANCH   2  11
HETATM   11  C   UNK     0     -18.557  37.655  41.419  0.00  0.00     0.178 C 
HETATM   12  O   UNK     0     -19.736  37.839  41.131  0.00  0.00    -0.646 OA
BRANCH  11  13
HETATM   13  O   UNK     0     -17.856  38.544  42.175  0.00  0.00    -0.773 OA
HETATM   14  H   UNK     0     -17.084  38.907  41.690  0.00  0.00     0.167 HD
ENDBRANCH  11  13
ENDBRANCH   2  11
TORSDOF 4
ENDMDL
