MODEL 1
REMARK VINA RESULT:      -6.7      0.000      0.000
REMARK  4 active torsions:
REMARK  status: ('A' for Active; 'I' for Inactive)
REMARK    1  A    between atoms: O_1  and  C_5 
REMARK    2  A    between atoms: O_1  and  C_12 
REMARK    3  A    between atoms: O_2  and  C_11 
REMARK    4  A    between atoms: C_6  and  C_11 
ROOT
HETATM    1  C   UNK     0      10.196  10.606   1.512  0.00  0.00     0.096 A 
HETATM    2  C   UNK     0       9.682   9.875   0.440  0.00  0.00     0.071 A 
HETATM    3  C   UNK     0       9.456  10.733   2.687  0.00  0.00     0.038 A 
HETATM    4  C   UNK     0       8.429   9.272   0.545  0.00  0.00     0.021 A 
HETATM    5  C   UNK     0       8.203  10.130   2.793  0.00  0.00     0.003 A 
HETATM    6  C   UNK     0       7.689   9.399   1.721  0.00  0.00     0.001 A 
ENDROOT
BRANCH   1   7
HETATM    7  O   UNK     0      11.419  11.201   1.430  0.00  0.00    -0.278 OA
BRANCH   7   8
HETATM    8  C   UNK     0      11.375  12.603   1.441  0.00  0.00     0.260 C 
HETATM    9  O   UNK     0      10.835  13.310   0.600  0.00  0.00    -0.265 OA
HETATM   10  C   UNK     0      12.096  13.130   2.646  0.00  0.00     0.126 C 
ENDBRANCH   7   8
ENDBRANCH   1   7
BRANCH   2  11
HETATM   11  C   UNK     0      10.439   9.728  -0.796  0.00  0.00     0.178 C 
HETATM   12  O   UNK     0      10.791   8.671  -1.310  0.00  0.00    -0.646 OA
BRANCH  11  13
HETATM   13  O   UNK     0      10.736  10.934  -1.354  0.00  0.00    -0.773 OA
HETATM   14  H   UNK     0      10.917  10.856  -2.316  0.00  0.00     0.167 HD
ENDBRANCH  11  13
ENDBRANCH   2  11
TORSDOF 4
ENDMDL
MODEL 2
REMARK VINA RESULT:      -6.7      1.643      2.132
REMARK  4 active torsions:
REMARK  status: ('A' for Active; 'I' for Inactive)
REMARK    1  A    between atoms: O_1  and  C_5 
REMARK    2  A    between atoms: O_1  and  C_12 
REMARK    3  A    between atoms: O_2  and  C_11 
REMARK    4  A    between atoms: C_6  and  C_11 
ROOT
HETATM    1  C   UNK     0       9.179  10.896   2.776  0.00  0.00     0.096 A 
HETATM    2  C   UNK     0       8.541  10.456   1.615  0.00  0.00     0.071 A 
HETATM    3  C   UNK     0       8.910  10.278   3.997  0.00  0.00     0.038 A 
HETATM    4  C   UNK     0       7.635   9.397   1.678  0.00  0.00     0.021 A 
HETATM    5  C   UNK     0       8.004   9.220   4.059  0.00  0.00     0.003 A 
HETATM    6  C   UNK     0       7.367   8.779   2.899  0.00  0.00     0.001 A 
ENDROOT
BRANCH   1   7
HETATM    7  O   UNK     0      10.069  11.928   2.736  0.00  0.00    -0.278 OA
BRANCH   7   8
HETATM    8  C   UNK     0      11.413  11.525   2.765  0.00  0.00     0.260 C 
HETATM    9  O   UNK     0      11.815  10.385   2.958  0.00  0.00    -0.265 OA
HETATM   10  C   UNK     0      12.307  12.705   2.525  0.00  0.00     0.126 C 
ENDBRANCH   7   8
ENDBRANCH   1   7
BRANCH   2  11
HETATM   11  C   UNK     0       8.809  11.086   0.330  0.00  0.00     0.178 C 
HETATM   12  O   UNK     0       9.487  10.620  -0.580  0.00  0.00    -0.646 OA
BRANCH  11  13
HETATM   13  O   UNK     0       8.209  12.304   0.228  0.00  0.00    -0.773 OA
HETATM   14  H   UNK     0       8.755  13.015   0.627  0.00  0.00     0.167 HD
ENDBRANCH  11  13
ENDBRANCH   2  11
TORSDOF 4
ENDMDL
MODEL 3
REMARK VINA RESULT:      -6.6      2.916      3.957
REMARK  4 active torsions:
REMARK  status: ('A' for Active; 'I' for Inactive)
REMARK    1  A    between atoms: O_1  and  C_5 
REMARK    2  A    between atoms: O_1  and  C_12 
REMARK    3  A    between atoms: O_2  and  C_11 
REMARK    4  A    between atoms: C_6  and  C_11 
ROOT
HETATM    1  C   UNK     0       9.338   9.419   2.111  0.00  0.00     0.096 A 
HETATM    2  C   UNK     0       8.449   9.108   3.141  0.00  0.00     0.071 A 
HETATM    3  C   UNK     0      10.687   9.627   2.394  0.00  0.00     0.038 A 
HETATM    4  C   UNK     0       8.911   9.005   4.453  0.00  0.00     0.021 A 
HETATM    5  C   UNK     0      11.150   9.524   3.706  0.00  0.00     0.003 A 
HETATM    6  C   UNK     0      10.262   9.213   4.735  0.00  0.00     0.001 A 
ENDROOT
BRANCH   1   7
HETATM    7  O   UNK     0       8.906   9.522   0.822  0.00  0.00    -0.278 OA
BRANCH   7   8
HETATM    8  C   UNK     0       8.968  10.824   0.301  0.00  0.00     0.260 C 
HETATM    9  O   UNK     0       8.284  11.773   0.661  0.00  0.00    -0.265 OA
HETATM   10  C   UNK     0      10.005  10.894  -0.780  0.00  0.00     0.126 C 
ENDBRANCH   7   8
ENDBRANCH   1   7
BRANCH   2  11
HETATM   11  C   UNK     0       7.036   8.885   2.867  0.00  0.00     0.178 C 
HETATM   12  O   UNK     0       6.434   7.821   2.974  0.00  0.00    -0.646 OA
BRANCH  11  13
HETATM   13  O   UNK     0       6.412  10.025   2.459  0.00  0.00    -0.773 OA
HETATM   14  H   UNK     0       6.541  10.187   1.499  0.00  0.00     0.167 HD
ENDBRANCH  11  13
ENDBRANCH   2  11
TORSDOF 4
ENDMDL
