MODEL 1
REMARK VINA RESULT:      -8.4      0.000      0.000
REMARK  Name = C:\Users\Docking\Desktop\test protocol\1iep_ligandH.pdb
REMARK  8 active torsions:
REMARK  status: ('A' for Active; 'I' for Inactive)
REMARK    1  A    between atoms: _5  and  _11
REMARK    2  A    between atoms: _19  and  _21
REMARK    3  A    between atoms: _22  and  _66
REMARK    4  A    between atoms: _27  and  _30
REMARK    5  A    between atoms: _32  and  _33
REMARK    6  A    between atoms: _38  and  _43
REMARK    7  A    between atoms: _43  and  _46
REMARK    8  A    between atoms: _53  and  _55
REMARK                            x       y       z     vdW  Elec       q    Type
REMARK                         _______ _______ _______ _____ _____    ______ ____
ROOT
ATOM     10  C   UNL     1       6.890  -5.427  32.257  0.00  0.00    +0.038 A 
ATOM     11  C   UNL     1       7.097  -4.060  31.940  0.00  0.00    +0.047 A 
ATOM     12  C   UNL     1       5.979  -3.178  31.644  0.00  0.00    +0.035 A 
ATOM     32  C   UNL     1       4.661  -3.721  31.684  0.00  0.00    +0.024 A 
ATOM     33  C   UNL     1       4.432  -5.109  32.003  0.00  0.00    +0.007 A 
ATOM     34  C   UNL     1       5.532  -5.984  32.293  0.00  0.00    -0.029 A 
ATOM     35  C   UNL     1       5.228  -7.464  32.623  0.00  0.00    +0.045 C 
ENDROOT
BRANCH  10   9
ATOM      4  C   UNL     1       9.934  -7.537  35.309  0.00  0.00    +0.077 A 
ATOM      5  C   UNL     1       9.274  -6.972  36.451  0.00  0.00    +0.048 A 
ATOM      6  C   UNL     1       8.159  -6.139  36.209  0.00  0.00    +0.116 A 
ATOM      7  N   UNL     1       7.744  -5.895  34.918  0.00  0.00    -0.223 NA
ATOM      8  C   UNL     1       8.404  -6.454  33.839  0.00  0.00    +0.220 A 
ATOM      9  N   UNL     1       8.000  -6.229  32.532  0.00  0.00    -0.283 N 
ATOM     36  H   UNL     1       8.518  -6.653  31.764  0.00  0.00    +0.155 HD
ATOM     37  N   UNL     1       9.473  -7.252  34.044  0.00  0.00    -0.214 NA
BRANCH   4   3
ATOM      1  C   UNL     1      13.370  -9.090  36.353  0.00  0.00    +0.020 A 
ATOM      2  C   UNL     1      12.244  -8.186  36.301  0.00  0.00    +0.013 A 
ATOM      3  C   UNL     1      11.125  -8.440  35.402  0.00  0.00    +0.019 A 
ATOM     38  C   UNL     1      11.176  -9.627  34.562  0.00  0.00    +0.120 A 
ATOM     39  N   UNL     1      12.274 -10.479  34.632  0.00  0.00    -0.263 NA
ATOM     40  C   UNL     1      13.358 -10.244  35.492  0.00  0.00    +0.111 A 
ENDBRANCH   4   3
ENDBRANCH  10   9
BRANCH  12  13
ATOM     13  N   UNL     1       6.128  -1.784  31.308  0.00  0.00    -0.281 N 
ATOM     14  C   UNL     1       6.779  -0.798  32.032  0.00  0.00    +0.248 C 
ATOM     30  O   UNL     1       7.149  -0.922  33.190  0.00  0.00    -0.270 OA
ATOM     31  H   UNL     1       5.703  -1.488  30.429  0.00  0.00    +0.155 HD
BRANCH  14  15
ATOM     15  C   UNL     1       7.043   0.521  31.380  0.00  0.00    +0.037 A 
ATOM     16  C   UNL     1       6.476   1.760  31.918  0.00  0.00    +0.013 A 
ATOM     17  C   UNL     1       6.733   3.017  31.260  0.00  0.00    +0.005 A 
ATOM     18  C   UNL     1       7.562   3.040  30.057  0.00  0.00    -0.033 A 
ATOM     28  C   UNL     1       8.116   1.796  29.549  0.00  0.00    +0.005 A 
ATOM     29  C   UNL     1       7.866   0.562  30.190  0.00  0.00    +0.013 A 
BRANCH  18  19
ATOM     19  C   UNL     1       7.871   4.332  29.279  0.00  0.00    +0.119 C 
BRANCH  19  20
ATOM     20  N   UNL     1       8.794   4.223  28.110  0.00  0.00    -0.302 NA
ATOM     21  C   UNL     1       9.932   5.244  28.179  0.00  0.00    +0.066 C 
ATOM     22  C   UNL     1      10.901   5.101  26.961  0.00  0.00    -0.064 C 
ATOM     23  N   UNL     1      10.109   5.259  25.661  0.00  0.00    +0.379 N 
ATOM     24  C   UNL     1      11.027   5.182  24.515  0.00  0.00    -0.096 C 
ATOM     25  H   UNL     1       9.656   6.278  25.664  0.00  0.00    -0.082 HD
ATOM     26  C   UNL     1       8.974   4.249  25.586  0.00  0.00    -0.064 C 
ATOM     27  C   UNL     1       8.033   4.381  26.816  0.00  0.00    +0.066 C 
ENDBRANCH  19  20
ENDBRANCH  18  19
ENDBRANCH  14  15
ENDBRANCH  12  13
TORSDOF 6
ENDMDL
MODEL 2
REMARK VINA RESULT:      -8.2     11.899     18.392
REMARK  Name = C:\Users\Docking\Desktop\test protocol\1iep_ligandH.pdb
REMARK  8 active torsions:
REMARK  status: ('A' for Active; 'I' for Inactive)
REMARK    1  A    between atoms: _5  and  _11
REMARK    2  A    between atoms: _19  and  _21
REMARK    3  A    between atoms: _22  and  _66
REMARK    4  A    between atoms: _27  and  _30
REMARK    5  A    between atoms: _32  and  _33
REMARK    6  A    between atoms: _38  and  _43
REMARK    7  A    between atoms: _43  and  _46
REMARK    8  A    between atoms: _53  and  _55
REMARK                            x       y       z     vdW  Elec       q    Type
REMARK                         _______ _______ _______ _____ _____    ______ ____
ROOT
ATOM     10  C   UNL     1      20.762  -7.148  37.342  0.00  0.00    +0.038 A 
ATOM     11  C   UNL     1      21.802  -7.398  36.411  0.00  0.00    +0.047 A 
ATOM     12  C   UNL     1      23.075  -6.699  36.500  0.00  0.00    +0.035 A 
ATOM     32  C   UNL     1      23.255  -5.753  37.551  0.00  0.00    +0.024 A 
ATOM     33  C   UNL     1      22.207  -5.486  38.505  0.00  0.00    +0.007 A 
ATOM     34  C   UNL     1      20.949  -6.171  38.421  0.00  0.00    -0.029 A 
ATOM     35  C   UNL     1      19.859  -5.840  39.467  0.00  0.00    +0.045 C 
ENDROOT
BRANCH  10   9
ATOM      4  C   UNL     1      16.625  -8.069  35.088  0.00  0.00    +0.077 A 
ATOM      5  C   UNL     1      16.865  -7.051  34.106  0.00  0.00    +0.048 A 
ATOM      6  C   UNL     1      18.062  -6.308  34.221  0.00  0.00    +0.116 A 
ATOM      7  N   UNL     1      18.945  -6.573  35.245  0.00  0.00    -0.223 NA
ATOM      8  C   UNL     1      18.682  -7.560  36.176  0.00  0.00    +0.220 A 
ATOM      9  N   UNL     1      19.560  -7.848  37.210  0.00  0.00    -0.283 N 
ATOM     36  H   UNL     1      19.326  -8.579  37.881  0.00  0.00    +0.155 HD
ATOM     37  N   UNL     1      17.546  -8.282  36.090  0.00  0.00    -0.214 NA
BRANCH   4   3
ATOM      1  C   UNL     1      14.146 -11.028  34.458  0.00  0.00    +0.020 A 
ATOM      2  C   UNL     1      15.347 -10.225  34.415  0.00  0.00    +0.013 A 
ATOM      3  C   UNL     1      15.408  -8.940  35.099  0.00  0.00    +0.019 A 
ATOM     38  C   UNL     1      14.228  -8.493  35.824  0.00  0.00    +0.120 A 
ATOM     39  N   UNL     1      13.085  -9.287  35.846  0.00  0.00    -0.263 NA
ATOM     40  C   UNL     1      13.015 -10.525  35.190  0.00  0.00    +0.111 A 
ENDBRANCH   4   3
ENDBRANCH  10   9
BRANCH  12  13
ATOM     13  N   UNL     1      24.165  -6.906  35.579  0.00  0.00    -0.281 N 
ATOM     14  C   UNL     1      25.286  -7.701  35.751  0.00  0.00    +0.248 C 
ATOM     30  O   UNL     1      25.629  -8.191  36.817  0.00  0.00    -0.270 OA
ATOM     31  H   UNL     1      24.103  -6.405  34.692  0.00  0.00    +0.155 HD
BRANCH  14  15
ATOM     15  C   UNL     1      26.162  -7.979  34.572  0.00  0.00    +0.037 A 
ATOM     16  C   UNL     1      25.621  -8.577  33.349  0.00  0.00    +0.013 A 
ATOM     17  C   UNL     1      26.491  -8.852  32.232  0.00  0.00    +0.005 A 
ATOM     18  C   UNL     1      27.912  -8.526  32.334  0.00  0.00    -0.033 A 
ATOM     28  C   UNL     1      28.420  -7.928  33.558  0.00  0.00    +0.005 A 
ATOM     29  C   UNL     1      27.571  -7.659  34.654  0.00  0.00    +0.013 A 
BRANCH  18  19
ATOM     19  C   UNL     1      28.917  -8.803  31.201  0.00  0.00    +0.119 C 
BRANCH  19  20
ATOM     20  N   UNL     1      29.293 -10.227  30.954  0.00  0.00    -0.302 NA
ATOM     21  C   UNL     1      30.801 -10.396  30.750  0.00  0.00    +0.066 C 
ATOM     22  C   UNL     1      31.180 -11.894  30.515  0.00  0.00    -0.064 C 
ATOM     23  N   UNL     1      30.407 -12.430  29.308  0.00  0.00    +0.379 N 
ATOM     24  C   UNL     1      30.804 -13.821  29.050  0.00  0.00    -0.096 C 
ATOM     25  H   UNL     1      30.703 -11.823  28.421  0.00  0.00    -0.082 HD
ATOM     26  C   UNL     1      28.906 -12.264  29.501  0.00  0.00    -0.064 C 
ATOM     27  C   UNL     1      28.544 -10.775  29.763  0.00  0.00    +0.066 C 
ENDBRANCH  19  20
ENDBRANCH  18  19
ENDBRANCH  14  15
ENDBRANCH  12  13
TORSDOF 6
ENDMDL
MODEL 3
REMARK VINA RESULT:      -8.1      3.083      3.975
REMARK  Name = C:\Users\Docking\Desktop\test protocol\1iep_ligandH.pdb
REMARK  8 active torsions:
REMARK  status: ('A' for Active; 'I' for Inactive)
REMARK    1  A    between atoms: _5  and  _11
REMARK    2  A    between atoms: _19  and  _21
REMARK    3  A    between atoms: _22  and  _66
REMARK    4  A    between atoms: _27  and  _30
REMARK    5  A    between atoms: _32  and  _33
REMARK    6  A    between atoms: _38  and  _43
REMARK    7  A    between atoms: _43  and  _46
REMARK    8  A    between atoms: _53  and  _55
REMARK                            x       y       z     vdW  Elec       q    Type
REMARK                         _______ _______ _______ _____ _____    ______ ____
ROOT
ATOM     10  C   UNL     1       6.372  -5.296  33.531  0.00  0.00    +0.038 A 
ATOM     11  C   UNL     1       6.536  -4.069  32.838  0.00  0.00    +0.047 A 
ATOM     12  C   UNL     1       5.892  -2.851  33.302  0.00  0.00    +0.035 A 
ATOM     32  C   UNL     1       5.089  -2.917  34.478  0.00  0.00    +0.024 A 
ATOM     33  C   UNL     1       4.910  -4.156  35.194  0.00  0.00    +0.007 A 
ATOM     34  C   UNL     1       5.542  -5.361  34.739  0.00  0.00    -0.029 A 
ATOM     35  C   UNL     1       5.310  -6.662  35.543  0.00  0.00    +0.045 C 
ENDROOT
BRANCH  10   9
ATOM      4  C   UNL     1       6.556  -9.157  30.685  0.00  0.00    +0.077 A 
ATOM      5  C   UNL     1       5.251  -8.897  30.149  0.00  0.00    +0.048 A 
ATOM      6  C   UNL     1       4.563  -7.764  30.638  0.00  0.00    +0.116 A 
ATOM      7  N   UNL     1       5.146  -6.957  31.591  0.00  0.00    -0.223 NA
ATOM      8  C   UNL     1       6.406  -7.237  32.088  0.00  0.00    +0.220 A 
ATOM      9  N   UNL     1       7.015  -6.435  33.041  0.00  0.00    -0.283 N 
ATOM     36  H   UNL     1       7.942  -6.680  33.388  0.00  0.00    +0.155 HD
ATOM     37  N   UNL     1       7.083  -8.314  31.639  0.00  0.00    -0.214 NA
BRANCH   4   3
ATOM      1  C   UNL     1       8.755 -11.599  28.564  0.00  0.00    +0.020 A 
ATOM      2  C   UNL     1       7.935 -10.463  28.916  0.00  0.00    +0.013 A 
ATOM      3  C   UNL     1       7.410 -10.314  30.267  0.00  0.00    +0.019 A 
ATOM     38  C   UNL     1       7.735 -11.339  31.247  0.00  0.00    +0.120 A 
ATOM     39  N   UNL     1       8.526 -12.423  30.879  0.00  0.00    -0.263 NA
ATOM     40  C   UNL     1       9.036 -12.578  29.581  0.00  0.00    +0.111 A 
ENDBRANCH   4   3
ENDBRANCH  10   9
BRANCH  12  13
ATOM     13  N   UNL     1       6.015  -1.578  32.636  0.00  0.00    -0.281 N 
ATOM     14  C   UNL     1       6.724  -0.463  33.053  0.00  0.00    +0.248 C 
ATOM     30  O   UNL     1       7.188  -0.319  34.174  0.00  0.00    -0.270 OA
ATOM     31  H   UNL     1       5.520  -1.488  31.749  0.00  0.00    +0.155 HD
BRANCH  14  15
ATOM     15  C   UNL     1       6.936   0.660  32.090  0.00  0.00    +0.037 A 
ATOM     16  C   UNL     1       7.613   0.445  30.808  0.00  0.00    +0.013 A 
ATOM     17  C   UNL     1       7.819   1.549  29.905  0.00  0.00    +0.005 A 
ATOM     18  C   UNL     1       7.345   2.879  30.280  0.00  0.00    -0.033 A 
ATOM     28  C   UNL     1       6.672   3.063  31.555  0.00  0.00    +0.005 A 
ATOM     29  C   UNL     1       6.469   1.984  32.444  0.00  0.00    +0.013 A 
BRANCH  18  19
ATOM     19  C   UNL     1       7.541   4.119  29.388  0.00  0.00    +0.119 C 
BRANCH  19  20
ATOM     20  N   UNL     1       8.703   4.110  28.450  0.00  0.00    -0.302 NA
ATOM     21  C   UNL     1       9.430   5.458  28.424  0.00  0.00    +0.066 C 
ATOM     22  C   UNL     1      10.657   5.424  27.455  0.00  0.00    -0.064 C 
ATOM     23  N   UNL     1      10.185   5.035  26.053  0.00  0.00    +0.379 N 
ATOM     24  C   UNL     1      11.327   5.059  25.127  0.00  0.00    -0.096 C 
ATOM     25  H   UNL     1       9.458   5.810  25.714  0.00  0.00    -0.082 HD
ATOM     26  C   UNL     1       9.459   3.698  26.071  0.00  0.00    -0.064 C 
ATOM     27  C   UNL     1       8.259   3.733  27.059  0.00  0.00    +0.066 C 
ENDBRANCH  19  20
ENDBRANCH  18  19
ENDBRANCH  14  15
ENDBRANCH  12  13
TORSDOF 6
ENDMDL
MODEL 4
REMARK VINA RESULT:      -8.0      2.304      3.943
REMARK  Name = C:\Users\Docking\Desktop\test protocol\1iep_ligandH.pdb
REMARK  8 active torsions:
REMARK  status: ('A' for Active; 'I' for Inactive)
REMARK    1  A    between atoms: _5  and  _11
REMARK    2  A    between atoms: _19  and  _21
REMARK    3  A    between atoms: _22  and  _66
REMARK    4  A    between atoms: _27  and  _30
REMARK    5  A    between atoms: _32  and  _33
REMARK    6  A    between atoms: _38  and  _43
REMARK    7  A    between atoms: _43  and  _46
REMARK    8  A    between atoms: _53  and  _55
REMARK                            x       y       z     vdW  Elec       q    Type
REMARK                         _______ _______ _______ _____ _____    ______ ____
ROOT
ATOM     10  C   UNL     1       4.932  -1.603  33.277  0.00  0.00    +0.038 A 
ATOM     11  C   UNL     1       5.766  -0.869  32.396  0.00  0.00    +0.047 A 
ATOM     12  C   UNL     1       5.210   0.108  31.472  0.00  0.00    +0.035 A 
ATOM     32  C   UNL     1       3.800   0.313  31.474  0.00  0.00    +0.024 A 
ATOM     33  C   UNL     1       2.937  -0.425  32.362  0.00  0.00    +0.007 A 
ATOM     34  C   UNL     1       3.479  -1.391  33.274  0.00  0.00    -0.029 A 
ATOM     35  C   UNL     1       2.506  -2.159  34.199  0.00  0.00    +0.045 C 
ENDROOT
BRANCH  10   9
ATOM      4  C   UNL     1       7.096  -5.795  34.157  0.00  0.00    +0.077 A 
ATOM      5  C   UNL     1       7.028  -6.188  32.779  0.00  0.00    +0.048 A 
ATOM      6  C   UNL     1       6.422  -5.285  31.877  0.00  0.00    +0.116 A 
ATOM      7  N   UNL     1       5.924  -4.082  32.330  0.00  0.00    -0.223 NA
ATOM      8  C   UNL     1       6.005  -3.736  33.667  0.00  0.00    +0.220 A 
ATOM      9  N   UNL     1       5.519  -2.528  34.143  0.00  0.00    -0.283 N 
ATOM     36  H   UNL     1       5.590  -2.313  35.137  0.00  0.00    +0.155 HD
ATOM     37  N   UNL     1       6.578  -4.581  34.548  0.00  0.00    -0.214 NA
BRANCH   4   3
ATOM      1  C   UNL     1       8.505  -7.022  37.594  0.00  0.00    +0.020 A 
ATOM      2  C   UNL     1       7.908  -6.166  36.595  0.00  0.00    +0.013 A 
ATOM      3  C   UNL     1       7.710  -6.639  35.231  0.00  0.00    +0.019 A 
ATOM     38  C   UNL     1       8.131  -7.995  34.908  0.00  0.00    +0.120 A 
ATOM     39  N   UNL     1       8.705  -8.795  35.890  0.00  0.00    -0.263 NA
ATOM     40  C   UNL     1       8.901  -8.350  37.206  0.00  0.00    +0.111 A 
ENDBRANCH   4   3
ENDBRANCH  10   9
BRANCH  12  13
ATOM     13  N   UNL     1       6.007   0.877  30.548  0.00  0.00    -0.281 N 
ATOM     14  C   UNL     1       6.787   1.989  30.818  0.00  0.00    +0.248 C 
ATOM     30  O   UNL     1       6.750   2.623  31.863  0.00  0.00    -0.270 OA
ATOM     31  H   UNL     1       5.994   0.563  29.578  0.00  0.00    +0.155 HD
BRANCH  14  15
ATOM     15  C   UNL     1       7.736   2.476  29.772  0.00  0.00    +0.037 A 
ATOM     16  C   UNL     1       7.770   3.886  29.373  0.00  0.00    +0.013 A 
ATOM     17  C   UNL     1       8.684   4.326  28.349  0.00  0.00    +0.005 A 
ATOM     18  C   UNL     1       9.573   3.355  27.716  0.00  0.00    -0.033 A 
ATOM     28  C   UNL     1       9.522   1.963  28.134  0.00  0.00    +0.005 A 
ATOM     29  C   UNL     1       8.627   1.528  29.137  0.00  0.00    +0.013 A 
BRANCH  18  19
ATOM     19  C   UNL     1      10.565   3.732  26.600  0.00  0.00    +0.119 C 
BRANCH  19  20
ATOM     20  N   UNL     1      10.574   5.154  26.145  0.00  0.00    -0.302 NA
ATOM     21  C   UNL     1      10.429   5.272  24.626  0.00  0.00    +0.066 C 
ATOM     22  C   UNL     1      10.418   6.768  24.170  0.00  0.00    -0.064 C 
ATOM     23  N   UNL     1      11.700   7.453  24.646  0.00  0.00    +0.379 N 
ATOM     24  C   UNL     1      11.720   8.843  24.169  0.00  0.00    -0.096 C 
ATOM     25  H   UNL     1      12.561   6.922  24.177  0.00  0.00    -0.082 HD
ATOM     26  C   UNL     1      11.854   7.337  26.156  0.00  0.00    -0.064 C 
ATOM     27  C   UNL     1      11.834   5.848  26.601  0.00  0.00    +0.066 C 
ENDBRANCH  19  20
ENDBRANCH  18  19
ENDBRANCH  14  15
ENDBRANCH  12  13
TORSDOF 6
ENDMDL
MODEL 5
REMARK VINA RESULT:      -7.9      3.694      4.988
REMARK  Name = C:\Users\Docking\Desktop\test protocol\1iep_ligandH.pdb
REMARK  8 active torsions:
REMARK  status: ('A' for Active; 'I' for Inactive)
REMARK    1  A    between atoms: _5  and  _11
REMARK    2  A    between atoms: _19  and  _21
REMARK    3  A    between atoms: _22  and  _66
REMARK    4  A    between atoms: _27  and  _30
REMARK    5  A    between atoms: _32  and  _33
REMARK    6  A    between atoms: _38  and  _43
REMARK    7  A    between atoms: _43  and  _46
REMARK    8  A    between atoms: _53  and  _55
REMARK                            x       y       z     vdW  Elec       q    Type
REMARK                         _______ _______ _______ _____ _____    ______ ____
ROOT
ATOM     10  C   UNL     1       6.502  -3.618  33.023  0.00  0.00    +0.038 A 
ATOM     11  C   UNL     1       6.997  -2.716  32.046  0.00  0.00    +0.047 A 
ATOM     12  C   UNL     1       7.028  -1.283  32.293  0.00  0.00    +0.035 A 
ATOM     32  C   UNL     1       6.549  -0.803  33.546  0.00  0.00    +0.024 A 
ATOM     33  C   UNL     1       6.042  -1.705  34.550  0.00  0.00    +0.007 A 
ATOM     34  C   UNL     1       6.006  -3.120  34.311  0.00  0.00    -0.029 A 
ATOM     35  C   UNL     1       5.445  -4.040  35.420  0.00  0.00    +0.045 C 
ENDROOT
BRANCH  10   9
ATOM      4  C   UNL     1       5.376  -7.344  30.215  0.00  0.00    +0.077 A 
ATOM      5  C   UNL     1       4.721  -6.501  29.257  0.00  0.00    +0.048 A 
ATOM      6  C   UNL     1       4.690  -5.114  29.527  0.00  0.00    +0.116 A 
ATOM      7  N   UNL     1       5.274  -4.619  30.674  0.00  0.00    -0.223 NA
ATOM      8  C   UNL     1       5.895  -5.461  31.578  0.00  0.00    +0.220 A 
ATOM      9  N   UNL     1       6.495  -4.984  32.733  0.00  0.00    -0.283 N 
ATOM     36  H   UNL     1       6.937  -5.639  33.379  0.00  0.00    +0.155 HD
ATOM     37  N   UNL     1       5.937  -6.789  31.343  0.00  0.00    -0.214 NA
BRANCH   4   3
ATOM      1  C   UNL     1       4.650 -11.073  29.281  0.00  0.00    +0.020 A 
ATOM      2  C   UNL     1       4.488  -9.642  29.396  0.00  0.00    +0.013 A 
ATOM      3  C   UNL     1       5.494  -8.830  30.068  0.00  0.00    +0.019 A 
ATOM     38  C   UNL     1       6.662  -9.501  30.617  0.00  0.00    +0.120 A 
ATOM     39  N   UNL     1       6.791 -10.881  30.493  0.00  0.00    -0.263 NA
ATOM     40  C   UNL     1       5.828 -11.673  29.849  0.00  0.00    +0.111 A 
ENDBRANCH   4   3
ENDBRANCH  10   9
BRANCH  12  13
ATOM     13  N   UNL     1       7.512  -0.319  31.336  0.00  0.00    -0.281 N 
ATOM     14  C   UNL     1       6.811   0.719  30.744  0.00  0.00    +0.248 C 
ATOM     30  O   UNL     1       5.597   0.846  30.788  0.00  0.00    -0.270 OA
ATOM     31  H   UNL     1       8.490  -0.413  31.062  0.00  0.00    +0.155 HD
BRANCH  14  15
ATOM     15  C   UNL     1       7.568   1.759  29.983  0.00  0.00    +0.037 A 
ATOM     16  C   UNL     1       7.173   3.170  30.024  0.00  0.00    +0.013 A 
ATOM     17  C   UNL     1       7.909   4.150  29.267  0.00  0.00    +0.005 A 
ATOM     18  C   UNL     1       9.051   3.723  28.461  0.00  0.00    -0.033 A 
ATOM     28  C   UNL     1       9.424   2.318  28.442  0.00  0.00    +0.005 A 
ATOM     29  C   UNL     1       8.704   1.354  29.183  0.00  0.00    +0.013 A 
BRANCH  18  19
ATOM     19  C   UNL     1       9.881   4.697  27.605  0.00  0.00    +0.119 C 
BRANCH  19  20
ATOM     20  N   UNL     1       9.145   5.525  26.603  0.00  0.00    -0.302 NA
ATOM     21  C   UNL     1       8.773   4.720  25.355  0.00  0.00    +0.066 C 
ATOM     22  C   UNL     1       7.984   5.595  24.328  0.00  0.00    -0.064 C 
ATOM     23  N   UNL     1       8.823   6.818  23.953  0.00  0.00    +0.379 N 
ATOM     24  C   UNL     1       8.109   7.613  22.944  0.00  0.00    -0.096 C 
ATOM     25  H   UNL     1       9.767   6.450  23.488  0.00  0.00    -0.082 HD
ATOM     26  C   UNL     1       9.200   7.623  25.189  0.00  0.00    -0.064 C 
ATOM     27  C   UNL     1       9.958   6.736  26.216  0.00  0.00    +0.066 C 
ENDBRANCH  19  20
ENDBRANCH  18  19
ENDBRANCH  14  15
ENDBRANCH  12  13
TORSDOF 6
ENDMDL
