MODEL 1
REMARK VINA RESULT:      -8.4      0.000      0.000
REMARK  Name = C:\Users\Docking\Desktop\test protocol\1iep_ligandH.pdb
REMARK  8 active torsions:
REMARK  status: ('A' for Active; 'I' for Inactive)
REMARK    1  A    between atoms: _5  and  _11
REMARK    2  A    between atoms: _19  and  _21
REMARK    3  A    between atoms: _22  and  _66
REMARK    4  A    between atoms: _27  and  _30
REMARK    5  A    between atoms: _32  and  _33
REMARK    6  A    between atoms: _38  and  _43
REMARK    7  A    between atoms: _43  and  _46
REMARK    8  A    between atoms: _53  and  _55
REMARK                            x       y       z     vdW  Elec       q    Type
REMARK                         _______ _______ _______ _____ _____    ______ ____
ROOT
ATOM     10  C   UNL     1      20.749  -7.125  37.365  0.00  0.00    +0.038 A 
ATOM     11  C   UNL     1      21.782  -7.369  36.425  0.00  0.00    +0.047 A 
ATOM     12  C   UNL     1      23.061  -6.682  36.517  0.00  0.00    +0.035 A 
ATOM     32  C   UNL     1      23.254  -5.754  37.582  0.00  0.00    +0.024 A 
ATOM     33  C   UNL     1      22.214  -5.493  38.546  0.00  0.00    +0.007 A 
ATOM     34  C   UNL     1      20.949  -6.166  38.458  0.00  0.00    -0.029 A 
ATOM     35  C   UNL     1      19.868  -5.843  39.515  0.00  0.00    +0.045 C 
ENDROOT
BRANCH  10   9
ATOM      4  C   UNL     1      16.624  -8.026  35.082  0.00  0.00    +0.077 A 
ATOM      5  C   UNL     1      16.885  -7.022  34.090  0.00  0.00    +0.048 A 
ATOM      6  C   UNL     1      18.089  -6.291  34.208  0.00  0.00    +0.116 A 
ATOM      7  N   UNL     1      18.959  -6.554  35.244  0.00  0.00    -0.223 NA
ATOM      8  C   UNL     1      18.676  -7.528  36.184  0.00  0.00    +0.220 A 
ATOM      9  N   UNL     1      19.541  -7.813  37.229  0.00  0.00    -0.283 N 
ATOM     36  H   UNL     1      19.292  -8.534  37.907  0.00  0.00    +0.155 HD
ATOM     37  N   UNL     1      17.533  -8.238  36.094  0.00  0.00    -0.214 NA
BRANCH   4   3
ATOM      1  C   UNL     1      14.097 -10.933  34.404  0.00  0.00    +0.020 A 
ATOM      2  C   UNL     1      15.305 -10.142  34.362  0.00  0.00    +0.013 A 
ATOM      3  C   UNL     1      15.397  -8.884  35.091  0.00  0.00    +0.019 A 
ATOM     38  C   UNL     1      14.240  -8.450  35.859  0.00  0.00    +0.120 A 
ATOM     39  N   UNL     1      13.089  -9.232  35.880  0.00  0.00    -0.263 NA
ATOM     40  C   UNL     1      12.988 -10.444  35.181  0.00  0.00    +0.111 A 
ENDBRANCH   4   3
ENDBRANCH  10   9
BRANCH  12  13
ATOM     13  N   UNL     1      24.144  -6.883  35.587  0.00  0.00    -0.281 N 
ATOM     14  C   UNL     1      25.297  -7.630  35.771  0.00  0.00    +0.248 C 
ATOM     30  O   UNL     1      25.673  -8.067  36.848  0.00  0.00    -0.270 OA
ATOM     31  H   UNL     1      24.050  -6.419  34.684  0.00  0.00    +0.155 HD
BRANCH  14  15
ATOM     15  C   UNL     1      26.164  -7.921  34.589  0.00  0.00    +0.037 A 
ATOM     16  C   UNL     1      25.623  -8.562  33.388  0.00  0.00    +0.013 A 
ATOM     17  C   UNL     1      26.486  -8.846  32.269  0.00  0.00    +0.005 A 
ATOM     18  C   UNL     1      27.900  -8.488  32.346  0.00  0.00    -0.033 A 
ATOM     28  C   UNL     1      28.410  -7.848  33.547  0.00  0.00    +0.005 A 
ATOM     29  C   UNL     1      27.567  -7.569  34.646  0.00  0.00    +0.013 A 
BRANCH  18  19
ATOM     19  C   UNL     1      28.898  -8.774  31.208  0.00  0.00    +0.119 C 
BRANCH  19  20
ATOM     20  N   UNL     1      29.250 -10.202  30.950  0.00  0.00    -0.302 NA
ATOM     21  C   UNL     1      30.756 -10.394  30.744  0.00  0.00    +0.066 C 
ATOM     22  C   UNL     1      31.109 -11.897  30.498  0.00  0.00    -0.064 C 
ATOM     23  N   UNL     1      30.328 -12.410  29.287  0.00  0.00    +0.379 N 
ATOM     24  C   UNL     1      30.702 -13.806  29.018  0.00  0.00    -0.096 C 
ATOM     25  H   UNL     1      30.633 -11.801  28.405  0.00  0.00    -0.082 HD
ATOM     26  C   UNL     1      28.830 -12.220  29.482  0.00  0.00    -0.064 C 
ATOM     27  C   UNL     1      28.493 -10.728  29.755  0.00  0.00    +0.066 C 
ENDBRANCH  19  20
ENDBRANCH  18  19
ENDBRANCH  14  15
ENDBRANCH  12  13
TORSDOF 6
ENDMDL
MODEL 2
REMARK VINA RESULT:      -8.3     16.072     19.767
REMARK  Name = C:\Users\Docking\Desktop\test protocol\1iep_ligandH.pdb
REMARK  8 active torsions:
REMARK  status: ('A' for Active; 'I' for Inactive)
REMARK    1  A    between atoms: _5  and  _11
REMARK    2  A    between atoms: _19  and  _21
REMARK    3  A    between atoms: _22  and  _66
REMARK    4  A    between atoms: _27  and  _30
REMARK    5  A    between atoms: _32  and  _33
REMARK    6  A    between atoms: _38  and  _43
REMARK    7  A    between atoms: _43  and  _46
REMARK    8  A    between atoms: _53  and  _55
REMARK                            x       y       z     vdW  Elec       q    Type
REMARK                         _______ _______ _______ _____ _____    ______ ____
ROOT
ATOM     10  C   UNL     1       4.644  -0.632  32.499  0.00  0.00    +0.038 A 
ATOM     11  C   UNL     1       5.583   0.090  31.719  0.00  0.00    +0.047 A 
ATOM     12  C   UNL     1       5.153   1.124  30.790  0.00  0.00    +0.035 A 
ATOM     32  C   UNL     1       3.759   1.399  30.683  0.00  0.00    +0.024 A 
ATOM     33  C   UNL     1       2.790   0.674  31.468  0.00  0.00    +0.007 A 
ATOM     34  C   UNL     1       3.208  -0.349  32.384  0.00  0.00    -0.029 A 
ATOM     35  C   UNL     1       2.125  -1.098  33.195  0.00  0.00    +0.045 C 
ENDROOT
BRANCH  10   9
ATOM      4  C   UNL     1       6.624  -4.912  33.391  0.00  0.00    +0.077 A 
ATOM      5  C   UNL     1       6.709  -5.230  31.994  0.00  0.00    +0.048 A 
ATOM      6  C   UNL     1       6.225  -4.268  31.079  0.00  0.00    +0.116 A 
ATOM      7  N   UNL     1       5.699  -3.080  31.538  0.00  0.00    -0.223 NA
ATOM      8  C   UNL     1       5.630  -2.805  32.891  0.00  0.00    +0.220 A 
ATOM      9  N   UNL     1       5.112  -1.614  33.375  0.00  0.00    -0.283 N 
ATOM     36  H   UNL     1       5.072  -1.453  34.381  0.00  0.00    +0.155 HD
ATOM     37  N   UNL     1       6.084  -3.708  33.785  0.00  0.00    -0.214 NA
BRANCH   4   3
ATOM      1  C   UNL     1       8.678  -7.549  35.423  0.00  0.00    +0.020 A 
ATOM      2  C   UNL     1       8.264  -6.686  34.340  0.00  0.00    +0.013 A 
ATOM      3  C   UNL     1       7.096  -5.825  34.479  0.00  0.00    +0.019 A 
ATOM     38  C   UNL     1       6.364  -5.860  35.736  0.00  0.00    +0.120 A 
ATOM     39  N   UNL     1       6.785  -6.702  36.761  0.00  0.00    -0.263 NA
ATOM     40  C   UNL     1       7.907  -7.537  36.638  0.00  0.00    +0.111 A 
ENDBRANCH   4   3
ENDBRANCH  10   9
BRANCH  12  13
ATOM     13  N   UNL     1       6.060   1.884  29.966  0.00  0.00    -0.281 N 
ATOM     14  C   UNL     1       6.942   2.876  30.362  0.00  0.00    +0.248 C 
ATOM     30  O   UNL     1       6.932   3.412  31.460  0.00  0.00    -0.270 OA
ATOM     31  H   UNL     1       6.051   1.664  28.970  0.00  0.00    +0.155 HD
BRANCH  14  15
ATOM     15  C   UNL     1       7.975   3.352  29.393  0.00  0.00    +0.037 A 
ATOM     16  C   UNL     1       8.102   4.772  29.053  0.00  0.00    +0.013 A 
ATOM     17  C   UNL     1       9.096   5.202  28.102  0.00  0.00    +0.005 A 
ATOM     18  C   UNL     1       9.974   4.210  27.485  0.00  0.00    -0.033 A 
ATOM     28  C   UNL     1       9.830   2.809  27.845  0.00  0.00    +0.005 A 
ATOM     29  C   UNL     1       8.856   2.384  28.775  0.00  0.00    +0.013 A 
BRANCH  18  19
ATOM     19  C   UNL     1      11.049   4.576  26.445  0.00  0.00    +0.119 C 
BRANCH  19  20
ATOM     20  N   UNL     1      10.764   5.734  25.546  0.00  0.00    -0.302 NA
ATOM     21  C   UNL     1      10.751   5.326  24.070  0.00  0.00    +0.066 C 
ATOM     22  C   UNL     1      10.429   6.545  23.145  0.00  0.00    -0.064 C 
ATOM     23  N   UNL     1      11.454   7.653  23.391  0.00  0.00    +0.379 N 
ATOM     24  C   UNL     1      11.189   8.777  22.482  0.00  0.00    -0.096 C 
ATOM     25  H   UNL     1      12.461   7.244  23.140  0.00  0.00    -0.082 HD
ATOM     26  C   UNL     1      11.476   8.063  24.857  0.00  0.00    -0.064 C 
ATOM     27  C   UNL     1      11.767   6.838  25.769  0.00  0.00    +0.066 C 
ENDBRANCH  19  20
ENDBRANCH  18  19
ENDBRANCH  14  15
ENDBRANCH  12  13
TORSDOF 6
ENDMDL
MODEL 3
REMARK VINA RESULT:      -8.2     17.135     19.494
REMARK  Name = C:\Users\Docking\Desktop\test protocol\1iep_ligandH.pdb
REMARK  8 active torsions:
REMARK  status: ('A' for Active; 'I' for Inactive)
REMARK    1  A    between atoms: _5  and  _11
REMARK    2  A    between atoms: _19  and  _21
REMARK    3  A    between atoms: _22  and  _66
REMARK    4  A    between atoms: _27  and  _30
REMARK    5  A    between atoms: _32  and  _33
REMARK    6  A    between atoms: _38  and  _43
REMARK    7  A    between atoms: _43  and  _46
REMARK    8  A    between atoms: _53  and  _55
REMARK                            x       y       z     vdW  Elec       q    Type
REMARK                         _______ _______ _______ _____ _____    ______ ____
ROOT
ATOM     10  C   UNL     1       5.219  -4.553  32.945  0.00  0.00    +0.038 A 
ATOM     11  C   UNL     1       5.597  -3.306  32.386  0.00  0.00    +0.047 A 
ATOM     12  C   UNL     1       5.025  -2.059  32.872  0.00  0.00    +0.035 A 
ATOM     32  C   UNL     1       4.073  -2.121  33.930  0.00  0.00    +0.024 A 
ATOM     33  C   UNL     1       3.676  -3.380  34.509  0.00  0.00    +0.007 A 
ATOM     34  C   UNL     1       4.235  -4.613  34.033  0.00  0.00    -0.029 A 
ATOM     35  C   UNL     1       3.768  -5.934  34.686  0.00  0.00    +0.045 C 
ENDROOT
BRANCH  10   9
ATOM      4  C   UNL     1       5.359  -8.211  29.840  0.00  0.00    +0.077 A 
ATOM      5  C   UNL     1       4.159  -7.778  29.185  0.00  0.00    +0.048 A 
ATOM      6  C   UNL     1       3.532  -6.613  29.682  0.00  0.00    +0.116 A 
ATOM      7  N   UNL     1       4.075  -5.939  30.755  0.00  0.00    -0.223 NA
ATOM      8  C   UNL     1       5.233  -6.385  31.365  0.00  0.00    +0.220 A 
ATOM      9  N   UNL     1       5.800  -5.719  32.440  0.00  0.00    -0.283 N 
ATOM     36  H   UNL     1       6.651  -6.084  32.867  0.00  0.00    +0.155 HD
ATOM     37  N   UNL     1       5.849  -7.495  30.910  0.00  0.00    -0.214 NA
BRANCH   4   3
ATOM      1  C   UNL     1       8.030 -11.066  29.714  0.00  0.00    +0.020 A 
ATOM      2  C   UNL     1       7.313  -9.891  30.153  0.00  0.00    +0.013 A 
ATOM      3  C   UNL     1       6.139  -9.421  29.429  0.00  0.00    +0.019 A 
ATOM     38  C   UNL     1       5.712 -10.170  28.256  0.00  0.00    +0.120 A 
ATOM     39  N   UNL     1       6.423 -11.297  27.857  0.00  0.00    -0.263 NA
ATOM     40  C   UNL     1       7.555 -11.757  28.544  0.00  0.00    +0.111 A 
ENDBRANCH   4   3
ENDBRANCH  10   9
BRANCH  12  13
ATOM     13  N   UNL     1       5.365  -0.764  32.338  0.00  0.00    -0.281 N 
ATOM     14  C   UNL     1       6.419   0.058  32.703  0.00  0.00    +0.248 C 
ATOM     30  O   UNL     1       7.109  -0.104  33.698  0.00  0.00    -0.270 OA
ATOM     31  H   UNL     1       4.754  -0.409  31.602  0.00  0.00    +0.155 HD
BRANCH  14  15
ATOM     15  C   UNL     1       6.743   1.239  31.845  0.00  0.00    +0.037 A 
ATOM     16  C   UNL     1       6.331   2.592  32.228  0.00  0.00    +0.013 A 
ATOM     17  C   UNL     1       6.643   3.711  31.374  0.00  0.00    +0.005 A 
ATOM     18  C   UNL     1       7.372   3.481  30.130  0.00  0.00    -0.033 A 
ATOM     28  C   UNL     1       7.773   2.130  29.777  0.00  0.00    +0.005 A 
ATOM     29  C   UNL     1       7.469   1.030  30.611  0.00  0.00    +0.013 A 
BRANCH  18  19
ATOM     19  C   UNL     1       7.729   4.613  29.148  0.00  0.00    +0.119 C 
BRANCH  19  20
ATOM     20  N   UNL     1       8.649   4.277  28.021  0.00  0.00    -0.302 NA
ATOM     21  C   UNL     1       9.978   5.031  28.120  0.00  0.00    +0.066 C 
ATOM     22  C   UNL     1      10.937   4.650  26.946  0.00  0.00    -0.064 C 
ATOM     23  N   UNL     1      10.247   4.941  25.612  0.00  0.00    +0.379 N 
ATOM     24  C   UNL     1      11.168   4.639  24.507  0.00  0.00    -0.096 C 
ATOM     25  H   UNL     1      10.025   6.033  25.578  0.00  0.00    -0.082 HD
ATOM     26  C   UNL     1       8.924   4.197  25.507  0.00  0.00    -0.064 C 
ATOM     27  C   UNL     1       7.989   4.560  26.694  0.00  0.00    +0.066 C 
ENDBRANCH  19  20
ENDBRANCH  18  19
ENDBRANCH  14  15
ENDBRANCH  12  13
TORSDOF 6
ENDMDL
MODEL 4
REMARK VINA RESULT:      -8.0     17.793     19.638
REMARK  Name = C:\Users\Docking\Desktop\test protocol\1iep_ligandH.pdb
REMARK  8 active torsions:
REMARK  status: ('A' for Active; 'I' for Inactive)
REMARK    1  A    between atoms: _5  and  _11
REMARK    2  A    between atoms: _19  and  _21
REMARK    3  A    between atoms: _22  and  _66
REMARK    4  A    between atoms: _27  and  _30
REMARK    5  A    between atoms: _32  and  _33
REMARK    6  A    between atoms: _38  and  _43
REMARK    7  A    between atoms: _43  and  _46
REMARK    8  A    between atoms: _53  and  _55
REMARK                            x       y       z     vdW  Elec       q    Type
REMARK                         _______ _______ _______ _____ _____    ______ ____
ROOT
ATOM     10  C   UNL     1       6.534  -3.563  32.932  0.00  0.00    +0.038 A 
ATOM     11  C   UNL     1       7.032  -2.651  31.967  0.00  0.00    +0.047 A 
ATOM     12  C   UNL     1       7.047  -1.219  32.222  0.00  0.00    +0.035 A 
ATOM     32  C   UNL     1       6.549  -0.751  33.473  0.00  0.00    +0.024 A 
ATOM     33  C   UNL     1       6.038  -1.664  34.465  0.00  0.00    +0.007 A 
ATOM     34  C   UNL     1       6.018  -3.077  34.217  0.00  0.00    -0.029 A 
ATOM     35  C   UNL     1       5.453  -4.009  35.314  0.00  0.00    +0.045 C 
ENDROOT
BRANCH  10   9
ATOM      4  C   UNL     1       5.318  -7.303  30.181  0.00  0.00    +0.077 A 
ATOM      5  C   UNL     1       4.579  -6.472  29.275  0.00  0.00    +0.048 A 
ATOM      6  C   UNL     1       4.530  -5.089  29.556  0.00  0.00    +0.116 A 
ATOM      7  N   UNL     1       5.177  -4.585  30.664  0.00  0.00    -0.223 NA
ATOM      8  C   UNL     1       5.879  -5.414  31.519  0.00  0.00    +0.220 A 
ATOM      9  N   UNL     1       6.544  -4.928  32.634  0.00  0.00    -0.283 N 
ATOM     36  H   UNL     1       7.045  -5.573  33.244  0.00  0.00    +0.155 HD
ATOM     37  N   UNL     1       5.940  -6.739  31.272  0.00  0.00    -0.214 NA
BRANCH   4   3
ATOM      1  C   UNL     1       5.057 -10.949  28.787  0.00  0.00    +0.020 A 
ATOM      2  C   UNL     1       4.885  -9.519  28.899  0.00  0.00    +0.013 A 
ATOM      3  C   UNL     1       5.465  -8.784  30.017  0.00  0.00    +0.019 A 
ATOM     38  C   UNL     1       6.219  -9.533  31.011  0.00  0.00    +0.120 A 
ATOM     39  N   UNL     1       6.366 -10.910  30.877  0.00  0.00    -0.263 NA
ATOM     40  C   UNL     1       5.811 -11.627  29.807  0.00  0.00    +0.111 A 
ENDBRANCH   4   3
ENDBRANCH  10   9
BRANCH  12  13
ATOM     13  N   UNL     1       7.534  -0.244  31.278  0.00  0.00    -0.281 N 
ATOM     14  C   UNL     1       6.829   0.788  30.680  0.00  0.00    +0.248 C 
ATOM     30  O   UNL     1       5.613   0.900  30.706  0.00  0.00    -0.270 OA
ATOM     31  H   UNL     1       8.517  -0.325  31.017  0.00  0.00    +0.155 HD
BRANCH  14  15
ATOM     15  C   UNL     1       7.584   1.841  29.935  0.00  0.00    +0.037 A 
ATOM     16  C   UNL     1       7.221   3.256  30.042  0.00  0.00    +0.013 A 
ATOM     17  C   UNL     1       7.955   4.249  29.298  0.00  0.00    +0.005 A 
ATOM     18  C   UNL     1       9.062   3.830  28.442  0.00  0.00    -0.033 A 
ATOM     28  C   UNL     1       9.404   2.420  28.358  0.00  0.00    +0.005 A 
ATOM     29  C   UNL     1       8.686   1.443  29.084  0.00  0.00    +0.013 A 
BRANCH  18  19
ATOM     19  C   UNL     1       9.886   4.818  27.596  0.00  0.00    +0.119 C 
BRANCH  19  20
ATOM     20  N   UNL     1       9.147   5.646  26.597  0.00  0.00    -0.302 NA
ATOM     21  C   UNL     1       8.635   4.808  25.422  0.00  0.00    +0.066 C 
ATOM     22  C   UNL     1       7.845   5.685  24.398  0.00  0.00    -0.064 C 
ATOM     23  N   UNL     1       8.743   6.820  23.903  0.00  0.00    +0.379 N 
ATOM     24  C   UNL     1       8.022   7.613  22.897  0.00  0.00    -0.096 C 
ATOM     25  H   UNL     1       9.625   6.358  23.402  0.00  0.00    -0.082 HD
ATOM     26  C   UNL     1       9.258   7.657  25.065  0.00  0.00    -0.064 C 
ATOM     27  C   UNL     1      10.017   6.771  26.092  0.00  0.00    +0.066 C 
ENDBRANCH  19  20
ENDBRANCH  18  19
ENDBRANCH  14  15
ENDBRANCH  12  13
TORSDOF 6
ENDMDL
MODEL 5
REMARK VINA RESULT:      -8.0     18.628     20.536
REMARK  Name = C:\Users\Docking\Desktop\test protocol\1iep_ligandH.pdb
REMARK  8 active torsions:
REMARK  status: ('A' for Active; 'I' for Inactive)
REMARK    1  A    between atoms: _5  and  _11
REMARK    2  A    between atoms: _19  and  _21
REMARK    3  A    between atoms: _22  and  _66
REMARK    4  A    between atoms: _27  and  _30
REMARK    5  A    between atoms: _32  and  _33
REMARK    6  A    between atoms: _38  and  _43
REMARK    7  A    between atoms: _43  and  _46
REMARK    8  A    between atoms: _53  and  _55
REMARK                            x       y       z     vdW  Elec       q    Type
REMARK                         _______ _______ _______ _____ _____    ______ ____
ROOT
ATOM     10  C   UNL     1       4.948  -1.898  32.677  0.00  0.00    +0.038 A 
ATOM     11  C   UNL     1       5.346  -0.716  32.002  0.00  0.00    +0.047 A 
ATOM     12  C   UNL     1       6.364   0.162  32.558  0.00  0.00    +0.035 A 
ATOM     32  C   UNL     1       6.958  -0.196  33.803  0.00  0.00    +0.024 A 
ATOM     33  C   UNL     1       6.565  -1.393  34.503  0.00  0.00    +0.007 A 
ATOM     34  C   UNL     1       5.559  -2.262  33.961  0.00  0.00    -0.029 A 
ATOM     35  C   UNL     1       5.173  -3.529  34.759  0.00  0.00    +0.045 C 
ENDROOT
BRANCH  10   9
ATOM      4  C   UNL     1       3.563  -5.415  29.718  0.00  0.00    +0.077 A 
ATOM      5  C   UNL     1       4.906  -5.646  29.269  0.00  0.00    +0.048 A 
ATOM      6  C   UNL     1       5.923  -4.834  29.819  0.00  0.00    +0.116 A 
ATOM      7  N   UNL     1       5.609  -3.866  30.748  0.00  0.00    -0.223 NA
ATOM      8  C   UNL     1       4.304  -3.667  31.158  0.00  0.00    +0.220 A 
ATOM      9  N   UNL     1       3.966  -2.705  32.097  0.00  0.00    -0.283 N 
ATOM     36  H   UNL     1       2.991  -2.585  32.368  0.00  0.00    +0.155 HD
ATOM     37  N   UNL     1       3.314  -4.429  30.647  0.00  0.00    -0.214 NA
BRANCH   4   3
ATOM      1  C   UNL     1       0.016  -6.362  28.367  0.00  0.00    +0.020 A 
ATOM      2  C   UNL     1       1.129  -5.564  28.829  0.00  0.00    +0.013 A 
ATOM      3  C   UNL     1       2.380  -6.193  29.233  0.00  0.00    +0.019 A 
ATOM     38  C   UNL     1       2.474  -7.643  29.155  0.00  0.00    +0.120 A 
ATOM     39  N   UNL     1       1.386  -8.386  28.707  0.00  0.00    -0.263 NA
ATOM     40  C   UNL     1       0.176  -7.791  28.318  0.00  0.00    +0.111 A 
ENDBRANCH   4   3
ENDBRANCH  10   9
BRANCH  12  13
ATOM     13  N   UNL     1       6.802   1.379  31.922  0.00  0.00    -0.281 N 
ATOM     14  C   UNL     1       7.463   1.518  30.712  0.00  0.00    +0.248 C 
ATOM     30  O   UNL     1       7.970   0.595  30.092  0.00  0.00    -0.270 OA
ATOM     31  H   UNL     1       6.601   2.244  32.424  0.00  0.00    +0.155 HD
BRANCH  14  15
ATOM     15  C   UNL     1       7.593   2.880  30.112  0.00  0.00    +0.037 A 
ATOM     16  C   UNL     1       6.901   4.035  30.691  0.00  0.00    +0.013 A 
ATOM     17  C   UNL     1       7.030   5.335  30.083  0.00  0.00    +0.005 A 
ATOM     18  C   UNL     1       7.855   5.488  28.887  0.00  0.00    -0.033 A 
ATOM     28  C   UNL     1       8.534   4.327  28.336  0.00  0.00    +0.005 A 
ATOM     29  C   UNL     1       8.410   3.050  28.929  0.00  0.00    +0.013 A 
BRANCH  18  19
ATOM     19  C   UNL     1       8.031   6.833  28.159  0.00  0.00    +0.119 C 
BRANCH  19  20
ATOM     20  N   UNL     1       9.079   6.904  27.097  0.00  0.00    -0.302 NA
ATOM     21  C   UNL     1      10.384   7.515  27.617  0.00  0.00    +0.066 C 
ATOM     22  C   UNL     1      11.476   7.560  26.499  0.00  0.00    -0.064 C 
ATOM     23  N   UNL     1      10.946   8.353  25.304  0.00  0.00    +0.379 N 
ATOM     24  C   UNL     1      11.992   8.447  24.275  0.00  0.00    -0.096 C 
ATOM     25  H   UNL     1      10.724   9.387  25.656  0.00  0.00    -0.082 HD
ATOM     26  C   UNL     1       9.647   7.754  24.782  0.00  0.00    -0.064 C 
ATOM     27  C   UNL     1       8.578   7.686  25.908  0.00  0.00    +0.066 C 
ENDBRANCH  19  20
ENDBRANCH  18  19
ENDBRANCH  14  15
ENDBRANCH  12  13
TORSDOF 6
ENDMDL
