MODEL 1
REMARK VINA RESULT:      -8.5      0.000      0.000
REMARK  Name = C:\Users\Docking\Desktop\test protocol\1iep_ligandH.pdb
REMARK  8 active torsions:
REMARK  status: ('A' for Active; 'I' for Inactive)
REMARK    1  A    between atoms: _5  and  _11
REMARK    2  A    between atoms: _19  and  _21
REMARK    3  A    between atoms: _22  and  _66
REMARK    4  A    between atoms: _27  and  _30
REMARK    5  A    between atoms: _32  and  _33
REMARK    6  A    between atoms: _38  and  _43
REMARK    7  A    between atoms: _43  and  _46
REMARK    8  A    between atoms: _53  and  _55
REMARK                            x       y       z     vdW  Elec       q    Type
REMARK                         _______ _______ _______ _____ _____    ______ ____
ROOT
ATOM     10  C   UNL     1       6.868  -5.419  32.335  0.00  0.00    +0.038 A 
ATOM     11  C   UNL     1       7.072  -4.059  31.989  0.00  0.00    +0.047 A 
ATOM     12  C   UNL     1       5.949  -3.166  31.751  0.00  0.00    +0.035 A 
ATOM     32  C   UNL     1       4.630  -3.691  31.877  0.00  0.00    +0.024 A 
ATOM     33  C   UNL     1       4.404  -5.071  32.227  0.00  0.00    +0.007 A 
ATOM     34  C   UNL     1       5.508  -5.957  32.460  0.00  0.00    -0.029 A 
ATOM     35  C   UNL     1       5.206  -7.429  32.826  0.00  0.00    +0.045 C 
ENDROOT
BRANCH  10   9
ATOM      4  C   UNL     1      10.002  -7.621  35.227  0.00  0.00    +0.077 A 
ATOM      5  C   UNL     1       9.382  -7.085  36.405  0.00  0.00    +0.048 A 
ATOM      6  C   UNL     1       8.263  -6.241  36.222  0.00  0.00    +0.116 A 
ATOM      7  N   UNL     1       7.807  -5.961  34.952  0.00  0.00    -0.223 NA
ATOM      8  C   UNL     1       8.429  -6.493  33.838  0.00  0.00    +0.220 A 
ATOM      9  N   UNL     1       7.982  -6.232  32.552  0.00  0.00    -0.283 N 
ATOM     36  H   UNL     1       8.473  -6.638  31.755  0.00  0.00    +0.155 HD
ATOM     37  N   UNL     1       9.500  -7.301  33.986  0.00  0.00    -0.214 NA
BRANCH   4   3
ATOM      1  C   UNL     1      12.350 -10.712  34.744  0.00  0.00    +0.020 A 
ATOM      2  C   UNL     1      11.174  -9.873  34.690  0.00  0.00    +0.013 A 
ATOM      3  C   UNL     1      11.190  -8.531  35.257  0.00  0.00    +0.019 A 
ATOM     38  C   UNL     1      12.421  -8.063  35.875  0.00  0.00    +0.120 A 
ATOM     39  N   UNL     1      13.537  -8.893  35.914  0.00  0.00    -0.263 NA
ATOM     40  C   UNL     1      13.533 -10.187  35.373  0.00  0.00    +0.111 A 
ENDBRANCH   4   3
ENDBRANCH  10   9
BRANCH  12  13
ATOM     13  N   UNL     1       6.095  -1.778  31.389  0.00  0.00    -0.281 N 
ATOM     14  C   UNL     1       6.679  -0.762  32.128  0.00  0.00    +0.248 C 
ATOM     30  O   UNL     1       6.976  -0.850  33.310  0.00  0.00    -0.270 OA
ATOM     31  H   UNL     1       5.723  -1.512  30.477  0.00  0.00    +0.155 HD
BRANCH  14  15
ATOM     15  C   UNL     1       6.962   0.546  31.461  0.00  0.00    +0.037 A 
ATOM     16  C   UNL     1       6.426   1.801  31.993  0.00  0.00    +0.013 A 
ATOM     17  C   UNL     1       6.700   3.047  31.320  0.00  0.00    +0.005 A 
ATOM     18  C   UNL     1       7.515   3.042  30.108  0.00  0.00    -0.033 A 
ATOM     28  C   UNL     1       8.038   1.783  29.605  0.00  0.00    +0.005 A 
ATOM     29  C   UNL     1       7.771   0.560  30.261  0.00  0.00    +0.013 A 
BRANCH  18  19
ATOM     19  C   UNL     1       7.840   4.321  29.314  0.00  0.00    +0.119 C 
BRANCH  19  20
ATOM     20  N   UNL     1       8.777   4.189  28.158  0.00  0.00    -0.302 NA
ATOM     21  C   UNL     1       9.903   5.225  28.211  0.00  0.00    +0.066 C 
ATOM     22  C   UNL     1      10.887   5.058  27.007  0.00  0.00    -0.064 C 
ATOM     23  N   UNL     1      10.108   5.171  25.696  0.00  0.00    +0.379 N 
ATOM     24  C   UNL     1      11.039   5.072  24.562  0.00  0.00    -0.096 C 
ATOM     25  H   UNL     1       9.643   6.183  25.665  0.00  0.00    -0.082 HD
ATOM     26  C   UNL     1       8.984   4.145  25.637  0.00  0.00    -0.064 C 
ATOM     27  C   UNL     1       8.029   4.301  26.853  0.00  0.00    +0.066 C 
ENDBRANCH  19  20
ENDBRANCH  18  19
ENDBRANCH  14  15
ENDBRANCH  12  13
TORSDOF 6
ENDMDL
MODEL 2
REMARK VINA RESULT:      -8.3     11.692     18.334
REMARK  Name = C:\Users\Docking\Desktop\test protocol\1iep_ligandH.pdb
REMARK  8 active torsions:
REMARK  status: ('A' for Active; 'I' for Inactive)
REMARK    1  A    between atoms: _5  and  _11
REMARK    2  A    between atoms: _19  and  _21
REMARK    3  A    between atoms: _22  and  _66
REMARK    4  A    between atoms: _27  and  _30
REMARK    5  A    between atoms: _32  and  _33
REMARK    6  A    between atoms: _38  and  _43
REMARK    7  A    between atoms: _43  and  _46
REMARK    8  A    between atoms: _53  and  _55
REMARK                            x       y       z     vdW  Elec       q    Type
REMARK                         _______ _______ _______ _____ _____    ______ ____
ROOT
ATOM     10  C   UNL     1      20.724  -7.208  37.305  0.00  0.00    +0.038 A 
ATOM     11  C   UNL     1      21.769  -7.436  36.373  0.00  0.00    +0.047 A 
ATOM     12  C   UNL     1      23.026  -6.709  36.458  0.00  0.00    +0.035 A 
ATOM     32  C   UNL     1      23.186  -5.758  37.508  0.00  0.00    +0.024 A 
ATOM     33  C   UNL     1      22.134  -5.512  38.463  0.00  0.00    +0.007 A 
ATOM     34  C   UNL     1      20.891  -6.225  38.382  0.00  0.00    -0.029 A 
ATOM     35  C   UNL     1      19.796  -5.916  39.429  0.00  0.00    +0.045 C 
ENDROOT
BRANCH  10   9
ATOM      4  C   UNL     1      16.544  -8.136  35.136  0.00  0.00    +0.077 A 
ATOM      5  C   UNL     1      16.726  -7.067  34.198  0.00  0.00    +0.048 A 
ATOM      6  C   UNL     1      17.905  -6.297  34.312  0.00  0.00    +0.116 A 
ATOM      7  N   UNL     1      18.827  -6.584  35.294  0.00  0.00    -0.223 NA
ATOM      8  C   UNL     1      18.620  -7.622  36.185  0.00  0.00    +0.220 A 
ATOM      9  N   UNL     1      19.538  -7.934  37.176  0.00  0.00    -0.283 N 
ATOM     36  H   UNL     1      19.345  -8.703  37.818  0.00  0.00    +0.155 HD
ATOM     37  N   UNL     1      17.502  -8.371  36.098  0.00  0.00    -0.214 NA
BRANCH   4   3
ATOM      1  C   UNL     1      12.965  -9.590  35.748  0.00  0.00    +0.020 A 
ATOM      2  C   UNL     1      14.086  -8.680  35.771  0.00  0.00    +0.013 A 
ATOM      3  C   UNL     1      15.351  -9.041  35.143  0.00  0.00    +0.019 A 
ATOM     38  C   UNL     1      15.448 -10.340  34.494  0.00  0.00    +0.120 A 
ATOM     39  N   UNL     1      14.352 -11.196  34.490  0.00  0.00    -0.263 NA
ATOM     40  C   UNL     1      13.130 -10.861  35.092  0.00  0.00    +0.111 A 
ENDBRANCH   4   3
ENDBRANCH  10   9
BRANCH  12  13
ATOM     13  N   UNL     1      24.119  -6.893  35.536  0.00  0.00    -0.281 N 
ATOM     14  C   UNL     1      25.317  -7.552  35.756  0.00  0.00    +0.248 C 
ATOM     30  O   UNL     1      25.721  -7.903  36.854  0.00  0.00    -0.270 OA
ATOM     31  H   UNL     1      23.994  -6.487  34.608  0.00  0.00    +0.155 HD
BRANCH  14  15
ATOM     15  C   UNL     1      26.200  -7.854  34.588  0.00  0.00    +0.037 A 
ATOM     16  C   UNL     1      25.684  -8.543  33.403  0.00  0.00    +0.013 A 
ATOM     17  C   UNL     1      26.561  -8.837  32.298  0.00  0.00    +0.005 A 
ATOM     18  C   UNL     1      27.965  -8.439  32.372  0.00  0.00    -0.033 A 
ATOM     28  C   UNL     1      28.449  -7.751  33.558  0.00  0.00    +0.005 A 
ATOM     29  C   UNL     1      27.593  -7.463  34.644  0.00  0.00    +0.013 A 
BRANCH  18  19
ATOM     19  C   UNL     1      28.978  -8.730  31.249  0.00  0.00    +0.119 C 
BRANCH  19  20
ATOM     20  N   UNL     1      29.296 -10.162  30.969  0.00  0.00    -0.302 NA
ATOM     21  C   UNL     1      30.784 -10.374  30.677  0.00  0.00    +0.066 C 
ATOM     22  C   UNL     1      31.102 -11.881  30.409  0.00  0.00    -0.064 C 
ATOM     23  N   UNL     1      30.245 -12.381  29.245  0.00  0.00    +0.379 N 
ATOM     24  C   UNL     1      30.584 -13.782  28.952  0.00  0.00    -0.096 C 
ATOM     25  H   UNL     1      30.508 -11.775  28.347  0.00  0.00    -0.082 HD
ATOM     26  C   UNL     1      28.764 -12.172  29.526  0.00  0.00    -0.064 C 
ATOM     27  C   UNL     1      28.463 -10.676  29.820  0.00  0.00    +0.066 C 
ENDBRANCH  19  20
ENDBRANCH  18  19
ENDBRANCH  14  15
ENDBRANCH  12  13
TORSDOF 6
ENDMDL
MODEL 3
REMARK VINA RESULT:      -8.1      3.513      4.461
REMARK  Name = C:\Users\Docking\Desktop\test protocol\1iep_ligandH.pdb
REMARK  8 active torsions:
REMARK  status: ('A' for Active; 'I' for Inactive)
REMARK    1  A    between atoms: _5  and  _11
REMARK    2  A    between atoms: _19  and  _21
REMARK    3  A    between atoms: _22  and  _66
REMARK    4  A    between atoms: _27  and  _30
REMARK    5  A    between atoms: _32  and  _33
REMARK    6  A    between atoms: _38  and  _43
REMARK    7  A    between atoms: _43  and  _46
REMARK    8  A    between atoms: _53  and  _55
REMARK                            x       y       z     vdW  Elec       q    Type
REMARK                         _______ _______ _______ _____ _____    ______ ____
ROOT
ATOM     10  C   UNL     1       5.608  -4.675  32.989  0.00  0.00    +0.038 A 
ATOM     11  C   UNL     1       5.908  -3.418  32.404  0.00  0.00    +0.047 A 
ATOM     12  C   UNL     1       5.343  -2.187  32.935  0.00  0.00    +0.035 A 
ATOM     32  C   UNL     1       4.478  -2.273  34.065  0.00  0.00    +0.024 A 
ATOM     33  C   UNL     1       4.162  -3.542  34.671  0.00  0.00    +0.007 A 
ATOM     34  C   UNL     1       4.714  -4.760  34.150  0.00  0.00    -0.029 A 
ATOM     35  C   UNL     1       4.335  -6.093  34.836  0.00  0.00    +0.045 C 
ENDROOT
BRANCH  10   9
ATOM      4  C   UNL     1       5.540  -8.401  29.964  0.00  0.00    +0.077 A 
ATOM      5  C   UNL     1       4.247  -8.041  29.456  0.00  0.00    +0.048 A 
ATOM      6  C   UNL     1       3.630  -6.894  30.005  0.00  0.00    +0.116 A 
ATOM      7  N   UNL     1       4.269  -6.169  30.988  0.00  0.00    -0.223 NA
ATOM      8  C   UNL     1       5.514  -6.544  31.456  0.00  0.00    +0.220 A 
ATOM      9  N   UNL     1       6.178  -5.825  32.438  0.00  0.00    -0.283 N 
ATOM     36  H   UNL     1       7.092  -6.139  32.762  0.00  0.00    +0.155 HD
ATOM     37  N   UNL     1       6.123  -7.636  30.949  0.00  0.00    -0.214 NA
BRANCH   4   3
ATOM      1  C   UNL     1       8.248 -11.204  29.636  0.00  0.00    +0.020 A 
ATOM      2  C   UNL     1       7.531 -10.056  30.142  0.00  0.00    +0.013 A 
ATOM      3  C   UNL     1       6.320  -9.584  29.482  0.00  0.00    +0.019 A 
ATOM     38  C   UNL     1       5.857 -10.302  28.304  0.00  0.00    +0.120 A 
ATOM     39  N   UNL     1       6.569 -11.403  27.839  0.00  0.00    -0.263 NA
ATOM     40  C   UNL     1       7.736 -11.866  28.464  0.00  0.00    +0.111 A 
ENDBRANCH   4   3
ENDBRANCH  10   9
BRANCH  12  13
ATOM     13  N   UNL     1       5.605  -0.883  32.379  0.00  0.00    -0.281 N 
ATOM     14  C   UNL     1       6.605   0.008  32.731  0.00  0.00    +0.248 C 
ATOM     30  O   UNL     1       7.301  -0.094  33.730  0.00  0.00    -0.270 OA
ATOM     31  H   UNL     1       4.976  -0.580  31.635  0.00  0.00    +0.155 HD
BRANCH  14  15
ATOM     15  C   UNL     1       6.861   1.190  31.853  0.00  0.00    +0.037 A 
ATOM     16  C   UNL     1       6.394   2.528  32.225  0.00  0.00    +0.013 A 
ATOM     17  C   UNL     1       6.639   3.649  31.352  0.00  0.00    +0.005 A 
ATOM     18  C   UNL     1       7.357   3.436  30.098  0.00  0.00    -0.033 A 
ATOM     28  C   UNL     1       7.814   2.099  29.756  0.00  0.00    +0.005 A 
ATOM     29  C   UNL     1       7.575   0.998  30.609  0.00  0.00    +0.013 A 
BRANCH  18  19
ATOM     19  C   UNL     1       7.645   4.569  29.096  0.00  0.00    +0.119 C 
BRANCH  19  20
ATOM     20  N   UNL     1       8.615   4.282  27.998  0.00  0.00    -0.302 NA
ATOM     21  C   UNL     1       9.886   5.126  28.118  0.00  0.00    +0.066 C 
ATOM     22  C   UNL     1      10.900   4.796  26.974  0.00  0.00    -0.064 C 
ATOM     23  N   UNL     1      10.226   5.022  25.620  0.00  0.00    +0.379 N 
ATOM     24  C   UNL     1      11.194   4.768  24.542  0.00  0.00    -0.096 C 
ATOM     25  H   UNL     1       9.931   6.095  25.563  0.00  0.00    -0.082 HD
ATOM     26  C   UNL     1       8.960   4.187  25.492  0.00  0.00    -0.064 C 
ATOM     27  C   UNL     1       7.972   4.502  26.650  0.00  0.00    +0.066 C 
ENDBRANCH  19  20
ENDBRANCH  18  19
ENDBRANCH  14  15
ENDBRANCH  12  13
TORSDOF 6
ENDMDL
MODEL 4
REMARK VINA RESULT:      -8.0      4.011      5.359
REMARK  Name = C:\Users\Docking\Desktop\test protocol\1iep_ligandH.pdb
REMARK  8 active torsions:
REMARK  status: ('A' for Active; 'I' for Inactive)
REMARK    1  A    between atoms: _5  and  _11
REMARK    2  A    between atoms: _19  and  _21
REMARK    3  A    between atoms: _22  and  _66
REMARK    4  A    between atoms: _27  and  _30
REMARK    5  A    between atoms: _32  and  _33
REMARK    6  A    between atoms: _38  and  _43
REMARK    7  A    between atoms: _43  and  _46
REMARK    8  A    between atoms: _53  and  _55
REMARK                            x       y       z     vdW  Elec       q    Type
REMARK                         _______ _______ _______ _____ _____    ______ ____
ROOT
ATOM     10  C   UNL     1       6.589  -3.358  32.615  0.00  0.00    +0.038 A 
ATOM     11  C   UNL     1       6.925  -2.228  31.825  0.00  0.00    +0.047 A 
ATOM     12  C   UNL     1       6.864  -0.882  32.372  0.00  0.00    +0.035 A 
ATOM     32  C   UNL     1       6.460  -0.723  33.730  0.00  0.00    +0.024 A 
ATOM     33  C   UNL     1       6.114  -1.859  34.547  0.00  0.00    +0.007 A 
ATOM     34  C   UNL     1       6.170  -3.190  34.011  0.00  0.00    -0.029 A 
ATOM     35  C   UNL     1       5.782  -4.371  34.931  0.00  0.00    +0.045 C 
ENDROOT
BRANCH  10   9
ATOM      4  C   UNL     1       4.858  -6.837  29.798  0.00  0.00    +0.077 A 
ATOM      5  C   UNL     1       3.691  -6.072  29.469  0.00  0.00    +0.048 A 
ATOM      6  C   UNL     1       3.570  -4.790  30.051  0.00  0.00    +0.116 A 
ATOM      7  N   UNL     1       4.550  -4.319  30.898  0.00  0.00    -0.223 NA
ATOM      8  C   UNL     1       5.663  -5.084  31.195  0.00  0.00    +0.220 A 
ATOM      9  N   UNL     1       6.665  -4.627  32.038  0.00  0.00    -0.283 N 
ATOM     36  H   UNL     1       7.467  -5.225  32.238  0.00  0.00    +0.155 HD
ATOM     37  N   UNL     1       5.801  -6.312  30.653  0.00  0.00    -0.214 NA
BRANCH   4   3
ATOM      1  C   UNL     1       6.251 -10.466  29.357  0.00  0.00    +0.020 A 
ATOM      2  C   UNL     1       6.022  -9.155  29.918  0.00  0.00    +0.013 A 
ATOM      3  C   UNL     1       5.131  -8.208  29.260  0.00  0.00    +0.019 A 
ATOM     38  C   UNL     1       4.480  -8.623  28.026  0.00  0.00    +0.120 A 
ATOM     39  N   UNL     1       4.721  -9.891  27.508  0.00  0.00    -0.263 NA
ATOM     40  C   UNL     1       5.578 -10.811  28.132  0.00  0.00    +0.111 A 
ENDBRANCH   4   3
ENDBRANCH  10   9
BRANCH  12  13
ATOM     13  N   UNL     1       7.185   0.303  31.616  0.00  0.00    -0.281 N 
ATOM     14  C   UNL     1       6.315   1.148  30.947  0.00  0.00    +0.248 C 
ATOM     30  O   UNL     1       5.142   0.892  30.718  0.00  0.00    -0.270 OA
ATOM     31  H   UNL     1       8.174   0.548  31.569  0.00  0.00    +0.155 HD
BRANCH  14  15
ATOM     15  C   UNL     1       6.825   2.461  30.448  0.00  0.00    +0.037 A 
ATOM     16  C   UNL     1       7.791   2.533  29.348  0.00  0.00    +0.013 A 
ATOM     17  C   UNL     1       8.280   3.811  28.897  0.00  0.00    +0.005 A 
ATOM     18  C   UNL     1       7.801   5.030  29.545  0.00  0.00    -0.033 A 
ATOM     28  C   UNL     1       6.839   4.930  30.630  0.00  0.00    +0.005 A 
ATOM     29  C   UNL     1       6.359   3.679  31.076  0.00  0.00    +0.013 A 
BRANCH  18  19
ATOM     19  C   UNL     1       8.285   6.436  29.143  0.00  0.00    +0.119 C 
BRANCH  19  20
ATOM     20  N   UNL     1       9.122   6.545  27.911  0.00  0.00    -0.302 NA
ATOM     21  C   UNL     1      10.402   7.350  28.156  0.00  0.00    +0.066 C 
ATOM     22  C   UNL     1      11.276   7.435  26.862  0.00  0.00    -0.064 C 
ATOM     23  N   UNL     1      10.453   8.057  25.733  0.00  0.00    +0.379 N 
ATOM     24  C   UNL     1      11.290   8.191  24.532  0.00  0.00    -0.096 C 
ATOM     25  H   UNL     1      10.156   9.082  26.056  0.00  0.00    -0.082 HD
ATOM     26  C   UNL     1       9.177   7.264  25.486  0.00  0.00    -0.064 C 
ATOM     27  C   UNL     1       8.329   7.161  26.784  0.00  0.00    +0.066 C 
ENDBRANCH  19  20
ENDBRANCH  18  19
ENDBRANCH  14  15
ENDBRANCH  12  13
TORSDOF 6
ENDMDL
MODEL 5
REMARK VINA RESULT:      -8.0      3.170      4.739
REMARK  Name = C:\Users\Docking\Desktop\test protocol\1iep_ligandH.pdb
REMARK  8 active torsions:
REMARK  status: ('A' for Active; 'I' for Inactive)
REMARK    1  A    between atoms: _5  and  _11
REMARK    2  A    between atoms: _19  and  _21
REMARK    3  A    between atoms: _22  and  _66
REMARK    4  A    between atoms: _27  and  _30
REMARK    5  A    between atoms: _32  and  _33
REMARK    6  A    between atoms: _38  and  _43
REMARK    7  A    between atoms: _43  and  _46
REMARK    8  A    between atoms: _53  and  _55
REMARK                            x       y       z     vdW  Elec       q    Type
REMARK                         _______ _______ _______ _____ _____    ______ ____
ROOT
ATOM     10  C   UNL     1       6.016  -2.147  32.341  0.00  0.00    +0.038 A 
ATOM     11  C   UNL     1       6.890  -1.320  31.590  0.00  0.00    +0.047 A 
ATOM     12  C   UNL     1       6.565   0.072  31.323  0.00  0.00    +0.035 A 
ATOM     32  C   UNL     1       5.340   0.590  31.838  0.00  0.00    +0.024 A 
ATOM     33  C   UNL     1       4.440  -0.237  32.602  0.00  0.00    +0.007 A 
ATOM     34  C   UNL     1       4.755  -1.611  32.866  0.00  0.00    -0.029 A 
ATOM     35  C   UNL     1       3.749  -2.453  33.685  0.00  0.00    +0.045 C 
ENDROOT
BRANCH  10   9
ATOM      4  C   UNL     1       6.028  -6.795  31.142  0.00  0.00    +0.077 A 
ATOM      5  C   UNL     1       5.220  -6.558  29.980  0.00  0.00    +0.048 A 
ATOM      6  C   UNL     1       4.817  -5.227  29.731  0.00  0.00    +0.116 A 
ATOM      7  N   UNL     1       5.199  -4.216  30.586  0.00  0.00    -0.223 NA
ATOM      8  C   UNL     1       5.977  -4.479  31.698  0.00  0.00    +0.220 A 
ATOM      9  N   UNL     1       6.379  -3.477  32.567  0.00  0.00    -0.283 N 
ATOM     36  H   UNL     1       6.946  -3.713  33.381  0.00  0.00    +0.155 HD
ATOM     37  N   UNL     1       6.374  -5.742  31.959  0.00  0.00    -0.214 NA
BRANCH   4   3
ATOM      1  C   UNL     1       7.143 -10.543  31.035  0.00  0.00    +0.020 A 
ATOM      2  C   UNL     1       6.646  -9.257  30.601  0.00  0.00    +0.013 A 
ATOM      3  C   UNL     1       6.536  -8.146  31.538  0.00  0.00    +0.019 A 
ATOM     38  C   UNL     1       6.940  -8.371  32.918  0.00  0.00    +0.120 A 
ATOM     39  N   UNL     1       7.414  -9.620  33.307  0.00  0.00    -0.263 NA
ATOM     40  C   UNL     1       7.523 -10.697  32.414  0.00  0.00    +0.111 A 
ENDBRANCH   4   3
ENDBRANCH  10   9
BRANCH  12  13
ATOM     13  N   UNL     1       7.409   0.958  30.560  0.00  0.00    -0.281 N 
ATOM     14  C   UNL     1       7.042   1.804  29.527  0.00  0.00    +0.248 C 
ATOM     30  O   UNL     1       5.962   1.771  28.956  0.00  0.00    -0.270 OA
ATOM     31  H   UNL     1       8.397   0.961  30.813  0.00  0.00    +0.155 HD
BRANCH  14  15
ATOM     15  C   UNL     1       8.022   2.827  29.049  0.00  0.00    +0.037 A 
ATOM     16  C   UNL     1       7.752   4.260  29.186  0.00  0.00    +0.013 A 
ATOM     17  C   UNL     1       8.707   5.226  28.701  0.00  0.00    +0.005 A 
ATOM     18  C   UNL     1       9.942   4.759  28.076  0.00  0.00    -0.033 A 
ATOM     28  C   UNL     1      10.187   3.331  27.958  0.00  0.00    +0.005 A 
ATOM     29  C   UNL     1       9.253   2.382  28.431  0.00  0.00    +0.013 A 
BRANCH  18  19
ATOM     19  C   UNL     1      11.007   5.718  27.511  0.00  0.00    +0.119 C 
BRANCH  19  20
ATOM     20  N   UNL     1      10.681   6.430  26.239  0.00  0.00    -0.302 NA
ATOM     21  C   UNL     1      10.792   5.509  25.021  0.00  0.00    +0.066 C 
ATOM     22  C   UNL     1      10.425   6.264  23.702  0.00  0.00    -0.064 C 
ATOM     23  N   UNL     1      11.337   7.483  23.545  0.00  0.00    +0.379 N 
ATOM     24  C   UNL     1      11.033   8.162  22.277  0.00  0.00    -0.096 C 
ATOM     25  H   UNL     1      12.387   7.114  23.488  0.00  0.00    -0.082 HD
ATOM     26  C   UNL     1      11.235   8.402  24.753  0.00  0.00    -0.064 C 
ATOM     27  C   UNL     1      11.572   7.634  26.062  0.00  0.00    +0.066 C 
ENDBRANCH  19  20
ENDBRANCH  18  19
ENDBRANCH  14  15
ENDBRANCH  12  13
TORSDOF 6
ENDMDL
