MODEL 1
REMARK VINA RESULT:      -9.7      0.000      0.000
REMARK  Name = C:\Users\Docking\Desktop\test protocol\1iep_ligandH.pdb
REMARK  8 active torsions:
REMARK  status: ('A' for Active; 'I' for Inactive)
REMARK    1  A    between atoms: _5  and  _11
REMARK    2  A    between atoms: _19  and  _21
REMARK    3  A    between atoms: _22  and  _66
REMARK    4  A    between atoms: _27  and  _30
REMARK    5  A    between atoms: _32  and  _33
REMARK    6  A    between atoms: _38  and  _43
REMARK    7  A    between atoms: _43  and  _46
REMARK    8  A    between atoms: _53  and  _55
REMARK                            x       y       z     vdW  Elec       q    Type
REMARK                         _______ _______ _______ _____ _____    ______ ____
ROOT
ATOM     10  C   UNL     1      -4.491   2.456  28.284  0.00  0.00    +0.038 A 
ATOM     11  C   UNL     1      -3.123   2.244  27.977  0.00  0.00    +0.047 A 
ATOM     12  C   UNL     1      -2.714   1.727  26.681  0.00  0.00    +0.035 A 
ATOM     32  C   UNL     1      -3.725   1.438  25.719  0.00  0.00    +0.024 A 
ATOM     33  C   UNL     1      -5.121   1.647  26.014  0.00  0.00    +0.007 A 
ATOM     34  C   UNL     1      -5.531   2.155  27.292  0.00  0.00    -0.029 A 
ATOM     35  C   UNL     1      -7.041   2.353  27.556  0.00  0.00    +0.045 C 
ENDROOT
BRANCH  10   9
ATOM      4  C   UNL     1      -5.713   1.853  32.886  0.00  0.00    +0.077 A 
ATOM      5  C   UNL     1      -5.706   0.424  32.762  0.00  0.00    +0.048 A 
ATOM      6  C   UNL     1      -5.390  -0.116  31.496  0.00  0.00    +0.116 A 
ATOM      7  N   UNL     1      -5.104   0.721  30.439  0.00  0.00    -0.223 NA
ATOM      8  C   UNL     1      -5.120   2.095  30.592  0.00  0.00    +0.220 A 
ATOM      9  N   UNL     1      -4.828   2.955  29.544  0.00  0.00    -0.283 N 
ATOM     36  H   UNL     1      -4.858   3.963  29.696  0.00  0.00    +0.155 HD
ATOM     37  N   UNL     1      -5.420   2.635  31.791  0.00  0.00    -0.214 NA
BRANCH   4   3
ATOM      1  C   UNL     1      -7.085   2.721  36.445  0.00  0.00    +0.020 A 
ATOM      2  C   UNL     1      -6.814   1.982  35.233  0.00  0.00    +0.013 A 
ATOM      3  C   UNL     1      -6.024   2.574  34.161  0.00  0.00    +0.019 A 
ATOM     38  C   UNL     1      -5.518   3.926  34.348  0.00  0.00    +0.120 A 
ATOM     39  N   UNL     1      -5.797   4.614  35.525  0.00  0.00    -0.263 NA
ATOM     40  C   UNL     1      -6.558   4.055  36.563  0.00  0.00    +0.111 A 
ENDBRANCH   4   3
ENDBRANCH  10   9
BRANCH  12  13
ATOM     13  N   UNL     1      -1.340   1.483  26.316  0.00  0.00    -0.281 N 
ATOM     14  C   UNL     1      -0.706   0.263  26.153  0.00  0.00    +0.248 C 
ATOM     30  O   UNL     1      -1.171  -0.811  26.507  0.00  0.00    -0.270 OA
ATOM     31  H   UNL     1      -0.766   2.311  26.158  0.00  0.00    +0.155 HD
BRANCH  14  15
ATOM     15  C   UNL     1       0.647   0.231  25.518  0.00  0.00    +0.037 A 
ATOM     16  C   UNL     1       0.899  -0.550  24.304  0.00  0.00    +0.013 A 
ATOM     17  C   UNL     1       2.217  -0.577  23.722  0.00  0.00    +0.005 A 
ATOM     18  C   UNL     1       3.294   0.182  24.353  0.00  0.00    -0.033 A 
ATOM     28  C   UNL     1       3.016   0.953  25.553  0.00  0.00    +0.005 A 
ATOM     29  C   UNL     1       1.725   0.981  26.128  0.00  0.00    +0.013 A 
BRANCH  18  19
ATOM     19  C   UNL     1       4.737   0.194  23.813  0.00  0.00    +0.119 C 
BRANCH  19  20
ATOM     20  N   UNL     1       5.824   0.543  24.775  0.00  0.00    -0.302 NA
ATOM     21  C   UNL     1       6.177   2.033  24.727  0.00  0.00    +0.066 C 
ATOM     22  C   UNL     1       7.301   2.385  25.755  0.00  0.00    -0.064 C 
ATOM     23  N   UNL     1       8.535   1.526  25.472  0.00  0.00    +0.379 N 
ATOM     24  C   UNL     1       9.613   1.896  26.400  0.00  0.00    -0.096 C 
ATOM     25  H   UNL     1       8.881   1.763  24.439  0.00  0.00    -0.082 HD
ATOM     26  C   UNL     1       8.192   0.044  25.515  0.00  0.00    -0.064 C 
ATOM     27  C   UNL     1       7.054  -0.290  24.510  0.00  0.00    +0.066 C 
ENDBRANCH  19  20
ENDBRANCH  18  19
ENDBRANCH  14  15
ENDBRANCH  12  13
TORSDOF 6
ENDMDL
MODEL 2
REMARK VINA RESULT:      -9.7      4.493      6.470
REMARK  Name = C:\Users\Docking\Desktop\test protocol\1iep_ligandH.pdb
REMARK  8 active torsions:
REMARK  status: ('A' for Active; 'I' for Inactive)
REMARK    1  A    between atoms: _5  and  _11
REMARK    2  A    between atoms: _19  and  _21
REMARK    3  A    between atoms: _22  and  _66
REMARK    4  A    between atoms: _27  and  _30
REMARK    5  A    between atoms: _32  and  _33
REMARK    6  A    between atoms: _38  and  _43
REMARK    7  A    between atoms: _43  and  _46
REMARK    8  A    between atoms: _53  and  _55
REMARK                            x       y       z     vdW  Elec       q    Type
REMARK                         _______ _______ _______ _____ _____    ______ ____
ROOT
ATOM     10  C   UNL     1      -2.493   1.959  26.134  0.00  0.00    +0.038 A 
ATOM     11  C   UNL     1      -1.092   1.800  25.980  0.00  0.00    +0.047 A 
ATOM     12  C   UNL     1      -0.412   0.611  26.471  0.00  0.00    +0.035 A 
ATOM     32  C   UNL     1      -1.190  -0.397  27.111  0.00  0.00    +0.024 A 
ATOM     33  C   UNL     1      -2.615  -0.250  27.277  0.00  0.00    +0.007 A 
ATOM     34  C   UNL     1      -3.291   0.921  26.797  0.00  0.00    -0.029 A 
ATOM     35  C   UNL     1      -4.819   1.028  27.008  0.00  0.00    +0.045 C 
ENDROOT
BRANCH  10   9
ATOM      4  C   UNL     1      -2.853   6.736  25.831  0.00  0.00    +0.077 A 
ATOM      5  C   UNL     1      -1.768   6.935  26.748  0.00  0.00    +0.048 A 
ATOM      6  C   UNL     1      -1.149   5.782  27.281  0.00  0.00    +0.116 A 
ATOM      7  N   UNL     1      -1.590   4.528  26.916  0.00  0.00    -0.223 NA
ATOM      8  C   UNL     1      -2.640   4.372  26.030  0.00  0.00    +0.220 A 
ATOM      9  N   UNL     1      -3.095   3.121  25.643  0.00  0.00    -0.283 N 
ATOM     36  H   UNL     1      -3.877   3.047  24.993  0.00  0.00    +0.155 HD
ATOM     37  N   UNL     1      -3.249   5.457  25.509  0.00  0.00    -0.214 NA
BRANCH   4   3
ATOM      1  C   UNL     1      -5.524   8.764  23.817  0.00  0.00    +0.020 A 
ATOM      2  C   UNL     1      -4.835   7.649  24.425  0.00  0.00    +0.013 A 
ATOM      3  C   UNL     1      -3.606   7.855  25.181  0.00  0.00    +0.019 A 
ATOM     38  C   UNL     1      -3.097   9.213  25.306  0.00  0.00    +0.120 A 
ATOM     39  N   UNL     1      -3.781  10.267  24.708  0.00  0.00    -0.263 NA
ATOM     40  C   UNL     1      -4.964  10.080  23.977  0.00  0.00    +0.111 A 
ENDBRANCH   4   3
ENDBRANCH  10   9
BRANCH  12  13
ATOM     13  N   UNL     1       1.009   0.398  26.350  0.00  0.00    -0.281 N 
ATOM     14  C   UNL     1       1.730   0.088  25.208  0.00  0.00    +0.248 C 
ATOM     30  O   UNL     1       1.230  -0.264  24.150  0.00  0.00    -0.270 OA
ATOM     31  H   UNL     1       1.549   0.485  27.211  0.00  0.00    +0.155 HD
BRANCH  14  15
ATOM     15  C   UNL     1       3.222   0.167  25.253  0.00  0.00    +0.037 A 
ATOM     16  C   UNL     1       3.996   0.584  24.081  0.00  0.00    +0.013 A 
ATOM     17  C   UNL     1       5.435   0.636  24.145  0.00  0.00    +0.005 A 
ATOM     18  C   UNL     1       6.109   0.269  25.389  0.00  0.00    -0.033 A 
ATOM     28  C   UNL     1       5.317  -0.136  26.537  0.00  0.00    +0.005 A 
ATOM     29  C   UNL     1       3.906  -0.188  26.478  0.00  0.00    +0.013 A 
BRANCH  18  19
ATOM     19  C   UNL     1       7.642   0.275  25.541  0.00  0.00    +0.119 C 
BRANCH  19  20
ATOM     20  N   UNL     1       8.372   1.489  25.070  0.00  0.00    -0.302 NA
ATOM     21  C   UNL     1       8.753   1.393  23.591  0.00  0.00    +0.066 C 
ATOM     22  C   UNL     1       9.496   2.681  23.109  0.00  0.00    -0.064 C 
ATOM     23  N   UNL     1      10.737   2.905  23.975  0.00  0.00    +0.379 N 
ATOM     24  C   UNL     1      11.470   4.083  23.487  0.00  0.00    -0.096 C 
ATOM     25  H   UNL     1      11.401   2.018  23.849  0.00  0.00    -0.082 HD
ATOM     26  C   UNL     1      10.368   2.999  25.448  0.00  0.00    -0.064 C 
ATOM     27  C   UNL     1       9.604   1.726  25.909  0.00  0.00    +0.066 C 
ENDBRANCH  19  20
ENDBRANCH  18  19
ENDBRANCH  14  15
ENDBRANCH  12  13
TORSDOF 6
ENDMDL
MODEL 3
REMARK VINA RESULT:      -8.8      3.636      6.038
REMARK  Name = C:\Users\Docking\Desktop\test protocol\1iep_ligandH.pdb
REMARK  8 active torsions:
REMARK  status: ('A' for Active; 'I' for Inactive)
REMARK    1  A    between atoms: _5  and  _11
REMARK    2  A    between atoms: _19  and  _21
REMARK    3  A    between atoms: _22  and  _66
REMARK    4  A    between atoms: _27  and  _30
REMARK    5  A    between atoms: _32  and  _33
REMARK    6  A    between atoms: _38  and  _43
REMARK    7  A    between atoms: _43  and  _46
REMARK    8  A    between atoms: _53  and  _55
REMARK                            x       y       z     vdW  Elec       q    Type
REMARK                         _______ _______ _______ _____ _____    ______ ____
ROOT
ATOM     10  C   UNL     1      -3.854   1.928  27.197  0.00  0.00    +0.038 A 
ATOM     11  C   UNL     1      -2.498   1.899  26.783  0.00  0.00    +0.047 A 
ATOM     12  C   UNL     1      -1.607   0.828  27.201  0.00  0.00    +0.035 A 
ATOM     32  C   UNL     1      -2.132  -0.200  28.039  0.00  0.00    +0.024 A 
ATOM     33  C   UNL     1      -3.508  -0.185  28.469  0.00  0.00    +0.007 A 
ATOM     34  C   UNL     1      -4.391   0.871  28.062  0.00  0.00    -0.029 A 
ATOM     35  C   UNL     1      -5.854   0.839  28.560  0.00  0.00    +0.045 C 
ENDROOT
BRANCH  10   9
ATOM      4  C   UNL     1      -7.168   3.793  24.268  0.00  0.00    +0.077 A 
ATOM      5  C   UNL     1      -7.273   2.576  23.516  0.00  0.00    +0.048 A 
ATOM      6  C   UNL     1      -6.452   1.496  23.911  0.00  0.00    +0.116 A 
ATOM      7  N   UNL     1      -5.594   1.634  24.980  0.00  0.00    -0.223 NA
ATOM      8  C   UNL     1      -5.516   2.822  25.683  0.00  0.00    +0.220 A 
ATOM      9  N   UNL     1      -4.665   2.981  26.766  0.00  0.00    -0.283 N 
ATOM     36  H   UNL     1      -4.631   3.876  27.254  0.00  0.00    +0.155 HD
ATOM     37  N   UNL     1      -6.288   3.869  25.325  0.00  0.00    -0.214 NA
BRANCH   4   3
ATOM      1  C   UNL     1     -10.067   6.417  24.149  0.00  0.00    +0.020 A 
ATOM      2  C   UNL     1      -9.334   5.211  24.460  0.00  0.00    +0.013 A 
ATOM      3  C   UNL     1      -7.972   5.021  23.975  0.00  0.00    +0.019 A 
ATOM     38  C   UNL     1      -7.377   6.079  23.173  0.00  0.00    +0.120 A 
ATOM     39  N   UNL     1      -8.107   7.229  22.888  0.00  0.00    -0.263 NA
ATOM     40  C   UNL     1      -9.418   7.422  23.348  0.00  0.00    +0.111 A 
ENDBRANCH   4   3
ENDBRANCH  10   9
BRANCH  12  13
ATOM     13  N   UNL     1      -0.219   0.749  26.820  0.00  0.00    -0.281 N 
ATOM     14  C   UNL     1       0.413  -0.257  26.107  0.00  0.00    +0.248 C 
ATOM     30  O   UNL     1      -0.078  -1.351  25.873  0.00  0.00    -0.270 OA
ATOM     31  H   UNL     1       0.370   1.530  27.110  0.00  0.00    +0.155 HD
BRANCH  14  15
ATOM     15  C   UNL     1       1.796  -0.019  25.593  0.00  0.00    +0.037 A 
ATOM     16  C   UNL     1       2.863   0.460  26.476  0.00  0.00    +0.013 A 
ATOM     17  C   UNL     1       4.184   0.698  25.951  0.00  0.00    +0.005 A 
ATOM     18  C   UNL     1       4.446   0.456  24.534  0.00  0.00    -0.033 A 
ATOM     28  C   UNL     1       3.370  -0.024  23.682  0.00  0.00    +0.005 A 
ATOM     29  C   UNL     1       2.074  -0.258  24.193  0.00  0.00    +0.013 A 
BRANCH  18  19
ATOM     19  C   UNL     1       5.820   0.703  23.883  0.00  0.00    +0.119 C 
BRANCH  19  20
ATOM     20  N   UNL     1       6.997   0.822  24.794  0.00  0.00    -0.302 NA
ATOM     21  C   UNL     1       7.447   2.276  24.963  0.00  0.00    +0.066 C 
ATOM     22  C   UNL     1       8.665   2.385  25.937  0.00  0.00    -0.064 C 
ATOM     23  N   UNL     1       9.813   1.519  25.413  0.00  0.00    +0.379 N 
ATOM     24  C   UNL     1      10.979   1.664  26.296  0.00  0.00    -0.096 C 
ATOM     25  H   UNL     1      10.098   1.908  24.408  0.00  0.00    -0.082 HD
ATOM     26  C   UNL     1       9.372   0.072  25.241  0.00  0.00    -0.064 C 
ATOM     27  C   UNL     1       8.143  -0.022  24.294  0.00  0.00    +0.066 C 
ENDBRANCH  19  20
ENDBRANCH  18  19
ENDBRANCH  14  15
ENDBRANCH  12  13
TORSDOF 6
ENDMDL
MODEL 4
REMARK VINA RESULT:      -8.6      4.815     10.295
REMARK  Name = C:\Users\Docking\Desktop\test protocol\1iep_ligandH.pdb
REMARK  8 active torsions:
REMARK  status: ('A' for Active; 'I' for Inactive)
REMARK    1  A    between atoms: _5  and  _11
REMARK    2  A    between atoms: _19  and  _21
REMARK    3  A    between atoms: _22  and  _66
REMARK    4  A    between atoms: _27  and  _30
REMARK    5  A    between atoms: _32  and  _33
REMARK    6  A    between atoms: _38  and  _43
REMARK    7  A    between atoms: _43  and  _46
REMARK    8  A    between atoms: _53  and  _55
REMARK                            x       y       z     vdW  Elec       q    Type
REMARK                         _______ _______ _______ _____ _____    ______ ____
ROOT
ATOM     10  C   UNL     1      -6.545   5.065  38.269  0.00  0.00    +0.038 A 
ATOM     11  C   UNL     1      -5.994   4.392  37.148  0.00  0.00    +0.047 A 
ATOM     12  C   UNL     1      -6.640   4.444  35.846  0.00  0.00    +0.035 A 
ATOM     32  C   UNL     1      -7.846   5.193  35.720  0.00  0.00    +0.024 A 
ATOM     33  C   UNL     1      -8.421   5.882  36.849  0.00  0.00    +0.007 A 
ATOM     34  C   UNL     1      -7.789   5.832  38.136  0.00  0.00    -0.029 A 
ATOM     35  C   UNL     1      -8.454   6.585  39.312  0.00  0.00    +0.045 C 
ENDROOT
BRANCH  10   9
ATOM      4  C   UNL     1      -5.753   2.978  42.518  0.00  0.00    +0.077 A 
ATOM      5  C   UNL     1      -6.763   1.986  42.286  0.00  0.00    +0.048 A 
ATOM      6  C   UNL     1      -7.468   2.052  41.063  0.00  0.00    +0.116 A 
ATOM      7  N   UNL     1      -7.177   3.041  40.148  0.00  0.00    -0.223 NA
ATOM      8  C   UNL     1      -6.198   3.983  40.404  0.00  0.00    +0.220 A 
ATOM      9  N   UNL     1      -5.883   4.981  39.495  0.00  0.00    -0.283 N 
ATOM     36  H   UNL     1      -5.159   5.662  39.725  0.00  0.00    +0.155 HD
ATOM     37  N   UNL     1      -5.511   3.943  41.565  0.00  0.00    -0.214 NA
BRANCH   4   3
ATOM      1  C   UNL     1      -3.828   1.982  45.774  0.00  0.00    +0.020 A 
ATOM      2  C   UNL     1      -4.639   1.870  44.584  0.00  0.00    +0.013 A 
ATOM      3  C   UNL     1      -4.919   3.039  43.760  0.00  0.00    +0.019 A 
ATOM     38  C   UNL     1      -4.359   4.317  44.171  0.00  0.00    +0.120 A 
ATOM     39  N   UNL     1      -3.582   4.396  45.323  0.00  0.00    -0.263 NA
ATOM     40  C   UNL     1      -3.307   3.278  46.125  0.00  0.00    +0.111 A 
ENDBRANCH   4   3
ENDBRANCH  10   9
BRANCH  12  13
ATOM     13  N   UNL     1      -6.131   3.774  34.675  0.00  0.00    -0.281 N 
ATOM     14  C   UNL     1      -6.182   2.422  34.377  0.00  0.00    +0.248 C 
ATOM     30  O   UNL     1      -6.486   1.549  35.177  0.00  0.00    -0.270 OA
ATOM     31  H   UNL     1      -5.678   4.369  33.981  0.00  0.00    +0.155 HD
BRANCH  14  15
ATOM     15  C   UNL     1      -5.831   1.973  32.996  0.00  0.00    +0.037 A 
ATOM     16  C   UNL     1      -5.588   2.940  31.921  0.00  0.00    +0.013 A 
ATOM     17  C   UNL     1      -5.268   2.480  30.593  0.00  0.00    +0.005 A 
ATOM     18  C   UNL     1      -5.187   1.044  30.333  0.00  0.00    -0.033 A 
ATOM     28  C   UNL     1      -5.428   0.108  31.418  0.00  0.00    +0.005 A 
ATOM     29  C   UNL     1      -5.743   0.555  32.721  0.00  0.00    +0.013 A 
BRANCH  18  19
ATOM     19  C   UNL     1      -4.873   0.463  28.942  0.00  0.00    +0.119 C 
BRANCH  19  20
ATOM     20  N   UNL     1      -3.462   0.564  28.462  0.00  0.00    -0.302 NA
ATOM     21  C   UNL     1      -3.256   1.762  27.531  0.00  0.00    +0.066 C 
ATOM     22  C   UNL     1      -1.770   1.866  27.057  0.00  0.00    -0.064 C 
ATOM     23  N   UNL     1      -1.368   0.564  26.361  0.00  0.00    +0.379 N 
ATOM     24  C   UNL     1       0.010   0.680  25.862  0.00  0.00    -0.096 C 
ATOM     25  H   UNL     1      -2.037   0.432  25.479  0.00  0.00    -0.082 HD
ATOM     26  C   UNL     1      -1.572  -0.633  27.278  0.00  0.00    -0.064 C 
ATOM     27  C   UNL     1      -3.046  -0.709  27.768  0.00  0.00    +0.066 C 
ENDBRANCH  19  20
ENDBRANCH  18  19
ENDBRANCH  14  15
ENDBRANCH  12  13
TORSDOF 6
ENDMDL
MODEL 5
REMARK VINA RESULT:      -8.2      3.614      5.552
REMARK  Name = C:\Users\Docking\Desktop\test protocol\1iep_ligandH.pdb
REMARK  8 active torsions:
REMARK  status: ('A' for Active; 'I' for Inactive)
REMARK    1  A    between atoms: _5  and  _11
REMARK    2  A    between atoms: _19  and  _21
REMARK    3  A    between atoms: _22  and  _66
REMARK    4  A    between atoms: _27  and  _30
REMARK    5  A    between atoms: _32  and  _33
REMARK    6  A    between atoms: _38  and  _43
REMARK    7  A    between atoms: _43  and  _46
REMARK    8  A    between atoms: _53  and  _55
REMARK                            x       y       z     vdW  Elec       q    Type
REMARK                         _______ _______ _______ _____ _____    ______ ____
ROOT
ATOM     10  C   UNL     1      -3.420   2.122  27.642  0.00  0.00    +0.038 A 
ATOM     11  C   UNL     1      -2.072   1.892  27.266  0.00  0.00    +0.047 A 
ATOM     12  C   UNL     1      -1.501   0.555  27.292  0.00  0.00    +0.035 A 
ATOM     32  C   UNL     1      -2.332  -0.527  27.703  0.00  0.00    +0.024 A 
ATOM     33  C   UNL     1      -3.705  -0.312  28.089  0.00  0.00    +0.007 A 
ATOM     34  C   UNL     1      -4.273   1.006  28.068  0.00  0.00    -0.029 A 
ATOM     35  C   UNL     1      -5.748   1.179  28.499  0.00  0.00    +0.045 C 
ENDROOT
BRANCH  10   9
ATOM      4  C   UNL     1      -6.020   5.594  25.588  0.00  0.00    +0.077 A 
ATOM      5  C   UNL     1      -6.400   4.746  24.495  0.00  0.00    +0.048 A 
ATOM      6  C   UNL     1      -5.898   3.425  24.496  0.00  0.00    +0.116 A 
ATOM      7  N   UNL     1      -5.080   2.995  25.518  0.00  0.00    -0.223 NA
ATOM      8  C   UNL     1      -4.732   3.840  26.556  0.00  0.00    +0.220 A 
ATOM      9  N   UNL     1      -3.917   3.426  27.598  0.00  0.00    -0.283 N 
ATOM     36  H   UNL     1      -3.677   4.082  28.341  0.00  0.00    +0.155 HD
ATOM     37  N   UNL     1      -5.196   5.106  26.578  0.00  0.00    -0.214 NA
BRANCH   4   3
ATOM      1  C   UNL     1      -7.927   8.807  26.747  0.00  0.00    +0.020 A 
ATOM      2  C   UNL     1      -7.529   7.422  26.647  0.00  0.00    +0.013 A 
ATOM      3  C   UNL     1      -6.471   7.015  25.731  0.00  0.00    +0.019 A 
ATOM     38  C   UNL     1      -5.830   8.043  24.924  0.00  0.00    +0.120 A 
ATOM     39  N   UNL     1      -6.236   9.369  25.041  0.00  0.00    -0.263 NA
ATOM     40  C   UNL     1      -7.254   9.772  25.918  0.00  0.00    +0.111 A 
ENDBRANCH   4   3
ENDBRANCH  10   9
BRANCH  12  13
ATOM     13  N   UNL     1      -0.136   0.262  26.929  0.00  0.00    -0.281 N 
ATOM     14  C   UNL     1       0.469   0.419  25.693  0.00  0.00    +0.248 C 
ATOM     30  O   UNL     1      -0.133   0.636  24.651  0.00  0.00    -0.270 OA
ATOM     31  H   UNL     1       0.456  -0.106  27.674  0.00  0.00    +0.155 HD
BRANCH  14  15
ATOM     15  C   UNL     1       1.956   0.304  25.597  0.00  0.00    +0.037 A 
ATOM     16  C   UNL     1       2.619   0.069  24.311  0.00  0.00    +0.013 A 
ATOM     17  C   UNL     1       4.054  -0.055  24.249  0.00  0.00    +0.005 A 
ATOM     18  C   UNL     1       4.836   0.058  25.478  0.00  0.00    -0.033 A 
ATOM     28  C   UNL     1       4.153   0.297  26.739  0.00  0.00    +0.005 A 
ATOM     29  C   UNL     1       2.747   0.418  26.804  0.00  0.00    +0.013 A 
BRANCH  18  19
ATOM     19  C   UNL     1       6.369  -0.081  25.509  0.00  0.00    +0.119 C 
BRANCH  19  20
ATOM     20  N   UNL     1       7.159   0.861  24.662  0.00  0.00    -0.302 NA
ATOM     21  C   UNL     1       8.547   0.308  24.327  0.00  0.00    +0.066 C 
ATOM     22  C   UNL     1       9.351   1.297  23.422  0.00  0.00    -0.064 C 
ATOM     23  N   UNL     1       9.463   2.651  24.125  0.00  0.00    +0.379 N 
ATOM     24  C   UNL     1      10.268   3.566  23.302  0.00  0.00    -0.096 C 
ATOM     25  H   UNL     1      10.008   2.490  25.084  0.00  0.00    -0.082 HD
ATOM     26  C   UNL     1       8.087   3.207  24.463  0.00  0.00    -0.064 C 
ATOM     27  C   UNL     1       7.285   2.204  25.339  0.00  0.00    +0.066 C 
ENDBRANCH  19  20
ENDBRANCH  18  19
ENDBRANCH  14  15
ENDBRANCH  12  13
TORSDOF 6
ENDMDL
