MODEL 1
REMARK VINA RESULT:      -8.3      0.000      0.000
REMARK  Name = C:\Users\Docking\Desktop\test protocol\1iep_ligandH.pdb
REMARK  8 active torsions:
REMARK  status: ('A' for Active; 'I' for Inactive)
REMARK    1  A    between atoms: _5  and  _11
REMARK    2  A    between atoms: _19  and  _21
REMARK    3  A    between atoms: _22  and  _66
REMARK    4  A    between atoms: _27  and  _30
REMARK    5  A    between atoms: _32  and  _33
REMARK    6  A    between atoms: _38  and  _43
REMARK    7  A    between atoms: _43  and  _46
REMARK    8  A    between atoms: _53  and  _55
REMARK                            x       y       z     vdW  Elec       q    Type
REMARK                         _______ _______ _______ _____ _____    ______ ____
ROOT
ATOM     10  C   UNL     1      -6.649   5.051  38.275  0.00  0.00    +0.038 A 
ATOM     11  C   UNL     1      -6.059   4.353  37.190  0.00  0.00    +0.047 A 
ATOM     12  C   UNL     1      -6.677   4.350  35.873  0.00  0.00    +0.035 A 
ATOM     32  C   UNL     1      -7.894   5.071  35.695  0.00  0.00    +0.024 A 
ATOM     33  C   UNL     1      -8.507   5.785  36.788  0.00  0.00    +0.007 A 
ATOM     34  C   UNL     1      -7.903   5.790  38.090  0.00  0.00    -0.029 A 
ATOM     35  C   UNL     1      -8.609   6.568  39.225  0.00  0.00    +0.045 C 
ENDROOT
BRANCH  10   9
ATOM      4  C   UNL     1      -5.773   3.015  42.532  0.00  0.00    +0.077 A 
ATOM      5  C   UNL     1      -6.679   1.935  42.268  0.00  0.00    +0.048 A 
ATOM      6  C   UNL     1      -7.356   1.945  41.028  0.00  0.00    +0.116 A 
ATOM      7  N   UNL     1      -7.136   2.963  40.127  0.00  0.00    -0.223 NA
ATOM      8  C   UNL     1      -6.256   3.991  40.413  0.00  0.00    +0.220 A 
ATOM      9  N   UNL     1      -6.013   5.021  39.518  0.00  0.00    -0.283 N 
ATOM     36  H   UNL     1      -5.362   5.765  39.770  0.00  0.00    +0.155 HD
ATOM     37  N   UNL     1      -5.598   4.005  41.591  0.00  0.00    -0.214 NA
BRANCH   4   3
ATOM      1  C   UNL     1      -3.850   2.179  45.834  0.00  0.00    +0.020 A 
ATOM      2  C   UNL     1      -4.617   2.000  44.623  0.00  0.00    +0.013 A 
ATOM      3  C   UNL     1      -4.981   3.144  43.796  0.00  0.00    +0.019 A 
ATOM     38  C   UNL     1      -4.549   4.466  44.226  0.00  0.00    +0.120 A 
ATOM     39  N   UNL     1      -3.812   4.607  45.398  0.00  0.00    -0.263 NA
ATOM     40  C   UNL     1      -3.458   3.514  46.203  0.00  0.00    +0.111 A 
ENDBRANCH   4   3
ENDBRANCH  10   9
BRANCH  12  13
ATOM     13  N   UNL     1      -6.129   3.653  34.736  0.00  0.00    -0.281 N 
ATOM     14  C   UNL     1      -6.155   2.292  34.478  0.00  0.00    +0.248 C 
ATOM     30  O   UNL     1      -6.468   1.439  35.296  0.00  0.00    -0.270 OA
ATOM     31  H   UNL     1      -5.667   4.233  34.036  0.00  0.00    +0.155 HD
BRANCH  14  15
ATOM     15  C   UNL     1      -5.762   1.807  33.120  0.00  0.00    +0.037 A 
ATOM     16  C   UNL     1      -5.771   0.379  32.792  0.00  0.00    +0.013 A 
ATOM     17  C   UNL     1      -5.371  -0.064  31.479  0.00  0.00    +0.005 A 
ATOM     18  C   UNL     1      -4.961   0.924  30.484  0.00  0.00    -0.033 A 
ATOM     28  C   UNL     1      -4.967   2.335  30.835  0.00  0.00    +0.005 A 
ATOM     29  C   UNL     1      -5.357   2.772  32.121  0.00  0.00    +0.013 A 
BRANCH  18  19
ATOM     19  C   UNL     1      -4.499   0.541  29.066  0.00  0.00    +0.119 C 
BRANCH  19  20
ATOM     20  N   UNL     1      -5.268   1.111  27.919  0.00  0.00    -0.302 NA
ATOM     21  C   UNL     1      -6.701   0.573  27.864  0.00  0.00    +0.066 C 
ATOM     22  C   UNL     1      -7.497   1.196  26.672  0.00  0.00    -0.064 C 
ATOM     23  N   UNL     1      -6.760   0.908  25.363  0.00  0.00    +0.379 N 
ATOM     24  C   UNL     1      -7.536   1.443  24.235  0.00  0.00    -0.096 C 
ATOM     25  H   UNL     1      -6.705  -0.199  25.242  0.00  0.00    -0.082 HD
ATOM     26  C   UNL     1      -5.333   1.437  25.410  0.00  0.00    -0.064 C 
ATOM     27  C   UNL     1      -4.559   0.834  26.616  0.00  0.00    +0.066 C 
ENDBRANCH  19  20
ENDBRANCH  18  19
ENDBRANCH  14  15
ENDBRANCH  12  13
TORSDOF 6
ENDMDL
MODEL 2
REMARK VINA RESULT:      -8.3      2.817      3.582
REMARK  Name = C:\Users\Docking\Desktop\test protocol\1iep_ligandH.pdb
REMARK  8 active torsions:
REMARK  status: ('A' for Active; 'I' for Inactive)
REMARK    1  A    between atoms: _5  and  _11
REMARK    2  A    between atoms: _19  and  _21
REMARK    3  A    between atoms: _22  and  _66
REMARK    4  A    between atoms: _27  and  _30
REMARK    5  A    between atoms: _32  and  _33
REMARK    6  A    between atoms: _38  and  _43
REMARK    7  A    between atoms: _43  and  _46
REMARK    8  A    between atoms: _53  and  _55
REMARK                            x       y       z     vdW  Elec       q    Type
REMARK                         _______ _______ _______ _____ _____    ______ ____
ROOT
ATOM     10  C   UNL     1      -6.490   3.638  38.968  0.00  0.00    +0.038 A 
ATOM     11  C   UNL     1      -5.946   3.427  37.675  0.00  0.00    +0.047 A 
ATOM     12  C   UNL     1      -6.778   2.963  36.575  0.00  0.00    +0.035 A 
ATOM     32  C   UNL     1      -8.161   2.727  36.827  0.00  0.00    +0.024 A 
ATOM     33  C   UNL     1      -8.730   2.936  38.136  0.00  0.00    +0.007 A 
ATOM     34  C   UNL     1      -7.913   3.391  39.225  0.00  0.00    -0.029 A 
ATOM     35  C   UNL     1      -8.575   3.591  40.608  0.00  0.00    +0.045 C 
ENDROOT
BRANCH  10   9
ATOM      4  C   UNL     1      -4.533   7.127  41.620  0.00  0.00    +0.077 A 
ATOM      5  C   UNL     1      -5.233   8.150  40.897  0.00  0.00    +0.048 A 
ATOM      6  C   UNL     1      -6.081   7.737  39.845  0.00  0.00    +0.116 A 
ATOM      7  N   UNL     1      -6.212   6.398  39.548  0.00  0.00    -0.223 NA
ATOM      8  C   UNL     1      -5.522   5.437  40.263  0.00  0.00    +0.220 A 
ATOM      9  N   UNL     1      -5.645   4.084  39.987  0.00  0.00    -0.283 N 
ATOM     36  H   UNL     1      -5.113   3.407  40.533  0.00  0.00    +0.155 HD
ATOM     37  N   UNL     1      -4.705   5.806  41.272  0.00  0.00    -0.214 NA
BRANCH   4   3
ATOM      1  C   UNL     1      -1.313   7.455  43.817  0.00  0.00    +0.020 A 
ATOM      2  C   UNL     1      -2.167   7.169  42.687  0.00  0.00    +0.013 A 
ATOM      3  C   UNL     1      -3.603   7.405  42.760  0.00  0.00    +0.019 A 
ATOM     38  C   UNL     1      -4.148   7.937  44.001  0.00  0.00    +0.120 A 
ATOM     39  N   UNL     1      -3.301   8.201  45.073  0.00  0.00    -0.263 NA
ATOM     40  C   UNL     1      -1.918   7.976  45.014  0.00  0.00    +0.111 A 
ENDBRANCH   4   3
ENDBRANCH  10   9
BRANCH  12  13
ATOM     13  N   UNL     1      -6.281   2.723  35.243  0.00  0.00    -0.281 N 
ATOM     14  C   UNL     1      -5.875   1.520  34.690  0.00  0.00    +0.248 C 
ATOM     30  O   UNL     1      -5.676   0.498  35.329  0.00  0.00    -0.270 OA
ATOM     31  H   UNL     1      -6.220   3.540  34.635  0.00  0.00    +0.155 HD
BRANCH  14  15
ATOM     15  C   UNL     1      -5.642   1.446  33.215  0.00  0.00    +0.037 A 
ATOM     16  C   UNL     1      -5.664   0.164  32.506  0.00  0.00    +0.013 A 
ATOM     17  C   UNL     1      -5.420   0.119  31.086  0.00  0.00    +0.005 A 
ATOM     18  C   UNL     1      -5.152   1.361  30.365  0.00  0.00    -0.033 A 
ATOM     28  C   UNL     1      -5.142   2.619  31.093  0.00  0.00    +0.005 A 
ATOM     29  C   UNL     1      -5.380   2.668  32.485  0.00  0.00    +0.013 A 
BRANCH  18  19
ATOM     19  C   UNL     1      -4.860   1.405  28.854  0.00  0.00    +0.119 C 
BRANCH  19  20
ATOM     20  N   UNL     1      -3.564   0.824  28.391  0.00  0.00    -0.302 NA
ATOM     21  C   UNL     1      -2.826   1.760  27.429  0.00  0.00    +0.066 C 
ATOM     22  C   UNL     1      -1.463   1.146  26.973  0.00  0.00    -0.064 C 
ATOM     23  N   UNL     1      -1.712  -0.215  26.320  0.00  0.00    +0.379 N 
ATOM     24  C   UNL     1      -0.438  -0.768  25.838  0.00  0.00    -0.096 C 
ATOM     25  H   UNL     1      -2.366  -0.049  25.433  0.00  0.00    -0.082 HD
ATOM     26  C   UNL     1      -2.447  -1.150  27.269  0.00  0.00    -0.064 C 
ATOM     27  C   UNL     1      -3.787  -0.519  27.740  0.00  0.00    +0.066 C 
ENDBRANCH  19  20
ENDBRANCH  18  19
ENDBRANCH  14  15
ENDBRANCH  12  13
TORSDOF 6
ENDMDL
MODEL 3
REMARK VINA RESULT:      -7.9      2.777      3.821
REMARK  Name = C:\Users\Docking\Desktop\test protocol\1iep_ligandH.pdb
REMARK  8 active torsions:
REMARK  status: ('A' for Active; 'I' for Inactive)
REMARK    1  A    between atoms: _5  and  _11
REMARK    2  A    between atoms: _19  and  _21
REMARK    3  A    between atoms: _22  and  _66
REMARK    4  A    between atoms: _27  and  _30
REMARK    5  A    between atoms: _32  and  _33
REMARK    6  A    between atoms: _38  and  _43
REMARK    7  A    between atoms: _43  and  _46
REMARK    8  A    between atoms: _53  and  _55
REMARK                            x       y       z     vdW  Elec       q    Type
REMARK                         _______ _______ _______ _____ _____    ______ ____
ROOT
ATOM     10  C   UNL     1      -6.339   3.759  40.378  0.00  0.00    +0.038 A 
ATOM     11  C   UNL     1      -6.101   3.378  39.033  0.00  0.00    +0.047 A 
ATOM     12  C   UNL     1      -7.149   2.772  38.226  0.00  0.00    +0.035 A 
ATOM     32  C   UNL     1      -8.429   2.570  38.821  0.00  0.00    +0.024 A 
ATOM     33  C   UNL     1      -8.687   2.950  40.187  0.00  0.00    +0.007 A 
ATOM     34  C   UNL     1      -7.657   3.546  40.989  0.00  0.00    -0.029 A 
ATOM     35  C   UNL     1      -7.989   3.927  42.450  0.00  0.00    +0.045 C 
ENDROOT
BRANCH  10   9
ATOM      4  C   UNL     1      -3.830   7.562  41.886  0.00  0.00    +0.077 A 
ATOM      5  C   UNL     1      -4.647   8.473  41.138  0.00  0.00    +0.048 A 
ATOM      6  C   UNL     1      -5.699   7.921  40.372  0.00  0.00    +0.116 A 
ATOM      7  N   UNL     1      -5.908   6.559  40.363  0.00  0.00    -0.223 NA
ATOM      8  C   UNL     1      -5.100   5.709  41.095  0.00  0.00    +0.220 A 
ATOM      9  N   UNL     1      -5.297   4.336  41.107  0.00  0.00    -0.283 N 
ATOM     36  H   UNL     1      -4.675   3.742  41.654  0.00  0.00    +0.155 HD
ATOM     37  N   UNL     1      -4.088   6.210  41.833  0.00  0.00    -0.214 NA
BRANCH   4   3
ATOM      1  C   UNL     1      -0.972   7.592  44.557  0.00  0.00    +0.020 A 
ATOM      2  C   UNL     1      -2.079   7.128  43.753  0.00  0.00    +0.013 A 
ATOM      3  C   UNL     1      -2.682   7.992  42.746  0.00  0.00    +0.019 A 
ATOM     38  C   UNL     1      -2.136   9.330  42.576  0.00  0.00    +0.120 A 
ATOM     39  N   UNL     1      -1.070   9.750  43.365  0.00  0.00    -0.263 NA
ATOM     40  C   UNL     1      -0.483   8.928  44.339  0.00  0.00    +0.111 A 
ENDBRANCH   4   3
ENDBRANCH  10   9
BRANCH  12  13
ATOM     13  N   UNL     1      -6.964   2.358  36.857  0.00  0.00    -0.281 N 
ATOM     14  C   UNL     1      -6.399   3.080  35.818  0.00  0.00    +0.248 C 
ATOM     30  O   UNL     1      -6.159   4.277  35.859  0.00  0.00    -0.270 OA
ATOM     31  H   UNL     1      -7.289   1.420  36.626  0.00  0.00    +0.155 HD
BRANCH  14  15
ATOM     15  C   UNL     1      -6.065   2.371  34.545  0.00  0.00    +0.037 A 
ATOM     16  C   UNL     1      -5.766   3.114  33.318  0.00  0.00    +0.013 A 
ATOM     17  C   UNL     1      -5.464   2.406  32.099  0.00  0.00    +0.005 A 
ATOM     18  C   UNL     1      -5.458   0.945  32.103  0.00  0.00    -0.033 A 
ATOM     28  C   UNL     1      -5.753   0.234  33.335  0.00  0.00    +0.005 A 
ATOM     29  C   UNL     1      -6.051   0.924  34.531  0.00  0.00    +0.013 A 
BRANCH  18  19
ATOM     19  C   UNL     1      -5.168   0.107  30.843  0.00  0.00    +0.119 C 
BRANCH  19  20
ATOM     20  N   UNL     1      -4.945   0.848  29.566  0.00  0.00    -0.302 NA
ATOM     21  C   UNL     1      -6.204   0.880  28.694  0.00  0.00    +0.066 C 
ATOM     22  C   UNL     1      -5.960   1.678  27.372  0.00  0.00    -0.064 C 
ATOM     23  N   UNL     1      -4.790   1.052  26.611  0.00  0.00    +0.379 N 
ATOM     24  C   UNL     1      -4.595   1.764  25.339  0.00  0.00    -0.096 C 
ATOM     25  H   UNL     1      -5.067  -0.001  26.370  0.00  0.00    -0.082 HD
ATOM     26  C   UNL     1      -3.535   1.013  27.471  0.00  0.00    -0.064 C 
ATOM     27  C   UNL     1      -3.796   0.244  28.796  0.00  0.00    +0.066 C 
ENDBRANCH  19  20
ENDBRANCH  18  19
ENDBRANCH  14  15
ENDBRANCH  12  13
TORSDOF 6
ENDMDL
MODEL 4
REMARK VINA RESULT:      -7.8      1.863      2.843
REMARK  Name = C:\Users\Docking\Desktop\test protocol\1iep_ligandH.pdb
REMARK  8 active torsions:
REMARK  status: ('A' for Active; 'I' for Inactive)
REMARK    1  A    between atoms: _5  and  _11
REMARK    2  A    between atoms: _19  and  _21
REMARK    3  A    between atoms: _22  and  _66
REMARK    4  A    between atoms: _27  and  _30
REMARK    5  A    between atoms: _32  and  _33
REMARK    6  A    between atoms: _38  and  _43
REMARK    7  A    between atoms: _43  and  _46
REMARK    8  A    between atoms: _53  and  _55
REMARK                            x       y       z     vdW  Elec       q    Type
REMARK                         _______ _______ _______ _____ _____    ______ ____
ROOT
ATOM     10  C   UNL     1      -7.215   4.204  40.519  0.00  0.00    +0.038 A 
ATOM     11  C   UNL     1      -6.849   3.793  39.212  0.00  0.00    +0.047 A 
ATOM     12  C   UNL     1      -7.843   3.293  38.274  0.00  0.00    +0.035 A 
ATOM     32  C   UNL     1      -9.202   3.228  38.701  0.00  0.00    +0.024 A 
ATOM     33  C   UNL     1      -9.591   3.641  40.027  0.00  0.00    +0.007 A 
ATOM     34  C   UNL     1      -8.614   4.132  40.956  0.00  0.00    -0.029 A 
ATOM     35  C   UNL     1      -9.088   4.555  42.367  0.00  0.00    +0.045 C 
ENDROOT
BRANCH  10   9
ATOM      4  C   UNL     1      -4.106   3.607  44.127  0.00  0.00    +0.077 A 
ATOM      5  C   UNL     1      -4.519   2.249  44.336  0.00  0.00    +0.048 A 
ATOM      6  C   UNL     1      -5.539   1.744  43.498  0.00  0.00    +0.116 A 
ATOM      7  N   UNL     1      -6.097   2.547  42.527  0.00  0.00    -0.223 NA
ATOM      8  C   UNL     1      -5.677   3.853  42.353  0.00  0.00    +0.220 A 
ATOM      9  N   UNL     1      -6.220   4.675  41.378  0.00  0.00    -0.283 N 
ATOM     36  H   UNL     1      -5.888   5.635  41.286  0.00  0.00    +0.155 HD
ATOM     37  N   UNL     1      -4.706   4.359  43.141  0.00  0.00    -0.214 NA
BRANCH   4   3
ATOM      1  C   UNL     1      -2.052   6.287  46.100  0.00  0.00    +0.020 A 
ATOM      2  C   UNL     1      -3.110   5.683  45.325  0.00  0.00    +0.013 A 
ATOM      3  C   UNL     1      -3.038   4.282  44.929  0.00  0.00    +0.019 A 
ATOM     38  C   UNL     1      -1.871   3.514  45.338  0.00  0.00    +0.120 A 
ATOM     39  N   UNL     1      -0.866   4.123  46.083  0.00  0.00    -0.263 NA
ATOM     40  C   UNL     1      -0.925   5.471  46.468  0.00  0.00    +0.111 A 
ENDBRANCH   4   3
ENDBRANCH  10   9
BRANCH  12  13
ATOM     13  N   UNL     1      -7.530   2.854  36.937  0.00  0.00    -0.281 N 
ATOM     14  C   UNL     1      -6.775   3.512  35.980  0.00  0.00    +0.248 C 
ATOM     30  O   UNL     1      -6.431   4.682  36.055  0.00  0.00    -0.270 OA
ATOM     31  H   UNL     1      -7.911   1.948  36.663  0.00  0.00    +0.155 HD
BRANCH  14  15
ATOM     15  C   UNL     1      -6.355   2.766  34.755  0.00  0.00    +0.037 A 
ATOM     16  C   UNL     1      -6.032   3.469  33.510  0.00  0.00    +0.013 A 
ATOM     17  C   UNL     1      -5.646   2.725  32.338  0.00  0.00    +0.005 A 
ATOM     18  C   UNL     1      -5.578   1.267  32.406  0.00  0.00    -0.033 A 
ATOM     28  C   UNL     1      -5.898   0.595  33.654  0.00  0.00    +0.005 A 
ATOM     29  C   UNL     1      -6.279   1.322  34.805  0.00  0.00    +0.013 A 
BRANCH  18  19
ATOM     19  C   UNL     1      -5.196   0.391  31.198  0.00  0.00    +0.119 C 
BRANCH  19  20
ATOM     20  N   UNL     1      -5.145   1.054  29.861  0.00  0.00    -0.302 NA
ATOM     21  C   UNL     1      -6.469   0.920  29.103  0.00  0.00    +0.066 C 
ATOM     22  C   UNL     1      -6.406   1.638  27.716  0.00  0.00    -0.064 C 
ATOM     23  N   UNL     1      -5.252   1.058  26.896  0.00  0.00    +0.379 N 
ATOM     24  C   UNL     1      -5.226   1.691  25.570  0.00  0.00    -0.096 C 
ATOM     25  H   UNL     1      -5.454  -0.028  26.749  0.00  0.00    -0.082 HD
ATOM     26  C   UNL     1      -3.932   1.185  27.644  0.00  0.00    -0.064 C 
ATOM     27  C   UNL     1      -4.015   0.493  29.033  0.00  0.00    +0.066 C 
ENDBRANCH  19  20
ENDBRANCH  18  19
ENDBRANCH  14  15
ENDBRANCH  12  13
TORSDOF 6
ENDMDL
MODEL 5
REMARK VINA RESULT:      -7.5      8.646     15.091
REMARK  Name = C:\Users\Docking\Desktop\test protocol\1iep_ligandH.pdb
REMARK  8 active torsions:
REMARK  status: ('A' for Active; 'I' for Inactive)
REMARK    1  A    between atoms: _5  and  _11
REMARK    2  A    between atoms: _19  and  _21
REMARK    3  A    between atoms: _22  and  _66
REMARK    4  A    between atoms: _27  and  _30
REMARK    5  A    between atoms: _32  and  _33
REMARK    6  A    between atoms: _38  and  _43
REMARK    7  A    between atoms: _43  and  _46
REMARK    8  A    between atoms: _53  and  _55
REMARK                            x       y       z     vdW  Elec       q    Type
REMARK                         _______ _______ _______ _____ _____    ______ ____
ROOT
ATOM     10  C   UNL     1      -4.888   3.707  44.426  0.00  0.00    +0.038 A 
ATOM     11  C   UNL     1      -4.330   2.791  45.353  0.00  0.00    +0.047 A 
ATOM     12  C   UNL     1      -2.910   2.809  45.668  0.00  0.00    +0.035 A 
ATOM     32  C   UNL     1      -2.087   3.777  45.022  0.00  0.00    +0.024 A 
ATOM     33  C   UNL     1      -2.637   4.716  44.076  0.00  0.00    +0.007 A 
ATOM     34  C   UNL     1      -4.037   4.700  43.759  0.00  0.00    -0.029 A 
ATOM     35  C   UNL     1      -4.571   5.726  42.732  0.00  0.00    +0.045 C 
ENDROOT
BRANCH  10   9
ATOM      4  C   UNL     1      -8.624   2.288  41.769  0.00  0.00    +0.077 A 
ATOM      5  C   UNL     1      -7.774   1.640  40.812  0.00  0.00    +0.048 A 
ATOM      6  C   UNL     1      -6.380   1.701  41.037  0.00  0.00    +0.116 A 
ATOM      7  N   UNL     1      -5.885   2.363  42.140  0.00  0.00    -0.223 NA
ATOM      8  C   UNL     1      -6.733   2.979  43.041  0.00  0.00    +0.220 A 
ATOM      9  N   UNL     1      -6.258   3.644  44.161  0.00  0.00    -0.283 N 
ATOM     36  H   UNL     1      -6.915   4.093  44.798  0.00  0.00    +0.155 HD
ATOM     37  N   UNL     1      -8.068   2.937  42.848  0.00  0.00    -0.214 NA
BRANCH   4   3
ATOM      1  C   UNL     1     -12.417   2.695  42.635  0.00  0.00    +0.020 A 
ATOM      2  C   UNL     1     -10.980   2.692  42.782  0.00  0.00    +0.013 A 
ATOM      3  C   UNL     1     -10.118   2.309  41.671  0.00  0.00    +0.019 A 
ATOM     38  C   UNL     1     -10.747   1.933  40.414  0.00  0.00    +0.120 A 
ATOM     39  N   UNL     1     -12.134   1.944  40.302  0.00  0.00    -0.263 NA
ATOM     40  C   UNL     1     -12.974   2.309  41.365  0.00  0.00    +0.111 A 
ENDBRANCH   4   3
ENDBRANCH  10   9
BRANCH  12  13
ATOM     13  N   UNL     1      -2.285   1.898  46.595  0.00  0.00    -0.281 N 
ATOM     14  C   UNL     1      -1.962   2.123  47.923  0.00  0.00    +0.248 C 
ATOM     30  O   UNL     1      -1.967   3.222  48.459  0.00  0.00    -0.270 OA
ATOM     31  H   UNL     1      -2.053   0.975  46.228  0.00  0.00    +0.155 HD
BRANCH  14  15
ATOM     15  C   UNL     1      -1.561   0.963  48.776  0.00  0.00    +0.037 A 
ATOM     16  C   UNL     1      -0.156   0.577  48.923  0.00  0.00    +0.013 A 
ATOM     17  C   UNL     1       0.202  -0.557  49.737  0.00  0.00    +0.005 A 
ATOM     18  C   UNL     1      -0.849  -1.313  50.413  0.00  0.00    -0.033 A 
ATOM     28  C   UNL     1      -2.235  -0.906  50.254  0.00  0.00    +0.005 A 
ATOM     29  C   UNL     1      -2.590   0.205  49.456  0.00  0.00    +0.013 A 
BRANCH  18  19
ATOM     19  C   UNL     1      -0.561  -2.550  51.285  0.00  0.00    +0.119 C 
BRANCH  19  20
ATOM     20  N   UNL     1      -0.237  -3.824  50.578  0.00  0.00    -0.302 NA
ATOM     21  C   UNL     1       1.270  -4.092  50.539  0.00  0.00    +0.066 C 
ATOM     22  C   UNL     1       1.590  -5.441  49.816  0.00  0.00    -0.064 C 
ATOM     23  N   UNL     1       1.010  -5.408  48.401  0.00  0.00    +0.379 N 
ATOM     24  C   UNL     1       1.359  -6.651  47.698  0.00  0.00    -0.096 C 
ATOM     25  H   UNL     1       1.494  -4.564  47.857  0.00  0.00    -0.082 HD
ATOM     26  C   UNL     1      -0.488  -5.139  48.430  0.00  0.00    -0.064 C 
ATOM     27  C   UNL     1      -0.797  -3.812  49.177  0.00  0.00    +0.066 C 
ENDBRANCH  19  20
ENDBRANCH  18  19
ENDBRANCH  14  15
ENDBRANCH  12  13
TORSDOF 6
ENDMDL
