MODEL 1
REMARK VINA RESULT:      -6.8      0.000      0.000
REMARK  Name = C:\Users\Docking\Desktop\test protocol\1iep_ligandH.pdb
REMARK  8 active torsions:
REMARK  status: ('A' for Active; 'I' for Inactive)
REMARK    1  A    between atoms: _5  and  _11
REMARK    2  A    between atoms: _19  and  _21
REMARK    3  A    between atoms: _22  and  _66
REMARK    4  A    between atoms: _27  and  _30
REMARK    5  A    between atoms: _32  and  _33
REMARK    6  A    between atoms: _38  and  _43
REMARK    7  A    between atoms: _43  and  _46
REMARK    8  A    between atoms: _53  and  _55
REMARK                            x       y       z     vdW  Elec       q    Type
REMARK                         _______ _______ _______ _____ _____    ______ ____
ROOT
ATOM     10  C   UNL     1      27.426  10.642   0.509  0.00  0.00    +0.038 A 
ATOM     11  C   UNL     1      26.234  11.340   0.830  0.00  0.00    +0.047 A 
ATOM     12  C   UNL     1      26.250  12.768   1.107  0.00  0.00    +0.035 A 
ATOM     32  C   UNL     1      27.498  13.454   1.045  0.00  0.00    +0.024 A 
ATOM     33  C   UNL     1      28.719  12.760   0.721  0.00  0.00    +0.007 A 
ATOM     34  C   UNL     1      28.710  11.351   0.450  0.00  0.00    -0.029 A 
ATOM     35  C   UNL     1      30.051  10.657   0.115  0.00  0.00    +0.045 C 
ENDROOT
BRANCH  10   9
ATOM      4  C   UNL     1      26.954   6.914  -2.477  0.00  0.00    +0.077 A 
ATOM      5  C   UNL     1      26.814   7.770  -3.619  0.00  0.00    +0.048 A 
ATOM      6  C   UNL     1      26.862   9.164  -3.394  0.00  0.00    +0.116 A 
ATOM      7  N   UNL     1      27.038   9.654  -2.118  0.00  0.00    -0.223 NA
ATOM      8  C   UNL     1      27.168   8.800  -1.038  0.00  0.00    +0.220 A 
ATOM      9  N   UNL     1      27.353   9.271   0.253  0.00  0.00    -0.283 N 
ATOM     36  H   UNL     1      27.437   8.608   1.024  0.00  0.00    +0.155 HD
ATOM     37  N   UNL     1      27.123   7.465  -1.226  0.00  0.00    -0.214 NA
BRANCH   4   3
ATOM      1  C   UNL     1      25.721   3.204  -2.624  0.00  0.00    +0.020 A 
ATOM      2  C   UNL     1      25.691   4.647  -2.548  0.00  0.00    +0.013 A 
ATOM      3  C   UNL     1      26.927   5.419  -2.552  0.00  0.00    +0.019 A 
ATOM     38  C   UNL     1      28.187   4.694  -2.636  0.00  0.00    +0.120 A 
ATOM     39  N   UNL     1      28.184   3.305  -2.706  0.00  0.00    -0.263 NA
ATOM     40  C   UNL     1      27.001   2.552  -2.701  0.00  0.00    +0.111 A 
ENDBRANCH   4   3
ENDBRANCH  10   9
BRANCH  12  13
ATOM     13  N   UNL     1      25.073  13.529   1.446  0.00  0.00    -0.281 N 
ATOM     14  C   UNL     1      24.177  14.141   0.584  0.00  0.00    +0.248 C 
ATOM     30  O   UNL     1      24.372  14.309  -0.611  0.00  0.00    -0.270 OA
ATOM     31  H   UNL     1      24.876  13.628   2.441  0.00  0.00    +0.155 HD
BRANCH  14  15
ATOM     15  C   UNL     1      22.885  14.655   1.132  0.00  0.00    +0.037 A 
ATOM     16  C   UNL     1      21.952  15.412   0.293  0.00  0.00    +0.013 A 
ATOM     17  C   UNL     1      20.720  15.910   0.851  0.00  0.00    +0.005 A 
ATOM     18  C   UNL     1      20.413  15.652   2.256  0.00  0.00    -0.033 A 
ATOM     28  C   UNL     1      21.354  14.893   3.063  0.00  0.00    +0.005 A 
ATOM     29  C   UNL     1      22.563  14.404   2.520  0.00  0.00    +0.013 A 
BRANCH  18  19
ATOM     19  C   UNL     1      19.132  16.163   2.940  0.00  0.00    +0.119 C 
BRANCH  19  20
ATOM     20  N   UNL     1      19.078  17.613   3.295  0.00  0.00    -0.302 NA
ATOM     21  C   UNL     1      19.805  17.909   4.611  0.00  0.00    +0.066 C 
ATOM     22  C   UNL     1      19.759  19.433   4.956  0.00  0.00    -0.064 C 
ATOM     23  N   UNL     1      18.302  19.894   5.026  0.00  0.00    +0.379 N 
ATOM     24  C   UNL     1      18.254  21.313   5.407  0.00  0.00    -0.096 C 
ATOM     25  H   UNL     1      17.801  19.309   5.833  0.00  0.00    -0.082 HD
ATOM     26  C   UNL     1      17.571  19.601   3.723  0.00  0.00    -0.064 C 
ATOM     27  C   UNL     1      17.648  18.088   3.374  0.00  0.00    +0.066 C 
ENDBRANCH  19  20
ENDBRANCH  18  19
ENDBRANCH  14  15
ENDBRANCH  12  13
TORSDOF 6
ENDMDL
MODEL 2
REMARK VINA RESULT:      -6.7     28.822     30.647
REMARK  Name = C:\Users\Docking\Desktop\test protocol\1iep_ligandH.pdb
REMARK  8 active torsions:
REMARK  status: ('A' for Active; 'I' for Inactive)
REMARK    1  A    between atoms: _5  and  _11
REMARK    2  A    between atoms: _19  and  _21
REMARK    3  A    between atoms: _22  and  _66
REMARK    4  A    between atoms: _27  and  _30
REMARK    5  A    between atoms: _32  and  _33
REMARK    6  A    between atoms: _38  and  _43
REMARK    7  A    between atoms: _43  and  _46
REMARK    8  A    between atoms: _53  and  _55
REMARK                            x       y       z     vdW  Elec       q    Type
REMARK                         _______ _______ _______ _____ _____    ______ ____
ROOT
ATOM     10  C   UNL     1      23.187   2.746  31.158  0.00  0.00    +0.038 A 
ATOM     11  C   UNL     1      22.923   3.803  30.249  0.00  0.00    +0.047 A 
ATOM     12  C   UNL     1      23.746   5.001  30.228  0.00  0.00    +0.035 A 
ATOM     32  C   UNL     1      24.834   5.090  31.145  0.00  0.00    +0.024 A 
ATOM     33  C   UNL     1      25.117   4.026  32.076  0.00  0.00    +0.007 A 
ATOM     34  C   UNL     1      24.306   2.842  32.103  0.00  0.00    -0.029 A 
ATOM     35  C   UNL     1      24.651   1.736  33.128  0.00  0.00    +0.045 C 
ENDROOT
BRANCH  10   9
ATOM      4  C   UNL     1      19.131   0.443  32.288  0.00  0.00    +0.077 A 
ATOM      5  C   UNL     1      18.620   1.573  33.008  0.00  0.00    +0.048 A 
ATOM      6  C   UNL     1      19.435   2.726  33.070  0.00  0.00    +0.116 A 
ATOM      7  N   UNL     1      20.667   2.736  32.454  0.00  0.00    -0.223 NA
ATOM      8  C   UNL     1      21.131   1.628  31.769  0.00  0.00    +0.220 A 
ATOM      9  N   UNL     1      22.364   1.618  31.135  0.00  0.00    -0.283 N 
ATOM     36  H   UNL     1      22.673   0.778  30.646  0.00  0.00    +0.155 HD
ATOM     37  N   UNL     1      20.372   0.514  31.696  0.00  0.00    -0.214 NA
BRANCH   4   3
ATOM      1  C   UNL     1      18.084  -3.318  32.535  0.00  0.00    +0.020 A 
ATOM      2  C   UNL     1      18.841  -2.101  32.717  0.00  0.00    +0.013 A 
ATOM      3  C   UNL     1      18.386  -0.846  32.130  0.00  0.00    +0.019 A 
ATOM     38  C   UNL     1      17.152  -0.858  31.360  0.00  0.00    +0.120 A 
ATOM     39  N   UNL     1      16.445  -2.046  31.200  0.00  0.00    -0.263 NA
ATOM     40  C   UNL     1      16.873  -3.259  31.759  0.00  0.00    +0.111 A 
ENDBRANCH   4   3
ENDBRANCH  10   9
BRANCH  12  13
ATOM     13  N   UNL     1      23.521   6.109  29.333  0.00  0.00    -0.281 N 
ATOM     14  C   UNL     1      24.156   6.376  28.131  0.00  0.00    +0.248 C 
ATOM     30  O   UNL     1      25.169   5.813  27.745  0.00  0.00    -0.270 OA
ATOM     31  H   UNL     1      22.807   6.778  29.621  0.00  0.00    +0.155 HD
BRANCH  14  15
ATOM     15  C   UNL     1      23.591   7.431  27.235  0.00  0.00    +0.037 A 
ATOM     16  C   UNL     1      22.337   7.219  26.509  0.00  0.00    +0.013 A 
ATOM     17  C   UNL     1      21.823   8.246  25.637  0.00  0.00    +0.005 A 
ATOM     18  C   UNL     1      22.564   9.496  25.489  0.00  0.00    -0.033 A 
ATOM     28  C   UNL     1      23.803   9.682  26.226  0.00  0.00    +0.005 A 
ATOM     29  C   UNL     1      24.310   8.677  27.080  0.00  0.00    +0.013 A 
BRANCH  18  19
ATOM     19  C   UNL     1      22.102  10.638  24.565  0.00  0.00    +0.119 C 
BRANCH  19  20
ATOM     20  N   UNL     1      21.236  11.696  25.167  0.00  0.00    -0.302 NA
ATOM     21  C   UNL     1      22.050  12.905  25.637  0.00  0.00    +0.066 C 
ATOM     22  C   UNL     1      21.126  14.012  26.243  0.00  0.00    -0.064 C 
ATOM     23  N   UNL     1      20.317  13.420  27.399  0.00  0.00    +0.379 N 
ATOM     24  C   UNL     1      19.490  14.473  28.008  0.00  0.00    -0.096 C 
ATOM     25  H   UNL     1      21.039  13.068  28.171  0.00  0.00    -0.082 HD
ATOM     26  C   UNL     1      19.507  12.216  26.940  0.00  0.00    -0.064 C 
ATOM     27  C   UNL     1      20.431  11.135  26.313  0.00  0.00    +0.066 C 
ENDBRANCH  19  20
ENDBRANCH  18  19
ENDBRANCH  14  15
ENDBRANCH  12  13
TORSDOF 6
ENDMDL
MODEL 3
REMARK VINA RESULT:      -6.5     37.790     41.470
REMARK  Name = C:\Users\Docking\Desktop\test protocol\1iep_ligandH.pdb
REMARK  8 active torsions:
REMARK  status: ('A' for Active; 'I' for Inactive)
REMARK    1  A    between atoms: _5  and  _11
REMARK    2  A    between atoms: _19  and  _21
REMARK    3  A    between atoms: _22  and  _66
REMARK    4  A    between atoms: _27  and  _30
REMARK    5  A    between atoms: _32  and  _33
REMARK    6  A    between atoms: _38  and  _43
REMARK    7  A    between atoms: _43  and  _46
REMARK    8  A    between atoms: _53  and  _55
REMARK                            x       y       z     vdW  Elec       q    Type
REMARK                         _______ _______ _______ _____ _____    ______ ____
ROOT
ATOM     10  C   UNL     1       9.991   6.489  36.820  0.00  0.00    +0.038 A 
ATOM     11  C   UNL     1      10.836   5.781  37.712  0.00  0.00    +0.047 A 
ATOM     12  C   UNL     1      10.991   6.201  39.096  0.00  0.00    +0.035 A 
ATOM     32  C   UNL     1      10.267   7.347  39.539  0.00  0.00    +0.024 A 
ATOM     33  C   UNL     1       9.404   8.079  38.645  0.00  0.00    +0.007 A 
ATOM     34  C   UNL     1       9.250   7.671  37.278  0.00  0.00    -0.029 A 
ATOM     35  C   UNL     1       8.317   8.498  36.363  0.00  0.00    +0.045 C 
ENDROOT
BRANCH  10   9
ATOM      4  C   UNL     1      11.800   5.738  32.438  0.00  0.00    +0.077 A 
ATOM      5  C   UNL     1      13.066   6.310  32.798  0.00  0.00    +0.048 A 
ATOM      6  C   UNL     1      13.208   6.793  34.118  0.00  0.00    +0.116 A 
ATOM      7  N   UNL     1      12.156   6.704  35.004  0.00  0.00    -0.223 NA
ATOM      8  C   UNL     1      10.948   6.148  34.624  0.00  0.00    +0.220 A 
ATOM      9  N   UNL     1       9.880   6.042  35.501  0.00  0.00    -0.283 N 
ATOM     36  H   UNL     1       9.003   5.632  35.180  0.00  0.00    +0.155 HD
ATOM     37  N   UNL     1      10.787   5.681  33.369  0.00  0.00    -0.214 NA
BRANCH   4   3
ATOM      1  C   UNL     1      10.158   3.736  29.506  0.00  0.00    +0.020 A 
ATOM      2  C   UNL     1      10.409   4.243  30.835  0.00  0.00    +0.013 A 
ATOM      3  C   UNL     1      11.497   5.182  31.081  0.00  0.00    +0.019 A 
ATOM     38  C   UNL     1      12.317   5.591  29.952  0.00  0.00    +0.120 A 
ATOM     39  N   UNL     1      12.053   5.085  28.683  0.00  0.00    -0.263 NA
ATOM     40  C   UNL     1      11.010   4.180  28.434  0.00  0.00    +0.111 A 
ENDBRANCH   4   3
ENDBRANCH  10   9
BRANCH  12  13
ATOM     13  N   UNL     1      11.841   5.527  40.045  0.00  0.00    -0.281 N 
ATOM     14  C   UNL     1      13.217   5.377  40.000  0.00  0.00    +0.248 C 
ATOM     30  O   UNL     1      13.907   5.618  39.020  0.00  0.00    -0.270 OA
ATOM     31  H   UNL     1      11.370   5.109  40.848  0.00  0.00    +0.155 HD
BRANCH  14  15
ATOM     15  C   UNL     1      13.929   4.872  41.213  0.00  0.00    +0.037 A 
ATOM     16  C   UNL     1      13.544   3.610  41.850  0.00  0.00    +0.013 A 
ATOM     17  C   UNL     1      14.236   3.155  43.029  0.00  0.00    +0.005 A 
ATOM     18  C   UNL     1      15.322   3.963  43.580  0.00  0.00    -0.033 A 
ATOM     28  C   UNL     1      15.686   5.208  42.925  0.00  0.00    +0.005 A 
ATOM     29  C   UNL     1      15.010   5.658  41.769  0.00  0.00    +0.013 A 
BRANCH  18  19
ATOM     19  C   UNL     1      16.101   3.565  44.847  0.00  0.00    +0.119 C 
BRANCH  19  20
ATOM     20  N   UNL     1      15.850   2.203  45.405  0.00  0.00    -0.302 NA
ATOM     21  C   UNL     1      16.068   2.153  46.920  0.00  0.00    +0.066 C 
ATOM     22  C   UNL     1      15.778   0.726  47.490  0.00  0.00    -0.064 C 
ATOM     23  N   UNL     1      16.671  -0.294  46.781  0.00  0.00    +0.379 N 
ATOM     24  C   UNL     1      16.443  -1.628  47.355  0.00  0.00    -0.096 C 
ATOM     25  H   UNL     1      17.731  -0.014  46.984  0.00  0.00    -0.082 HD
ATOM     26  C   UNL     1      16.463  -0.249  45.274  0.00  0.00    -0.064 C 
ATOM     27  C   UNL     1      16.724   1.180  44.722  0.00  0.00    +0.066 C 
ENDBRANCH  19  20
ENDBRANCH  18  19
ENDBRANCH  14  15
ENDBRANCH  12  13
TORSDOF 6
ENDMDL
MODEL 4
REMARK VINA RESULT:      -6.4     53.650     57.388
REMARK  Name = C:\Users\Docking\Desktop\test protocol\1iep_ligandH.pdb
REMARK  8 active torsions:
REMARK  status: ('A' for Active; 'I' for Inactive)
REMARK    1  A    between atoms: _5  and  _11
REMARK    2  A    between atoms: _19  and  _21
REMARK    3  A    between atoms: _22  and  _66
REMARK    4  A    between atoms: _27  and  _30
REMARK    5  A    between atoms: _32  and  _33
REMARK    6  A    between atoms: _38  and  _43
REMARK    7  A    between atoms: _43  and  _46
REMARK    8  A    between atoms: _53  and  _55
REMARK                            x       y       z     vdW  Elec       q    Type
REMARK                         _______ _______ _______ _____ _____    ______ ____
ROOT
ATOM     10  C   UNL     1      -0.157  -2.721  50.462  0.00  0.00    +0.038 A 
ATOM     11  C   UNL     1      -0.995  -1.988  49.583  0.00  0.00    +0.047 A 
ATOM     12  C   UNL     1      -0.667  -0.625  49.192  0.00  0.00    +0.035 A 
ATOM     32  C   UNL     1       0.525  -0.042  49.713  0.00  0.00    +0.024 A 
ATOM     33  C   UNL     1       1.388  -0.772  50.607  0.00  0.00    +0.007 A 
ATOM     34  C   UNL     1       1.068  -2.115  50.999  0.00  0.00    -0.029 A 
ATOM     35  C   UNL     1       2.026  -2.848  51.966  0.00  0.00    +0.045 C 
ENDROOT
BRANCH  10   9
ATOM      4  C   UNL     1      -2.614  -5.871  53.121  0.00  0.00    +0.077 A 
ATOM      5  C   UNL     1      -3.204  -4.831  53.914  0.00  0.00    +0.048 A 
ATOM      6  C   UNL     1      -2.844  -3.499  53.610  0.00  0.00    +0.116 A 
ATOM      7  N   UNL     1      -1.958  -3.239  52.586  0.00  0.00    -0.223 NA
ATOM      8  C   UNL     1      -1.406  -4.265  51.842  0.00  0.00    +0.220 A 
ATOM      9  N   UNL     1      -0.520  -4.025  50.804  0.00  0.00    -0.283 N 
ATOM     36  H   UNL     1      -0.128  -4.810  50.283  0.00  0.00    +0.155 HD
ATOM     37  N   UNL     1      -1.733  -5.545  52.114  0.00  0.00    -0.214 NA
BRANCH   4   3
ATOM      1  C   UNL     1      -2.213  -9.676  53.935  0.00  0.00    +0.020 A 
ATOM      2  C   UNL     1      -1.886  -8.280  53.759  0.00  0.00    +0.013 A 
ATOM      3  C   UNL     1      -2.898  -7.328  53.319  0.00  0.00    +0.019 A 
ATOM     38  C   UNL     1      -4.242  -7.824  53.064  0.00  0.00    +0.120 A 
ATOM     39  N   UNL     1      -4.527  -9.175  53.241  0.00  0.00    -0.263 NA
ATOM     40  C   UNL     1      -3.561 -10.101  53.662  0.00  0.00    +0.111 A 
ENDBRANCH   4   3
ENDBRANCH  10   9
BRANCH  12  13
ATOM     13  N   UNL     1      -1.484   0.171  48.310  0.00  0.00    -0.281 N 
ATOM     14  C   UNL     1      -2.049   1.410  48.561  0.00  0.00    +0.248 C 
ATOM     30  O   UNL     1      -2.115   1.930  49.665  0.00  0.00    -0.270 OA
ATOM     31  H   UNL     1      -1.668  -0.228  47.390  0.00  0.00    +0.155 HD
BRANCH  14  15
ATOM     15  C   UNL     1      -2.640   2.178  47.422  0.00  0.00    +0.037 A 
ATOM     16  C   UNL     1      -4.011   2.689  47.481  0.00  0.00    +0.013 A 
ATOM     17  C   UNL     1      -4.562   3.412  46.362  0.00  0.00    +0.005 A 
ATOM     18  C   UNL     1      -3.739   3.629  45.174  0.00  0.00    -0.033 A 
ATOM     28  C   UNL     1      -2.380   3.115  45.145  0.00  0.00    +0.005 A 
ATOM     29  C   UNL     1      -1.837   2.406  46.240  0.00  0.00    +0.013 A 
BRANCH  18  19
ATOM     19  C   UNL     1      -4.252   4.370  43.926  0.00  0.00    +0.119 C 
BRANCH  19  20
ATOM     20  N   UNL     1      -5.526   3.885  43.317  0.00  0.00    -0.302 NA
ATOM     21  C   UNL     1      -5.476   2.388  42.998  0.00  0.00    +0.066 C 
ATOM     22  C   UNL     1      -6.825   1.892  42.383  0.00  0.00    -0.064 C 
ATOM     23  N   UNL     1      -7.138   2.703  41.124  0.00  0.00    +0.379 N 
ATOM     24  C   UNL     1      -8.376   2.201  40.511  0.00  0.00    -0.096 C 
ATOM     25  H   UNL     1      -6.308   2.535  40.399  0.00  0.00    -0.082 HD
ATOM     26  C   UNL     1      -7.186   4.193  41.432  0.00  0.00    -0.064 C 
ATOM     27  C   UNL     1      -5.852   4.670  42.070  0.00  0.00    +0.066 C 
ENDBRANCH  19  20
ENDBRANCH  18  19
ENDBRANCH  14  15
ENDBRANCH  12  13
TORSDOF 6
ENDMDL
MODEL 5
REMARK VINA RESULT:      -6.4     35.539     36.972
REMARK  Name = C:\Users\Docking\Desktop\test protocol\1iep_ligandH.pdb
REMARK  8 active torsions:
REMARK  status: ('A' for Active; 'I' for Inactive)
REMARK    1  A    between atoms: _5  and  _11
REMARK    2  A    between atoms: _19  and  _21
REMARK    3  A    between atoms: _22  and  _66
REMARK    4  A    between atoms: _27  and  _30
REMARK    5  A    between atoms: _32  and  _33
REMARK    6  A    between atoms: _38  and  _43
REMARK    7  A    between atoms: _43  and  _46
REMARK    8  A    between atoms: _53  and  _55
REMARK                            x       y       z     vdW  Elec       q    Type
REMARK                         _______ _______ _______ _____ _____    ______ ____
ROOT
ATOM     10  C   UNL     1      19.054  -4.806  33.362  0.00  0.00    +0.038 A 
ATOM     11  C   UNL     1      18.700  -3.459  33.095  0.00  0.00    +0.047 A 
ATOM     12  C   UNL     1      18.900  -2.875  31.777  0.00  0.00    +0.035 A 
ATOM     32  C   UNL     1      19.461  -3.694  30.754  0.00  0.00    +0.024 A 
ATOM     33  C   UNL     1      19.828  -5.065  31.008  0.00  0.00    +0.007 A 
ATOM     34  C   UNL     1      19.635  -5.645  32.306  0.00  0.00    -0.029 A 
ATOM     35  C   UNL     1      20.053  -7.118  32.524  0.00  0.00    +0.045 C 
ENDROOT
BRANCH  10   9
ATOM      4  C   UNL     1      20.263  -5.281  37.982  0.00  0.00    +0.077 A 
ATOM      5  C   UNL     1      21.434  -4.469  37.821  0.00  0.00    +0.048 A 
ATOM      6  C   UNL     1      21.694  -3.953  36.531  0.00  0.00    +0.116 A 
ATOM      7  N   UNL     1      20.839  -4.236  35.488  0.00  0.00    -0.223 NA
ATOM      8  C   UNL     1      19.719  -5.025  35.678  0.00  0.00    +0.220 A 
ATOM      9  N   UNL     1      18.841  -5.315  34.645  0.00  0.00    -0.283 N 
ATOM     36  H   UNL     1      18.030  -5.907  34.824  0.00  0.00    +0.155 HD
ATOM     37  N   UNL     1      19.450  -5.530  36.899  0.00  0.00    -0.214 NA
BRANCH   4   3
ATOM      1  C   UNL     1      19.726  -7.824  40.906  0.00  0.00    +0.020 A 
ATOM      2  C   UNL     1      20.145  -7.280  39.635  0.00  0.00    +0.013 A 
ATOM      3  C   UNL     1      19.853  -5.895  39.285  0.00  0.00    +0.019 A 
ATOM     38  C   UNL     1      19.130  -5.082  40.251  0.00  0.00    +0.120 A 
ATOM     39  N   UNL     1      18.739  -5.633  41.467  0.00  0.00    -0.263 NA
ATOM     40  C   UNL     1      19.013  -6.964  41.814  0.00  0.00    +0.111 A 
ENDBRANCH   4   3
ENDBRANCH  10   9
BRANCH  12  13
ATOM     13  N   UNL     1      18.567  -1.511  31.449  0.00  0.00    -0.281 N 
ATOM     14  C   UNL     1      17.314  -0.978  31.196  0.00  0.00    +0.248 C 
ATOM     30  O   UNL     1      16.306  -1.642  31.003  0.00  0.00    -0.270 OA
ATOM     31  H   UNL     1      19.350  -0.860  31.398  0.00  0.00    +0.155 HD
BRANCH  14  15
ATOM     15  C   UNL     1      17.160   0.507  31.135  0.00  0.00    +0.037 A 
ATOM     16  C   UNL     1      16.078   1.190  31.848  0.00  0.00    +0.013 A 
ATOM     17  C   UNL     1      15.942   2.622  31.758  0.00  0.00    +0.005 A 
ATOM     18  C   UNL     1      16.894   3.382  30.952  0.00  0.00    -0.033 A 
ATOM     28  C   UNL     1      17.962   2.680  30.258  0.00  0.00    +0.005 A 
ATOM     29  C   UNL     1      18.097   1.277  30.343  0.00  0.00    +0.013 A 
BRANCH  18  19
ATOM     19  C   UNL     1      16.813   4.911  30.782  0.00  0.00    +0.119 C 
BRANCH  19  20
ATOM     20  N   UNL     1      15.456   5.532  30.823  0.00  0.00    -0.302 NA
ATOM     21  C   UNL     1      15.172   6.376  29.577  0.00  0.00    +0.066 C 
ATOM     22  C   UNL     1      13.740   7.000  29.626  0.00  0.00    -0.064 C 
ATOM     23  N   UNL     1      13.597   7.843  30.895  0.00  0.00    +0.379 N 
ATOM     24  C   UNL     1      12.271   8.478  30.915  0.00  0.00    -0.096 C 
ATOM     25  H   UNL     1      14.360   8.654  30.849  0.00  0.00    -0.082 HD
ATOM     26  C   UNL     1      13.880   7.013  32.138  0.00  0.00    -0.064 C 
ATOM     27  C   UNL     1      15.295   6.373  32.066  0.00  0.00    +0.066 C 
ENDBRANCH  19  20
ENDBRANCH  18  19
ENDBRANCH  14  15
ENDBRANCH  12  13
TORSDOF 6
ENDMDL
