MODEL 1
REMARK VINA RESULT:     -10.0      0.000      0.000
REMARK  Name = C:\Users\Docking\Desktop\test protocol\1iep_ligandH.pdb
REMARK  8 active torsions:
REMARK  status: ('A' for Active; 'I' for Inactive)
REMARK    1  A    between atoms: _5  and  _11
REMARK    2  A    between atoms: _19  and  _21
REMARK    3  A    between atoms: _22  and  _66
REMARK    4  A    between atoms: _27  and  _30
REMARK    5  A    between atoms: _32  and  _33
REMARK    6  A    between atoms: _38  and  _43
REMARK    7  A    between atoms: _43  and  _46
REMARK    8  A    between atoms: _53  and  _55
REMARK                            x       y       z     vdW  Elec       q    Type
REMARK                         _______ _______ _______ _____ _____    ______ ____
ROOT
ATOM     10  C   UNL     1      38.951   9.021  -1.224  0.00  0.00    +0.038 A 
ATOM     11  C   UNL     1      37.946   9.992  -1.467  0.00  0.00    +0.047 A 
ATOM     12  C   UNL     1      37.065   9.890  -2.620  0.00  0.00    +0.035 A 
ATOM     32  C   UNL     1      37.234   8.784  -3.504  0.00  0.00    +0.024 A 
ATOM     33  C   UNL     1      38.251   7.789  -3.272  0.00  0.00    +0.007 A 
ATOM     34  C   UNL     1      39.124   7.885  -2.138  0.00  0.00    -0.029 A 
ATOM     35  C   UNL     1      40.201   6.793  -1.942  0.00  0.00    +0.045 C 
ENDROOT
BRANCH  10   9
ATOM      4  C   UNL     1      43.202   9.885   0.832  0.00  0.00    +0.077 A 
ATOM      5  C   UNL     1      43.853  10.029  -0.438  0.00  0.00    +0.048 A 
ATOM      6  C   UNL     1      43.060   9.866  -1.597  0.00  0.00    +0.116 A 
ATOM      7  N   UNL     1      41.717   9.581  -1.481  0.00  0.00    -0.223 NA
ATOM      8  C   UNL     1      41.120   9.447  -0.241  0.00  0.00    +0.220 A 
ATOM      9  N   UNL     1      39.769   9.168  -0.101  0.00  0.00    -0.283 N 
ATOM     36  H   UNL     1      39.369   9.069   0.831  0.00  0.00    +0.155 HD
ATOM     37  N   UNL     1      41.856   9.596   0.880  0.00  0.00    -0.214 NA
BRANCH   4   3
ATOM      1  C   UNL     1      44.238  11.128   4.392  0.00  0.00    +0.020 A 
ATOM      2  C   UNL     1      43.527  11.029   3.139  0.00  0.00    +0.013 A 
ATOM      3  C   UNL     1      43.904  10.031   2.146  0.00  0.00    +0.019 A 
ATOM     38  C   UNL     1      45.013   9.141   2.455  0.00  0.00    +0.120 A 
ATOM     39  N   UNL     1      45.680   9.260   3.670  0.00  0.00    -0.263 NA
ATOM     40  C   UNL     1      45.327  10.218   4.633  0.00  0.00    +0.111 A 
ENDBRANCH   4   3
ENDBRANCH  10   9
BRANCH  12  13
ATOM     13  N   UNL     1      36.032  10.849  -2.923  0.00  0.00    -0.281 N 
ATOM     14  C   UNL     1      34.743  10.900  -2.419  0.00  0.00    +0.248 C 
ATOM     30  O   UNL     1      34.211   9.998  -1.790  0.00  0.00    -0.270 OA
ATOM     31  H   UNL     1      36.282  11.580  -3.589  0.00  0.00    +0.155 HD
BRANCH  14  15
ATOM     15  C   UNL     1      33.920  12.124  -2.662  0.00  0.00    +0.037 A 
ATOM     16  C   UNL     1      33.661  13.090  -1.591  0.00  0.00    +0.013 A 
ATOM     17  C   UNL     1      32.851  14.254  -1.848  0.00  0.00    +0.005 A 
ATOM     18  C   UNL     1      32.294  14.459  -3.183  0.00  0.00    -0.033 A 
ATOM     28  C   UNL     1      32.571  13.487  -4.228  0.00  0.00    +0.005 A 
ATOM     29  C   UNL     1      33.364  12.345  -3.980  0.00  0.00    +0.013 A 
BRANCH  18  19
ATOM     19  C   UNL     1      31.401  15.661  -3.541  0.00  0.00    +0.119 C 
BRANCH  19  20
ATOM     20  N   UNL     1      31.647  16.329  -4.854  0.00  0.00    -0.302 NA
ATOM     21  C   UNL     1      32.960  17.116  -4.861  0.00  0.00    +0.066 C 
ATOM     22  C   UNL     1      33.213  17.789  -6.249  0.00  0.00    -0.064 C 
ATOM     23  N   UNL     1      32.034  18.701  -6.593  0.00  0.00    +0.379 N 
ATOM     24  C   UNL     1      32.295  19.380  -7.871  0.00  0.00    -0.096 C 
ATOM     25  H   UNL     1      31.969  19.483  -5.801  0.00  0.00    -0.082 HD
ATOM     26  C   UNL     1      30.723  17.927  -6.586  0.00  0.00    -0.064 C 
ATOM     27  C   UNL     1      30.496  17.237  -5.211  0.00  0.00    +0.066 C 
ENDBRANCH  19  20
ENDBRANCH  18  19
ENDBRANCH  14  15
ENDBRANCH  12  13
TORSDOF 6
ENDMDL
MODEL 2
REMARK VINA RESULT:      -9.1     20.882     24.366
REMARK  Name = C:\Users\Docking\Desktop\test protocol\1iep_ligandH.pdb
REMARK  8 active torsions:
REMARK  status: ('A' for Active; 'I' for Inactive)
REMARK    1  A    between atoms: _5  and  _11
REMARK    2  A    between atoms: _19  and  _21
REMARK    3  A    between atoms: _22  and  _66
REMARK    4  A    between atoms: _27  and  _30
REMARK    5  A    between atoms: _32  and  _33
REMARK    6  A    between atoms: _38  and  _43
REMARK    7  A    between atoms: _43  and  _46
REMARK    8  A    between atoms: _53  and  _55
REMARK                            x       y       z     vdW  Elec       q    Type
REMARK                         _______ _______ _______ _____ _____    ______ ____
ROOT
ATOM     10  C   UNL     1      35.160  32.198  -1.254  0.00  0.00    +0.038 A 
ATOM     11  C   UNL     1      36.174  32.222  -0.263  0.00  0.00    +0.047 A 
ATOM     12  C   UNL     1      37.573  32.399  -0.622  0.00  0.00    +0.035 A 
ATOM     32  C   UNL     1      37.902  32.551  -2.000  0.00  0.00    +0.024 A 
ATOM     33  C   UNL     1      36.884  32.528  -3.021  0.00  0.00    +0.007 A 
ATOM     34  C   UNL     1      35.503  32.352  -2.673  0.00  0.00    -0.029 A 
ATOM     35  C   UNL     1      34.454  32.329  -3.809  0.00  0.00    +0.045 C 
ENDROOT
BRANCH  10   9
ATOM      4  C   UNL     1      31.550  32.875   1.836  0.00  0.00    +0.077 A 
ATOM      5  C   UNL     1      32.384  33.612   2.741  0.00  0.00    +0.048 A 
ATOM      6  C   UNL     1      33.738  33.789   2.378  0.00  0.00    +0.116 A 
ATOM      7  N   UNL     1      34.211  33.263   1.195  0.00  0.00    -0.223 NA
ATOM      8  C   UNL     1      33.380  32.556   0.345  0.00  0.00    +0.220 A 
ATOM      9  N   UNL     1      33.833  32.026  -0.853  0.00  0.00    -0.283 N 
ATOM     36  H   UNL     1      33.190  31.504  -1.448  0.00  0.00    +0.155 HD
ATOM     37  N   UNL     1      32.084  32.373   0.671  0.00  0.00    -0.214 NA
BRANCH   4   3
ATOM      1  C   UNL     1      27.681  33.325   2.200  0.00  0.00    +0.020 A 
ATOM      2  C   UNL     1      29.071  33.635   1.955  0.00  0.00    +0.013 A 
ATOM      3  C   UNL     1      30.097  32.608   2.079  0.00  0.00    +0.019 A 
ATOM     38  C   UNL     1      29.680  31.265   2.453  0.00  0.00    +0.120 A 
ATOM     39  N   UNL     1      28.335  30.995   2.684  0.00  0.00    -0.263 NA
ATOM     40  C   UNL     1      27.339  31.977   2.570  0.00  0.00    +0.111 A 
ENDBRANCH   4   3
ENDBRANCH  10   9
BRANCH  12  13
ATOM     13  N   UNL     1      38.647  32.423   0.340  0.00  0.00    -0.281 N 
ATOM     14  C   UNL     1      39.223  33.528   0.946  0.00  0.00    +0.248 C 
ATOM     30  O   UNL     1      39.043  34.683   0.590  0.00  0.00    -0.270 OA
ATOM     31  H   UNL     1      39.029  31.515   0.606  0.00  0.00    +0.155 HD
BRANCH  14  15
ATOM     15  C   UNL     1      40.142  33.318   2.105  0.00  0.00    +0.037 A 
ATOM     16  C   UNL     1      39.931  32.221   3.054  0.00  0.00    +0.013 A 
ATOM     17  C   UNL     1      40.823  32.052   4.173  0.00  0.00    +0.005 A 
ATOM     18  C   UNL     1      41.936  32.981   4.349  0.00  0.00    -0.033 A 
ATOM     28  C   UNL     1      42.126  34.057   3.390  0.00  0.00    +0.005 A 
ATOM     29  C   UNL     1      41.253  34.227   2.292  0.00  0.00    +0.013 A 
BRANCH  18  19
ATOM     19  C   UNL     1      42.925  32.888   5.526  0.00  0.00    +0.119 C 
BRANCH  19  20
ATOM     20  N   UNL     1      42.364  32.532   6.864  0.00  0.00    -0.302 NA
ATOM     21  C   UNL     1      42.448  33.700   7.851  0.00  0.00    +0.066 C 
ATOM     22  C   UNL     1      41.837  33.317   9.238  0.00  0.00    -0.064 C 
ATOM     23  N   UNL     1      42.561  32.088   9.790  0.00  0.00    +0.379 N 
ATOM     24  C   UNL     1      42.028  31.760  11.120  0.00  0.00    -0.096 C 
ATOM     25  H   UNL     1      43.636  32.356   9.913  0.00  0.00    -0.082 HD
ATOM     26  C   UNL     1      42.485  30.923   8.813  0.00  0.00    -0.064 C 
ATOM     27  C   UNL     1      43.069  31.323   7.429  0.00  0.00    +0.066 C 
ENDBRANCH  19  20
ENDBRANCH  18  19
ENDBRANCH  14  15
ENDBRANCH  12  13
TORSDOF 6
ENDMDL
MODEL 3
REMARK VINA RESULT:      -9.0      4.514      7.607
REMARK  Name = C:\Users\Docking\Desktop\test protocol\1iep_ligandH.pdb
REMARK  8 active torsions:
REMARK  status: ('A' for Active; 'I' for Inactive)
REMARK    1  A    between atoms: _5  and  _11
REMARK    2  A    between atoms: _19  and  _21
REMARK    3  A    between atoms: _22  and  _66
REMARK    4  A    between atoms: _27  and  _30
REMARK    5  A    between atoms: _32  and  _33
REMARK    6  A    between atoms: _38  and  _43
REMARK    7  A    between atoms: _43  and  _46
REMARK    8  A    between atoms: _53  and  _55
REMARK                            x       y       z     vdW  Elec       q    Type
REMARK                         _______ _______ _______ _____ _____    ______ ____
ROOT
ATOM     10  C   UNL     1      32.226  11.530  -3.169  0.00  0.00    +0.038 A 
ATOM     11  C   UNL     1      32.318  12.618  -4.074  0.00  0.00    +0.047 A 
ATOM     12  C   UNL     1      31.343  13.697  -4.055  0.00  0.00    +0.035 A 
ATOM     32  C   UNL     1      30.287  13.637  -3.098  0.00  0.00    +0.024 A 
ATOM     33  C   UNL     1      30.178  12.538  -2.172  0.00  0.00    +0.007 A 
ATOM     34  C   UNL     1      31.136  11.469  -2.187  0.00  0.00    -0.029 A 
ATOM     35  C   UNL     1      30.966  10.313  -1.175  0.00  0.00    +0.045 C 
ENDROOT
BRANCH  10   9
ATOM      4  C   UNL     1      36.313   9.485  -1.702  0.00  0.00    +0.077 A 
ATOM      5  C   UNL     1      36.563  10.528  -0.750  0.00  0.00    +0.048 A 
ATOM      6  C   UNL     1      35.619  11.576  -0.674  0.00  0.00    +0.116 A 
ATOM      7  N   UNL     1      34.511  11.571  -1.493  0.00  0.00    -0.223 NA
ATOM      8  C   UNL     1      34.301  10.551  -2.402  0.00  0.00    +0.220 A 
ATOM      9  N   UNL     1      33.190  10.521  -3.231  0.00  0.00    -0.283 N 
ATOM     36  H   UNL     1      33.075   9.754  -3.893  0.00  0.00    +0.155 HD
ATOM     37  N   UNL     1      35.189   9.539  -2.495  0.00  0.00    -0.214 NA
BRANCH   4   3
ATOM      1  C   UNL     1      39.445   7.268  -2.463  0.00  0.00    +0.020 A 
ATOM      2  C   UNL     1      38.615   8.438  -2.287  0.00  0.00    +0.013 A 
ATOM      3  C   UNL     1      37.217   8.307  -1.899  0.00  0.00    +0.019 A 
ATOM     38  C   UNL     1      36.685   6.968  -1.694  0.00  0.00    +0.120 A 
ATOM     39  N   UNL     1      37.507   5.860  -1.872  0.00  0.00    -0.263 NA
ATOM     40  C   UNL     1      38.854   5.974  -2.247  0.00  0.00    +0.111 A 
ENDBRANCH   4   3
ENDBRANCH  10   9
BRANCH  12  13
ATOM     13  N   UNL     1      31.380  14.823  -4.954  0.00  0.00    -0.281 N 
ATOM     14  C   UNL     1      31.255  16.167  -4.642  0.00  0.00    +0.248 C 
ATOM     30  O   UNL     1      30.876  16.593  -3.561  0.00  0.00    -0.270 OA
ATOM     31  H   UNL     1      31.515  14.603  -5.941  0.00  0.00    +0.155 HD
BRANCH  14  15
ATOM     15  C   UNL     1      31.585  17.185  -5.686  0.00  0.00    +0.037 A 
ATOM     16  C   UNL     1      32.974  17.499  -6.029  0.00  0.00    +0.013 A 
ATOM     17  C   UNL     1      33.264  18.497  -7.027  0.00  0.00    +0.005 A 
ATOM     18  C   UNL     1      32.161  19.187  -7.692  0.00  0.00    -0.033 A 
ATOM     28  C   UNL     1      30.792  18.852  -7.336  0.00  0.00    +0.005 A 
ATOM     29  C   UNL     1      30.504  17.875  -6.357  0.00  0.00    +0.013 A 
BRANCH  18  19
ATOM     19  C   UNL     1      32.378  20.281  -8.754  0.00  0.00    +0.119 C 
BRANCH  19  20
ATOM     20  N   UNL     1      31.316  21.323  -8.890  0.00  0.00    -0.302 NA
ATOM     21  C   UNL     1      31.182  21.823 -10.331  0.00  0.00    +0.066 C 
ATOM     22  C   UNL     1      30.052  22.896 -10.458  0.00  0.00    -0.064 C 
ATOM     23  N   UNL     1      30.346  24.057  -9.507  0.00  0.00    +0.379 N 
ATOM     24  C   UNL     1      29.316  25.094  -9.667  0.00  0.00    -0.096 C 
ATOM     25  H   UNL     1      31.323  24.501  -9.808  0.00  0.00    -0.082 HD
ATOM     26  C   UNL     1      30.484  23.569  -8.072  0.00  0.00    -0.064 C 
ATOM     27  C   UNL     1      31.589  22.482  -7.962  0.00  0.00    +0.066 C 
ENDBRANCH  19  20
ENDBRANCH  18  19
ENDBRANCH  14  15
ENDBRANCH  12  13
TORSDOF 6
ENDMDL
MODEL 4
REMARK VINA RESULT:      -9.0     20.976     24.620
REMARK  Name = C:\Users\Docking\Desktop\test protocol\1iep_ligandH.pdb
REMARK  8 active torsions:
REMARK  status: ('A' for Active; 'I' for Inactive)
REMARK    1  A    between atoms: _5  and  _11
REMARK    2  A    between atoms: _19  and  _21
REMARK    3  A    between atoms: _22  and  _66
REMARK    4  A    between atoms: _27  and  _30
REMARK    5  A    between atoms: _32  and  _33
REMARK    6  A    between atoms: _38  and  _43
REMARK    7  A    between atoms: _43  and  _46
REMARK    8  A    between atoms: _53  and  _55
REMARK                            x       y       z     vdW  Elec       q    Type
REMARK                         _______ _______ _______ _____ _____    ______ ____
ROOT
ATOM     10  C   UNL     1      35.206  32.204  -1.218  0.00  0.00    +0.038 A 
ATOM     11  C   UNL     1      36.209  32.190  -0.215  0.00  0.00    +0.047 A 
ATOM     12  C   UNL     1      37.614  32.357  -0.553  0.00  0.00    +0.035 A 
ATOM     32  C   UNL     1      37.962  32.539  -1.923  0.00  0.00    +0.024 A 
ATOM     33  C   UNL     1      36.956  32.555  -2.956  0.00  0.00    +0.007 A 
ATOM     34  C   UNL     1      35.569  32.388  -2.629  0.00  0.00    -0.029 A 
ATOM     35  C   UNL     1      34.534  32.407  -3.778  0.00  0.00    +0.045 C 
ENDROOT
BRANCH  10   9
ATOM      4  C   UNL     1      31.569  32.846   1.846  0.00  0.00    +0.077 A 
ATOM      5  C   UNL     1      32.402  33.546   2.781  0.00  0.00    +0.048 A 
ATOM      6  C   UNL     1      33.763  33.714   2.438  0.00  0.00    +0.116 A 
ATOM      7  N   UNL     1      34.243  33.215   1.247  0.00  0.00    -0.223 NA
ATOM      8  C   UNL     1      33.413  32.543   0.369  0.00  0.00    +0.220 A 
ATOM      9  N   UNL     1      33.873  32.039  -0.838  0.00  0.00    -0.283 N 
ATOM     36  H   UNL     1      33.230  31.543  -1.455  0.00  0.00    +0.155 HD
ATOM     37  N   UNL     1      32.110  32.368   0.674  0.00  0.00    -0.214 NA
BRANCH   4   3
ATOM      1  C   UNL     1      27.700  33.335   2.159  0.00  0.00    +0.020 A 
ATOM      2  C   UNL     1      29.097  33.633   1.938  0.00  0.00    +0.013 A 
ATOM      3  C   UNL     1      30.109  32.592   2.064  0.00  0.00    +0.019 A 
ATOM     38  C   UNL     1      29.672  31.250   2.417  0.00  0.00    +0.120 A 
ATOM     39  N   UNL     1      28.321  30.993   2.625  0.00  0.00    -0.263 NA
ATOM     40  C   UNL     1      27.338  31.986   2.508  0.00  0.00    +0.111 A 
ENDBRANCH   4   3
ENDBRANCH  10   9
BRANCH  12  13
ATOM     13  N   UNL     1      38.676  32.344   0.422  0.00  0.00    -0.281 N 
ATOM     14  C   UNL     1      39.265  33.426   1.055  0.00  0.00    +0.248 C 
ATOM     30  O   UNL     1      39.113  34.591   0.718  0.00  0.00    -0.270 OA
ATOM     31  H   UNL     1      39.038  31.425   0.677  0.00  0.00    +0.155 HD
BRANCH  14  15
ATOM     15  C   UNL     1      40.166  33.178   2.221  0.00  0.00    +0.037 A 
ATOM     16  C   UNL     1      39.851  32.154   3.220  0.00  0.00    +0.013 A 
ATOM     17  C   UNL     1      40.728  31.947   4.345  0.00  0.00    +0.005 A 
ATOM     18  C   UNL     1      41.931  32.766   4.476  0.00  0.00    -0.033 A 
ATOM     28  C   UNL     1      42.222  33.771   3.467  0.00  0.00    +0.005 A 
ATOM     29  C   UNL     1      41.364  33.978   2.364  0.00  0.00    +0.013 A 
BRANCH  18  19
ATOM     19  C   UNL     1      42.913  32.628   5.654  0.00  0.00    +0.119 C 
BRANCH  19  20
ATOM     20  N   UNL     1      42.744  33.572   6.799  0.00  0.00    -0.302 NA
ATOM     21  C   UNL     1      43.800  34.681   6.791  0.00  0.00    +0.066 C 
ATOM     22  C   UNL     1      43.594  35.672   7.982  0.00  0.00    -0.064 C 
ATOM     23  N   UNL     1      43.634  34.896   9.300  0.00  0.00    +0.379 N 
ATOM     24  C   UNL     1      43.499  35.833  10.425  0.00  0.00    -0.096 C 
ATOM     25  H   UNL     1      44.636  34.415   9.379  0.00  0.00    -0.082 HD
ATOM     26  C   UNL     1      42.588  33.790   9.316  0.00  0.00    -0.064 C 
ATOM     27  C   UNL     1      42.784  32.828   8.111  0.00  0.00    +0.066 C 
ENDBRANCH  19  20
ENDBRANCH  18  19
ENDBRANCH  14  15
ENDBRANCH  12  13
TORSDOF 6
ENDMDL
MODEL 5
REMARK VINA RESULT:      -8.8      2.020     12.721
REMARK  Name = C:\Users\Docking\Desktop\test protocol\1iep_ligandH.pdb
REMARK  8 active torsions:
REMARK  status: ('A' for Active; 'I' for Inactive)
REMARK    1  A    between atoms: _5  and  _11
REMARK    2  A    between atoms: _19  and  _21
REMARK    3  A    between atoms: _22  and  _66
REMARK    4  A    between atoms: _27  and  _30
REMARK    5  A    between atoms: _32  and  _33
REMARK    6  A    between atoms: _38  and  _43
REMARK    7  A    between atoms: _43  and  _46
REMARK    8  A    between atoms: _53  and  _55
REMARK                            x       y       z     vdW  Elec       q    Type
REMARK                         _______ _______ _______ _____ _____    ______ ____
ROOT
ATOM     10  C   UNL     1      35.016  10.020  -2.461  0.00  0.00    +0.038 A 
ATOM     11  C   UNL     1      36.369  10.174  -2.064  0.00  0.00    +0.047 A 
ATOM     12  C   UNL     1      37.071   9.114  -1.357  0.00  0.00    +0.035 A 
ATOM     32  C   UNL     1      36.365   7.908  -1.074  0.00  0.00    +0.024 A 
ATOM     33  C   UNL     1      34.989   7.736  -1.470  0.00  0.00    +0.007 A 
ATOM     34  C   UNL     1      34.291   8.779  -2.165  0.00  0.00    -0.029 A 
ATOM     35  C   UNL     1      32.815   8.541  -2.559  0.00  0.00    +0.045 C 
ENDROOT
BRANCH  10   9
ATOM      4  C   UNL     1      32.398  14.043  -2.536  0.00  0.00    +0.077 A 
ATOM      5  C   UNL     1      32.239  14.036  -1.110  0.00  0.00    +0.048 A 
ATOM      6  C   UNL     1      32.841  12.976  -0.395  0.00  0.00    +0.116 A 
ATOM      7  N   UNL     1      33.547  12.001  -1.066  0.00  0.00    -0.223 NA
ATOM      8  C   UNL     1      33.679  12.036  -2.442  0.00  0.00    +0.220 A 
ATOM      9  N   UNL     1      34.391  11.071  -3.137  0.00  0.00    -0.283 N 
ATOM     36  H   UNL     1      34.459  11.128  -4.153  0.00  0.00    +0.155 HD
ATOM     37  N   UNL     1      33.113  13.037  -3.148  0.00  0.00    -0.214 NA
BRANCH   4   3
ATOM      1  C   UNL     1      30.001  16.704  -4.108  0.00  0.00    +0.020 A 
ATOM      2  C   UNL     1      30.509  15.688  -3.215  0.00  0.00    +0.013 A 
ATOM      3  C   UNL     1      31.824  15.098  -3.430  0.00  0.00    +0.019 A 
ATOM     38  C   UNL     1      32.607  15.562  -4.565  0.00  0.00    +0.120 A 
ATOM     39  N   UNL     1      32.091  16.541  -5.409  0.00  0.00    -0.263 NA
ATOM     40  C   UNL     1      30.826  17.115  -5.214  0.00  0.00    +0.111 A 
ENDBRANCH   4   3
ENDBRANCH  10   9
BRANCH  12  13
ATOM     13  N   UNL     1      38.441   9.216  -0.921  0.00  0.00    -0.281 N 
ATOM     14  C   UNL     1      39.584   8.849  -1.613  0.00  0.00    +0.248 C 
ATOM     30  O   UNL     1      39.589   8.175  -2.632  0.00  0.00    -0.270 OA
ATOM     31  H   UNL     1      38.587   9.606   0.010  0.00  0.00    +0.155 HD
BRANCH  14  15
ATOM     15  C   UNL     1      40.915   9.280  -1.087  0.00  0.00    +0.037 A 
ATOM     16  C   UNL     1      41.087   9.679   0.312  0.00  0.00    +0.013 A 
ATOM     17  C   UNL     1      42.379  10.107   0.788  0.00  0.00    +0.005 A 
ATOM     18  C   UNL     1      43.509  10.137  -0.136  0.00  0.00    -0.033 A 
ATOM     28  C   UNL     1      43.312   9.731  -1.518  0.00  0.00    +0.005 A 
ATOM     29  C   UNL     1      42.047   9.312  -1.989  0.00  0.00    +0.013 A 
BRANCH  18  19
ATOM     19  C   UNL     1      44.918  10.600   0.280  0.00  0.00    +0.119 C 
BRANCH  19  20
ATOM     20  N   UNL     1      45.718   9.673   1.135  0.00  0.00    -0.302 NA
ATOM     21  C   UNL     1      45.622   8.222   0.654  0.00  0.00    +0.066 C 
ATOM     22  C   UNL     1      46.483   7.269   1.546  0.00  0.00    -0.064 C 
ATOM     23  N   UNL     1      46.028   7.389   3.002  0.00  0.00    +0.379 N 
ATOM     24  C   UNL     1      46.796   6.451   3.834  0.00  0.00    -0.096 C 
ATOM     25  H   UNL     1      44.957   7.083   3.048  0.00  0.00    -0.082 HD
ATOM     26  C   UNL     1      46.118   8.829   3.487  0.00  0.00    -0.064 C 
ATOM     27  C   UNL     1      45.283   9.772   2.576  0.00  0.00    +0.066 C 
ENDBRANCH  19  20
ENDBRANCH  18  19
ENDBRANCH  14  15
ENDBRANCH  12  13
TORSDOF 6
ENDMDL
