MODEL 1
REMARK VINA RESULT:     -10.2      0.000      0.000
REMARK  Name = C:\Users\Docking\Desktop\test protocol\1iep_ligandH.pdb
REMARK  8 active torsions:
REMARK  status: ('A' for Active; 'I' for Inactive)
REMARK    1  A    between atoms: _5  and  _11
REMARK    2  A    between atoms: _19  and  _21
REMARK    3  A    between atoms: _22  and  _66
REMARK    4  A    between atoms: _27  and  _30
REMARK    5  A    between atoms: _32  and  _33
REMARK    6  A    between atoms: _38  and  _43
REMARK    7  A    between atoms: _43  and  _46
REMARK    8  A    between atoms: _53  and  _55
REMARK                            x       y       z     vdW  Elec       q    Type
REMARK                         _______ _______ _______ _____ _____    ______ ____
ROOT
ATOM     10  C   UNL     1      38.898   8.927  -1.147  0.00  0.00    +0.038 A 
ATOM     11  C   UNL     1      37.944   9.914  -1.502  0.00  0.00    +0.047 A 
ATOM     12  C   UNL     1      37.083   9.746  -2.663  0.00  0.00    +0.035 A 
ATOM     32  C   UNL     1      37.219   8.557  -3.437  0.00  0.00    +0.024 A 
ATOM     33  C   UNL     1      38.184   7.544  -3.091  0.00  0.00    +0.007 A 
ATOM     34  C   UNL     1      39.037   7.705  -1.949  0.00  0.00    -0.029 A 
ATOM     35  C   UNL     1      40.058   6.589  -1.628  0.00  0.00    +0.045 C 
ENDROOT
BRANCH  10   9
ATOM      4  C   UNL     1      43.100   9.981   0.919  0.00  0.00    +0.077 A 
ATOM      5  C   UNL     1      43.763  10.090  -0.349  0.00  0.00    +0.048 A 
ATOM      6  C   UNL     1      42.988   9.860  -1.508  0.00  0.00    +0.116 A 
ATOM      7  N   UNL     1      41.651   9.546  -1.396  0.00  0.00    -0.223 NA
ATOM      8  C   UNL     1      41.043   9.447  -0.158  0.00  0.00    +0.220 A 
ATOM      9  N   UNL     1      39.698   9.140  -0.022  0.00  0.00    -0.283 N 
ATOM     36  H   UNL     1      39.289   9.070   0.909  0.00  0.00    +0.155 HD
ATOM     37  N   UNL     1      41.761   9.661   0.964  0.00  0.00    -0.214 NA
BRANCH   4   3
ATOM      1  C   UNL     1      43.991  11.313   4.487  0.00  0.00    +0.020 A 
ATOM      2  C   UNL     1      43.294  11.140   3.233  0.00  0.00    +0.013 A 
ATOM      3  C   UNL     1      43.782  10.199   2.233  0.00  0.00    +0.019 A 
ATOM     38  C   UNL     1      44.987   9.440   2.537  0.00  0.00    +0.120 A 
ATOM     39  N   UNL     1      45.637   9.628   3.752  0.00  0.00    -0.263 NA
ATOM     40  C   UNL     1      45.178  10.533   4.721  0.00  0.00    +0.111 A 
ENDBRANCH   4   3
ENDBRANCH  10   9
BRANCH  12  13
ATOM     13  N   UNL     1      36.102  10.718  -3.077  0.00  0.00    -0.281 N 
ATOM     14  C   UNL     1      34.741  10.717  -2.820  0.00  0.00    +0.248 C 
ATOM     30  O   UNL     1      34.122   9.762  -2.374  0.00  0.00    -0.270 OA
ATOM     31  H   UNL     1      36.454  11.502  -3.626  0.00  0.00    +0.155 HD
BRANCH  14  15
ATOM     15  C   UNL     1      33.949  11.950  -3.116  0.00  0.00    +0.037 A 
ATOM     16  C   UNL     1      33.608  12.322  -4.491  0.00  0.00    +0.013 A 
ATOM     17  C   UNL     1      32.858  13.526  -4.750  0.00  0.00    +0.005 A 
ATOM     18  C   UNL     1      32.442  14.365  -3.629  0.00  0.00    -0.033 A 
ATOM     28  C   UNL     1      32.790  13.969  -2.274  0.00  0.00    +0.005 A 
ATOM     29  C   UNL     1      33.526  12.791  -2.017  0.00  0.00    +0.013 A 
BRANCH  18  19
ATOM     19  C   UNL     1      31.658  15.678  -3.813  0.00  0.00    +0.119 C 
BRANCH  19  20
ATOM     20  N   UNL     1      31.834  16.404  -5.106  0.00  0.00    -0.302 NA
ATOM     21  C   UNL     1      33.113  17.246  -5.121  0.00  0.00    +0.066 C 
ATOM     22  C   UNL     1      33.294  17.982  -6.489  0.00  0.00    -0.064 C 
ATOM     23  N   UNL     1      32.068  18.855  -6.761  0.00  0.00    +0.379 N 
ATOM     24  C   UNL     1      32.260  19.592  -8.018  0.00  0.00    -0.096 C 
ATOM     25  H   UNL     1      31.996  19.603  -5.937  0.00  0.00    -0.082 HD
ATOM     26  C   UNL     1      30.791  18.026  -6.745  0.00  0.00    -0.064 C 
ATOM     27  C   UNL     1      30.636  17.276  -5.392  0.00  0.00    +0.066 C 
ENDBRANCH  19  20
ENDBRANCH  18  19
ENDBRANCH  14  15
ENDBRANCH  12  13
TORSDOF 6
ENDMDL
MODEL 2
REMARK VINA RESULT:      -9.9     19.647     26.625
REMARK  Name = C:\Users\Docking\Desktop\test protocol\1iep_ligandH.pdb
REMARK  8 active torsions:
REMARK  status: ('A' for Active; 'I' for Inactive)
REMARK    1  A    between atoms: _5  and  _11
REMARK    2  A    between atoms: _19  and  _21
REMARK    3  A    between atoms: _22  and  _66
REMARK    4  A    between atoms: _27  and  _30
REMARK    5  A    between atoms: _32  and  _33
REMARK    6  A    between atoms: _38  and  _43
REMARK    7  A    between atoms: _43  and  _46
REMARK    8  A    between atoms: _53  and  _55
REMARK                            x       y       z     vdW  Elec       q    Type
REMARK                         _______ _______ _______ _____ _____    ______ ____
ROOT
ATOM     10  C   UNL     1      26.583  31.279 -18.110  0.00  0.00    +0.038 A 
ATOM     11  C   UNL     1      26.766  31.323 -16.704  0.00  0.00    +0.047 A 
ATOM     12  C   UNL     1      25.638  31.198 -15.794  0.00  0.00    +0.035 A 
ATOM     32  C   UNL     1      24.337  31.028 -16.350  0.00  0.00    +0.024 A 
ATOM     33  C   UNL     1      24.133  30.982 -17.777  0.00  0.00    +0.007 A 
ATOM     34  C   UNL     1      25.241  31.106 -18.679  0.00  0.00    -0.029 A 
ATOM     35  C   UNL     1      24.962  31.056 -20.200  0.00  0.00    +0.045 C 
ENDROOT
BRANCH  10   9
ATOM      4  C   UNL     1      30.449  29.465 -20.301  0.00  0.00    +0.077 A 
ATOM      5  C   UNL     1      30.239  28.167 -19.728  0.00  0.00    +0.048 A 
ATOM      6  C   UNL     1      29.128  28.010 -18.868  0.00  0.00    +0.116 A 
ATOM      7  N   UNL     1      28.297  29.078 -18.610  0.00  0.00    -0.223 NA
ATOM      8  C   UNL     1      28.529  30.317 -19.178  0.00  0.00    +0.220 A 
ATOM      9  N   UNL     1      27.701  31.403 -18.937  0.00  0.00    -0.283 N 
ATOM     36  H   UNL     1      27.911  32.302 -19.369  0.00  0.00    +0.155 HD
ATOM     37  N   UNL     1      29.584  30.493 -20.000  0.00  0.00    -0.214 NA
BRANCH   4   3
ATOM      1  C   UNL     1      33.809  29.290 -22.298  0.00  0.00    +0.020 A 
ATOM      2  C   UNL     1      32.747  28.932 -21.385  0.00  0.00    +0.013 A 
ATOM      3  C   UNL     1      31.578  29.789 -21.231  0.00  0.00    +0.019 A 
ATOM     38  C   UNL     1      31.513  31.009 -22.020  0.00  0.00    +0.120 A 
ATOM     39  N   UNL     1      32.551  31.329 -22.890  0.00  0.00    -0.263 NA
ATOM     40  C   UNL     1      33.682  30.513 -23.046  0.00  0.00    +0.111 A 
ENDBRANCH   4   3
ENDBRANCH  10   9
BRANCH  12  13
ATOM     13  N   UNL     1      25.762  31.244 -14.358  0.00  0.00    -0.281 N 
ATOM     14  C   UNL     1      24.995  31.967 -13.460  0.00  0.00    +0.248 C 
ATOM     30  O   UNL     1      24.217  32.856 -13.774  0.00  0.00    -0.270 OA
ATOM     31  H   UNL     1      26.506  30.674 -13.955  0.00  0.00    +0.155 HD
BRANCH  14  15
ATOM     15  C   UNL     1      25.120  31.670 -12.000  0.00  0.00    +0.037 A 
ATOM     16  C   UNL     1      25.206  32.747 -11.010  0.00  0.00    +0.013 A 
ATOM     17  C   UNL     1      25.343  32.433  -9.610  0.00  0.00    +0.005 A 
ATOM     18  C   UNL     1      25.394  31.034  -9.192  0.00  0.00    -0.033 A 
ATOM     28  C   UNL     1      25.302  29.986 -10.195  0.00  0.00    +0.005 A 
ATOM     29  C   UNL     1      25.168  30.290 -11.568  0.00  0.00    +0.013 A 
BRANCH  18  19
ATOM     19  C   UNL     1      25.560  30.606  -7.722  0.00  0.00    +0.119 C 
BRANCH  19  20
ATOM     20  N   UNL     1      26.769  29.800  -7.377  0.00  0.00    -0.302 NA
ATOM     21  C   UNL     1      28.013  30.278  -8.131  0.00  0.00    +0.066 C 
ATOM     22  C   UNL     1      29.273  29.439  -7.741  0.00  0.00    -0.064 C 
ATOM     23  N   UNL     1      29.004  27.960  -8.023  0.00  0.00    +0.379 N 
ATOM     24  C   UNL     1      30.207  27.174  -7.712  0.00  0.00    -0.096 C 
ATOM     25  H   UNL     1      28.804  27.855  -9.115  0.00  0.00    -0.082 HD
ATOM     26  C   UNL     1      27.767  27.476  -7.279  0.00  0.00    -0.064 C 
ATOM     27  C   UNL     1      26.527  28.336  -7.651  0.00  0.00    +0.066 C 
ENDBRANCH  19  20
ENDBRANCH  18  19
ENDBRANCH  14  15
ENDBRANCH  12  13
TORSDOF 6
ENDMDL
MODEL 3
REMARK VINA RESULT:      -9.0      7.138      9.442
REMARK  Name = C:\Users\Docking\Desktop\test protocol\1iep_ligandH.pdb
REMARK  8 active torsions:
REMARK  status: ('A' for Active; 'I' for Inactive)
REMARK    1  A    between atoms: _5  and  _11
REMARK    2  A    between atoms: _19  and  _21
REMARK    3  A    between atoms: _22  and  _66
REMARK    4  A    between atoms: _27  and  _30
REMARK    5  A    between atoms: _32  and  _33
REMARK    6  A    between atoms: _38  and  _43
REMARK    7  A    between atoms: _43  and  _46
REMARK    8  A    between atoms: _53  and  _55
REMARK                            x       y       z     vdW  Elec       q    Type
REMARK                         _______ _______ _______ _____ _____    ______ ____
ROOT
ATOM     10  C   UNL     1      32.814  13.075  -1.050  0.00  0.00    +0.038 A 
ATOM     11  C   UNL     1      32.646  14.105  -2.010  0.00  0.00    +0.047 A 
ATOM     12  C   UNL     1      32.626  13.810  -3.435  0.00  0.00    +0.035 A 
ATOM     32  C   UNL     1      32.778  12.453  -3.845  0.00  0.00    +0.024 A 
ATOM     33  C   UNL     1      32.952  11.394  -2.883  0.00  0.00    +0.007 A 
ATOM     34  C   UNL     1      32.975  11.680  -1.477  0.00  0.00    -0.029 A 
ATOM     35  C   UNL     1      33.170  10.506  -0.489  0.00  0.00    +0.045 C 
ENDROOT
BRANCH  10   9
ATOM      4  C   UNL     1      30.593  13.933   3.117  0.00  0.00    +0.077 A 
ATOM      5  C   UNL     1      29.298  13.711   2.541  0.00  0.00    +0.048 A 
ATOM      6  C   UNL     1      29.247  13.385   1.167  0.00  0.00    +0.116 A 
ATOM      7  N   UNL     1      30.410  13.290   0.434  0.00  0.00    -0.223 NA
ATOM      8  C   UNL     1      31.643  13.513   1.021  0.00  0.00    +0.220 A 
ATOM      9  N   UNL     1      32.826  13.415   0.305  0.00  0.00    -0.283 N 
ATOM     36  H   UNL     1      33.714  13.594   0.772  0.00  0.00    +0.155 HD
ATOM     37  N   UNL     1      31.718  13.827   2.331  0.00  0.00    -0.214 NA
BRANCH   4   3
ATOM      1  C   UNL     1      31.281  13.672   6.959  0.00  0.00    +0.020 A 
ATOM      2  C   UNL     1      31.077  13.282   5.583  0.00  0.00    +0.013 A 
ATOM      3  C   UNL     1      30.811  14.282   4.557  0.00  0.00    +0.019 A 
ATOM     38  C   UNL     1      30.759  15.680   4.959  0.00  0.00    +0.120 A 
ATOM     39  N   UNL     1      30.958  16.026   6.292  0.00  0.00    -0.263 NA
ATOM     40  C   UNL     1      31.213  15.072   7.289  0.00  0.00    +0.111 A 
ENDBRANCH   4   3
ENDBRANCH  10   9
BRANCH  12  13
ATOM     13  N   UNL     1      32.466  14.814  -4.456  0.00  0.00    -0.281 N 
ATOM     14  C   UNL     1      31.572  15.873  -4.478  0.00  0.00    +0.248 C 
ATOM     30  O   UNL     1      30.624  15.992  -3.716  0.00  0.00    -0.270 OA
ATOM     31  H   UNL     1      33.087  14.736  -5.262  0.00  0.00    +0.155 HD
BRANCH  14  15
ATOM     15  C   UNL     1      31.749  16.946  -5.502  0.00  0.00    +0.037 A 
ATOM     16  C   UNL     1      30.598  17.664  -6.057  0.00  0.00    +0.013 A 
ATOM     17  C   UNL     1      30.795  18.683  -7.057  0.00  0.00    +0.005 A 
ATOM     18  C   UNL     1      32.150  18.993  -7.507  0.00  0.00    -0.033 A 
ATOM     28  C   UNL     1      33.274  18.269  -6.936  0.00  0.00    +0.005 A 
ATOM     29  C   UNL     1      33.085  17.268  -5.957  0.00  0.00    +0.013 A 
BRANCH  18  19
ATOM     19  C   UNL     1      32.452  20.050  -8.585  0.00  0.00    +0.119 C 
BRANCH  19  20
ATOM     20  N   UNL     1      31.422  21.107  -8.814  0.00  0.00    -0.302 NA
ATOM     21  C   UNL     1      31.345  21.525 -10.285  0.00  0.00    +0.066 C 
ATOM     22  C   UNL     1      30.247  22.615 -10.510  0.00  0.00    -0.064 C 
ATOM     23  N   UNL     1      30.540  23.823  -9.619  0.00  0.00    +0.379 N 
ATOM     24  C   UNL     1      29.542  24.872  -9.871  0.00  0.00    -0.096 C 
ATOM     25  H   UNL     1      31.537  24.226  -9.913  0.00  0.00    -0.082 HD
ATOM     26  C   UNL     1      30.621  23.415  -8.154  0.00  0.00    -0.064 C 
ATOM     27  C   UNL     1      31.695  22.311  -7.946  0.00  0.00    +0.066 C 
ENDBRANCH  19  20
ENDBRANCH  18  19
ENDBRANCH  14  15
ENDBRANCH  12  13
TORSDOF 6
ENDMDL
MODEL 4
REMARK VINA RESULT:      -8.9     20.864     24.385
REMARK  Name = C:\Users\Docking\Desktop\test protocol\1iep_ligandH.pdb
REMARK  8 active torsions:
REMARK  status: ('A' for Active; 'I' for Inactive)
REMARK    1  A    between atoms: _5  and  _11
REMARK    2  A    between atoms: _19  and  _21
REMARK    3  A    between atoms: _22  and  _66
REMARK    4  A    between atoms: _27  and  _30
REMARK    5  A    between atoms: _32  and  _33
REMARK    6  A    between atoms: _38  and  _43
REMARK    7  A    between atoms: _43  and  _46
REMARK    8  A    between atoms: _53  and  _55
REMARK                            x       y       z     vdW  Elec       q    Type
REMARK                         _______ _______ _______ _____ _____    ______ ____
ROOT
ATOM     10  C   UNL     1      35.121  32.158  -1.312  0.00  0.00    +0.038 A 
ATOM     11  C   UNL     1      36.143  32.223  -0.331  0.00  0.00    +0.047 A 
ATOM     12  C   UNL     1      37.539  32.376  -0.708  0.00  0.00    +0.035 A 
ATOM     32  C   UNL     1      37.859  32.462  -2.094  0.00  0.00    +0.024 A 
ATOM     33  C   UNL     1      36.833  32.396  -3.105  0.00  0.00    +0.007 A 
ATOM     34  C   UNL     1      35.454  32.243  -2.739  0.00  0.00    -0.029 A 
ATOM     35  C   UNL     1      34.397  32.172  -3.866  0.00  0.00    +0.045 C 
ENDROOT
BRANCH  10   9
ATOM      4  C   UNL     1      31.570  32.885   1.835  0.00  0.00    +0.077 A 
ATOM      5  C   UNL     1      32.433  33.596   2.734  0.00  0.00    +0.048 A 
ATOM      6  C   UNL     1      33.786  33.746   2.353  0.00  0.00    +0.116 A 
ATOM      7  N   UNL     1      34.230  33.221   1.159  0.00  0.00    -0.223 NA
ATOM      8  C   UNL     1      33.372  32.540   0.315  0.00  0.00    +0.220 A 
ATOM      9  N   UNL     1      33.796  32.011  -0.894  0.00  0.00    -0.283 N 
ATOM     36  H   UNL     1      33.134  31.508  -1.485  0.00  0.00    +0.155 HD
ATOM     37  N   UNL     1      32.077  32.382   0.657  0.00  0.00    -0.214 NA
BRANCH   4   3
ATOM      1  C   UNL     1      27.731  33.432   2.347  0.00  0.00    +0.020 A 
ATOM      2  C   UNL     1      29.124  33.716   2.089  0.00  0.00    +0.013 A 
ATOM      3  C   UNL     1      30.115  32.647   2.095  0.00  0.00    +0.019 A 
ATOM     38  C   UNL     1      29.660  31.292   2.366  0.00  0.00    +0.120 A 
ATOM     39  N   UNL     1      28.312  31.049   2.612  0.00  0.00    -0.263 NA
ATOM     40  C   UNL     1      27.350  32.070   2.611  0.00  0.00    +0.111 A 
ENDBRANCH   4   3
ENDBRANCH  10   9
BRANCH  12  13
ATOM     13  N   UNL     1      38.621  32.440   0.243  0.00  0.00    -0.281 N 
ATOM     14  C   UNL     1      39.157  33.565   0.848  0.00  0.00    +0.248 C 
ATOM     30  O   UNL     1      38.928  34.713   0.499  0.00  0.00    -0.270 OA
ATOM     31  H   UNL     1      39.042  31.548   0.502  0.00  0.00    +0.155 HD
BRANCH  14  15
ATOM     15  C   UNL     1      40.096  33.388   1.998  0.00  0.00    +0.037 A 
ATOM     16  C   UNL     1      39.941  32.278   2.941  0.00  0.00    +0.013 A 
ATOM     17  C   UNL     1      40.850  32.140   4.052  0.00  0.00    +0.005 A 
ATOM     18  C   UNL     1      41.923  33.117   4.224  0.00  0.00    -0.033 A 
ATOM     28  C   UNL     1      42.056  34.205   3.271  0.00  0.00    +0.005 A 
ATOM     29  C   UNL     1      41.167  34.344   2.182  0.00  0.00    +0.013 A 
BRANCH  18  19
ATOM     19  C   UNL     1      42.926  33.060   5.392  0.00  0.00    +0.119 C 
BRANCH  19  20
ATOM     20  N   UNL     1      42.388  32.697   6.737  0.00  0.00    -0.302 NA
ATOM     21  C   UNL     1      42.636  33.800   7.771  0.00  0.00    +0.066 C 
ATOM     22  C   UNL     1      42.047  33.414   9.167  0.00  0.00    -0.064 C 
ATOM     23  N   UNL     1      42.662  32.091   9.628  0.00  0.00    +0.379 N 
ATOM     24  C   UNL     1      42.155  31.754  10.966  0.00  0.00    -0.096 C 
ATOM     25  H   UNL     1      43.764  32.241   9.712  0.00  0.00    -0.082 HD
ATOM     26  C   UNL     1      42.423  30.990   8.605  0.00  0.00    -0.064 C 
ATOM     27  C   UNL     1      42.985  31.396   7.214  0.00  0.00    +0.066 C 
ENDBRANCH  19  20
ENDBRANCH  18  19
ENDBRANCH  14  15
ENDBRANCH  12  13
TORSDOF 6
ENDMDL
MODEL 5
REMARK VINA RESULT:      -8.8      3.784      7.549
REMARK  Name = C:\Users\Docking\Desktop\test protocol\1iep_ligandH.pdb
REMARK  8 active torsions:
REMARK  status: ('A' for Active; 'I' for Inactive)
REMARK    1  A    between atoms: _5  and  _11
REMARK    2  A    between atoms: _19  and  _21
REMARK    3  A    between atoms: _22  and  _66
REMARK    4  A    between atoms: _27  and  _30
REMARK    5  A    between atoms: _32  and  _33
REMARK    6  A    between atoms: _38  and  _43
REMARK    7  A    between atoms: _43  and  _46
REMARK    8  A    between atoms: _53  and  _55
REMARK                            x       y       z     vdW  Elec       q    Type
REMARK                         _______ _______ _______ _____ _____    ______ ____
ROOT
ATOM     10  C   UNL     1      32.525  13.286  -0.950  0.00  0.00    +0.038 A 
ATOM     11  C   UNL     1      32.695  14.058  -2.128  0.00  0.00    +0.047 A 
ATOM     12  C   UNL     1      31.571  14.741  -2.749  0.00  0.00    +0.035 A 
ATOM     32  C   UNL     1      30.287  14.619  -2.142  0.00  0.00    +0.024 A 
ATOM     33  C   UNL     1      30.096  13.838  -0.945  0.00  0.00    +0.007 A 
ATOM     34  C   UNL     1      31.201  13.160  -0.329  0.00  0.00    -0.029 A 
ATOM     35  C   UNL     1      30.936  12.332   0.950  0.00  0.00    +0.045 C 
ENDROOT
BRANCH  10   9
ATOM      4  C   UNL     1      35.644   9.646  -0.722  0.00  0.00    +0.077 A 
ATOM      5  C   UNL     1      34.982   8.935  -1.779  0.00  0.00    +0.048 A 
ATOM      6  C   UNL     1      33.839   9.538  -2.349  0.00  0.00    +0.116 A 
ATOM      7  N   UNL     1      33.399  10.760  -1.890  0.00  0.00    -0.223 NA
ATOM      8  C   UNL     1      34.059  11.418  -0.868  0.00  0.00    +0.220 A 
ATOM      9  N   UNL     1      33.639  12.652  -0.396  0.00  0.00    -0.283 N 
ATOM     36  H   UNL     1      34.149  13.101   0.364  0.00  0.00    +0.155 HD
ATOM     37  N   UNL     1      35.153  10.863  -0.306  0.00  0.00    -0.214 NA
BRANCH   4   3
ATOM      1  C   UNL     1      39.325   8.580   0.061  0.00  0.00    +0.020 A 
ATOM      2  C   UNL     1      38.176   9.076  -0.660  0.00  0.00    +0.013 A 
ATOM      3  C   UNL     1      36.867   9.141  -0.022  0.00  0.00    +0.019 A 
ATOM     38  C   UNL     1      36.755   8.693   1.358  0.00  0.00    +0.120 A 
ATOM     39  N   UNL     1      37.879   8.219   2.027  0.00  0.00    -0.263 NA
ATOM     40  C   UNL     1      39.143   8.151   1.423  0.00  0.00    +0.111 A 
ENDBRANCH   4   3
ENDBRANCH  10   9
BRANCH  12  13
ATOM     13  N   UNL     1      31.681  15.531  -3.950  0.00  0.00    -0.281 N 
ATOM     14  C   UNL     1      30.839  16.542  -4.385  0.00  0.00    +0.248 C 
ATOM     30  O   UNL     1      29.738  16.776  -3.910  0.00  0.00    -0.270 OA
ATOM     31  H   UNL     1      32.476  15.320  -4.553  0.00  0.00    +0.155 HD
BRANCH  14  15
ATOM     15  C   UNL     1      31.278  17.409  -5.520  0.00  0.00    +0.037 A 
ATOM     16  C   UNL     1      32.698  17.584  -5.838  0.00  0.00    +0.013 A 
ATOM     17  C   UNL     1      33.095  18.439  -6.928  0.00  0.00    +0.005 A 
ATOM     18  C   UNL     1      32.069  19.125  -7.711  0.00  0.00    -0.033 A 
ATOM     28  C   UNL     1      30.668  18.929  -7.377  0.00  0.00    +0.005 A 
ATOM     29  C   UNL     1      30.275  18.092  -6.309  0.00  0.00    +0.013 A 
BRANCH  18  19
ATOM     19  C   UNL     1      32.402  20.073  -8.878  0.00  0.00    +0.119 C 
BRANCH  19  20
ATOM     20  N   UNL     1      31.492  21.237  -9.094  0.00  0.00    -0.302 NA
ATOM     21  C   UNL     1      31.363  21.598 -10.577  0.00  0.00    +0.066 C 
ATOM     22  C   UNL     1      30.390  22.804 -10.787  0.00  0.00    -0.064 C 
ATOM     23  N   UNL     1      30.888  24.003  -9.978  0.00  0.00    +0.379 N 
ATOM     24  C   UNL     1      30.007  25.156 -10.219  0.00  0.00    -0.096 C 
ATOM     25  H   UNL     1      31.902  24.268 -10.356  0.00  0.00    -0.082 HD
ATOM     26  C   UNL     1      31.021  23.652  -8.503  0.00  0.00    -0.064 C 
ATOM     27  C   UNL     1      31.967  22.434  -8.308  0.00  0.00    +0.066 C 
ENDBRANCH  19  20
ENDBRANCH  18  19
ENDBRANCH  14  15
ENDBRANCH  12  13
TORSDOF 6
ENDMDL
