MODEL 1
REMARK VINA RESULT:     -10.2      0.000      0.000
REMARK  Name = C:\Users\Docking\Desktop\test protocol\1iep_ligandH.pdb
REMARK  8 active torsions:
REMARK  status: ('A' for Active; 'I' for Inactive)
REMARK    1  A    between atoms: _5  and  _11
REMARK    2  A    between atoms: _19  and  _21
REMARK    3  A    between atoms: _22  and  _66
REMARK    4  A    between atoms: _27  and  _30
REMARK    5  A    between atoms: _32  and  _33
REMARK    6  A    between atoms: _38  and  _43
REMARK    7  A    between atoms: _43  and  _46
REMARK    8  A    between atoms: _53  and  _55
REMARK                            x       y       z     vdW  Elec       q    Type
REMARK                         _______ _______ _______ _____ _____    ______ ____
ROOT
ATOM     10  C   UNL     1      38.938   8.993  -1.215  0.00  0.00    +0.038 A 
ATOM     11  C   UNL     1      37.939   9.949  -1.532  0.00  0.00    +0.047 A 
ATOM     12  C   UNL     1      37.087   9.788  -2.700  0.00  0.00    +0.035 A 
ATOM     32  C   UNL     1      37.277   8.639  -3.522  0.00  0.00    +0.024 A 
ATOM     33  C   UNL     1      38.288   7.658  -3.215  0.00  0.00    +0.007 A 
ATOM     34  C   UNL     1      39.133   7.812  -2.066  0.00  0.00    -0.029 A 
ATOM     35  C   UNL     1      40.204   6.732  -1.789  0.00  0.00    +0.045 C 
ENDROOT
BRANCH  10   9
ATOM      4  C   UNL     1      43.128   9.997   0.898  0.00  0.00    +0.077 A 
ATOM      5  C   UNL     1      43.807  10.097  -0.362  0.00  0.00    +0.048 A 
ATOM      6  C   UNL     1      43.043   9.875  -1.530  0.00  0.00    +0.116 A 
ATOM      7  N   UNL     1      41.701   9.578  -1.433  0.00  0.00    -0.223 NA
ATOM      8  C   UNL     1      41.078   9.487  -0.202  0.00  0.00    +0.220 A 
ATOM      9  N   UNL     1      39.728   9.197  -0.082  0.00  0.00    -0.283 N 
ATOM     36  H   UNL     1      39.307   9.132   0.845  0.00  0.00    +0.155 HD
ATOM     37  N   UNL     1      41.786   9.693   0.928  0.00  0.00    -0.214 NA
BRANCH   4   3
ATOM      1  C   UNL     1      43.914  11.203   4.535  0.00  0.00    +0.020 A 
ATOM      2  C   UNL     1      43.226  11.033   3.276  0.00  0.00    +0.013 A 
ATOM      3  C   UNL     1      43.798  10.207   2.220  0.00  0.00    +0.019 A 
ATOM     38  C   UNL     1      45.078   9.562   2.473  0.00  0.00    +0.120 A 
ATOM     39  N   UNL     1      45.718   9.745   3.695  0.00  0.00    -0.263 NA
ATOM     40  C   UNL     1      45.177  10.538   4.717  0.00  0.00    +0.111 A 
ENDBRANCH   4   3
ENDBRANCH  10   9
BRANCH  12  13
ATOM     13  N   UNL     1      36.062  10.730  -3.077  0.00  0.00    -0.281 N 
ATOM     14  C   UNL     1      34.777  10.838  -2.571  0.00  0.00    +0.248 C 
ATOM     30  O   UNL     1      34.240   9.999  -1.864  0.00  0.00    -0.270 OA
ATOM     31  H   UNL     1      36.315  11.399  -3.805  0.00  0.00    +0.155 HD
BRANCH  14  15
ATOM     15  C   UNL     1      33.966  12.047  -2.912  0.00  0.00    +0.037 A 
ATOM     16  C   UNL     1      33.597  12.348  -4.297  0.00  0.00    +0.013 A 
ATOM     17  C   UNL     1      32.829  13.529  -4.600  0.00  0.00    +0.005 A 
ATOM     18  C   UNL     1      32.423  14.418  -3.514  0.00  0.00    -0.033 A 
ATOM     28  C   UNL     1      32.799  14.093  -2.148  0.00  0.00    +0.005 A 
ATOM     29  C   UNL     1      33.553  12.936  -1.847  0.00  0.00    +0.013 A 
BRANCH  18  19
ATOM     19  C   UNL     1      31.620  15.712  -3.747  0.00  0.00    +0.119 C 
BRANCH  19  20
ATOM     20  N   UNL     1      31.818  16.414  -5.050  0.00  0.00    -0.302 NA
ATOM     21  C   UNL     1      33.116  17.224  -5.075  0.00  0.00    +0.066 C 
ATOM     22  C   UNL     1      33.318  17.934  -6.453  0.00  0.00    -0.064 C 
ATOM     23  N   UNL     1      32.114  18.831  -6.743  0.00  0.00    +0.379 N 
ATOM     24  C   UNL     1      32.327  19.544  -8.011  0.00  0.00    -0.096 C 
ATOM     25  H   UNL     1      32.057  19.594  -5.932  0.00  0.00    -0.082 HD
ATOM     26  C   UNL     1      30.818  18.033  -6.718  0.00  0.00    -0.064 C 
ATOM     27  C   UNL     1      30.642  17.309  -5.354  0.00  0.00    +0.066 C 
ENDBRANCH  19  20
ENDBRANCH  18  19
ENDBRANCH  14  15
ENDBRANCH  12  13
TORSDOF 6
ENDMDL
MODEL 2
REMARK VINA RESULT:      -9.6     15.022     25.351
REMARK  Name = C:\Users\Docking\Desktop\test protocol\1iep_ligandH.pdb
REMARK  8 active torsions:
REMARK  status: ('A' for Active; 'I' for Inactive)
REMARK    1  A    between atoms: _5  and  _11
REMARK    2  A    between atoms: _19  and  _21
REMARK    3  A    between atoms: _22  and  _66
REMARK    4  A    between atoms: _27  and  _30
REMARK    5  A    between atoms: _32  and  _33
REMARK    6  A    between atoms: _38  and  _43
REMARK    7  A    between atoms: _43  and  _46
REMARK    8  A    between atoms: _53  and  _55
REMARK                            x       y       z     vdW  Elec       q    Type
REMARK                         _______ _______ _______ _____ _____    ______ ____
ROOT
ATOM     10  C   UNL     1      24.607  31.744 -11.999  0.00  0.00    +0.038 A 
ATOM     11  C   UNL     1      25.516  30.773 -11.506  0.00  0.00    +0.047 A 
ATOM     12  C   UNL     1      25.865  30.716 -10.095  0.00  0.00    +0.035 A 
ATOM     32  C   UNL     1      25.267  31.663  -9.213  0.00  0.00    +0.024 A 
ATOM     33  C   UNL     1      24.342  32.657  -9.697  0.00  0.00    +0.007 A 
ATOM     34  C   UNL     1      23.996  32.719 -11.088  0.00  0.00    -0.029 A 
ATOM     35  C   UNL     1      23.003  33.811 -11.552  0.00  0.00    +0.045 C 
ENDROOT
BRANCH  10   9
ATOM      4  C   UNL     1      25.898  31.524 -16.617  0.00  0.00    +0.077 A 
ATOM      5  C   UNL     1      27.288  31.409 -16.284  0.00  0.00    +0.048 A 
ATOM      6  C   UNL     1      27.630  31.418 -14.913  0.00  0.00    +0.116 A 
ATOM      7  N   UNL     1      26.646  31.533 -13.955  0.00  0.00    -0.223 NA
ATOM      8  C   UNL     1      25.315  31.643 -14.310  0.00  0.00    +0.220 A 
ATOM      9  N   UNL     1      24.308  31.752 -13.363  0.00  0.00    -0.283 N 
ATOM     36  H   UNL     1      23.338  31.839 -13.666  0.00  0.00    +0.155 HD
ATOM     37  N   UNL     1      24.962  31.639 -15.612  0.00  0.00    -0.214 NA
BRANCH   4   3
ATOM      1  C   UNL     1      25.519  30.892 -20.458  0.00  0.00    +0.020 A 
ATOM      2  C   UNL     1      26.063  30.859 -19.120  0.00  0.00    +0.013 A 
ATOM      3  C   UNL     1      25.378  31.527 -18.021  0.00  0.00    +0.019 A 
ATOM     38  C   UNL     1      24.134  32.223 -18.311  0.00  0.00    +0.120 A 
ATOM     39  N   UNL     1      23.634  32.239 -19.609  0.00  0.00    -0.263 NA
ATOM     40  C   UNL     1      24.286  31.602 -20.676  0.00  0.00    +0.111 A 
ENDBRANCH   4   3
ENDBRANCH  10   9
BRANCH  12  13
ATOM     13  N   UNL     1      26.787  29.758  -9.538  0.00  0.00    -0.281 N 
ATOM     14  C   UNL     1      26.526  28.764  -8.610  0.00  0.00    +0.248 C 
ATOM     30  O   UNL     1      25.498  28.684  -7.954  0.00  0.00    -0.270 OA
ATOM     31  H   UNL     1      27.750  29.821  -9.869  0.00  0.00    +0.155 HD
BRANCH  14  15
ATOM     15  C   UNL     1      27.561  27.715  -8.364  0.00  0.00    +0.037 A 
ATOM     16  C   UNL     1      27.231  26.289  -8.438  0.00  0.00    +0.013 A 
ATOM     17  C   UNL     1      28.245  25.298  -8.180  0.00  0.00    +0.005 A 
ATOM     18  C   UNL     1      29.601  25.729  -7.847  0.00  0.00    -0.033 A 
ATOM     28  C   UNL     1      29.902  27.150  -7.786  0.00  0.00    +0.005 A 
ATOM     29  C   UNL     1      28.911  28.125  -8.037  0.00  0.00    +0.013 A 
BRANCH  18  19
ATOM     19  C   UNL     1      30.740  24.741  -7.536  0.00  0.00    +0.119 C 
BRANCH  19  20
ATOM     20  N   UNL     1      30.847  23.527  -8.398  0.00  0.00    -0.302 NA
ATOM     21  C   UNL     1      32.048  22.656  -8.019  0.00  0.00    +0.066 C 
ATOM     22  C   UNL     1      32.131  21.378  -8.917  0.00  0.00    -0.064 C 
ATOM     23  N   UNL     1      32.207  21.795 -10.386  0.00  0.00    +0.379 N 
ATOM     24  C   UNL     1      32.343  20.598 -11.229  0.00  0.00    -0.096 C 
ATOM     25  H   UNL     1      33.129  22.408 -10.517  0.00  0.00    -0.082 HD
ATOM     26  C   UNL     1      31.017  22.663 -10.771  0.00  0.00    -0.064 C 
ATOM     27  C   UNL     1      30.927  23.915  -9.854  0.00  0.00    +0.066 C 
ENDBRANCH  19  20
ENDBRANCH  18  19
ENDBRANCH  14  15
ENDBRANCH  12  13
TORSDOF 6
ENDMDL
MODEL 3
REMARK VINA RESULT:      -9.1     20.780     24.231
REMARK  Name = C:\Users\Docking\Desktop\test protocol\1iep_ligandH.pdb
REMARK  8 active torsions:
REMARK  status: ('A' for Active; 'I' for Inactive)
REMARK    1  A    between atoms: _5  and  _11
REMARK    2  A    between atoms: _19  and  _21
REMARK    3  A    between atoms: _22  and  _66
REMARK    4  A    between atoms: _27  and  _30
REMARK    5  A    between atoms: _32  and  _33
REMARK    6  A    between atoms: _38  and  _43
REMARK    7  A    between atoms: _43  and  _46
REMARK    8  A    between atoms: _53  and  _55
REMARK                            x       y       z     vdW  Elec       q    Type
REMARK                         _______ _______ _______ _____ _____    ______ ____
ROOT
ATOM     10  C   UNL     1      35.135  32.170  -1.335  0.00  0.00    +0.038 A 
ATOM     11  C   UNL     1      36.154  32.269  -0.353  0.00  0.00    +0.047 A 
ATOM     12  C   UNL     1      37.549  32.437  -0.729  0.00  0.00    +0.035 A 
ATOM     32  C   UNL     1      37.871  32.503  -2.116  0.00  0.00    +0.024 A 
ATOM     33  C   UNL     1      36.849  32.403  -3.128  0.00  0.00    +0.007 A 
ATOM     34  C   UNL     1      35.471  32.234  -2.763  0.00  0.00    -0.029 A 
ATOM     35  C   UNL     1      34.418  32.126  -3.890  0.00  0.00    +0.045 C 
ENDROOT
BRANCH  10   9
ATOM      4  C   UNL     1      31.573  32.870   1.805  0.00  0.00    +0.077 A 
ATOM      5  C   UNL     1      32.427  33.594   2.702  0.00  0.00    +0.048 A 
ATOM      6  C   UNL     1      33.778  33.758   2.321  0.00  0.00    +0.116 A 
ATOM      7  N   UNL     1      34.230  33.233   1.130  0.00  0.00    -0.223 NA
ATOM      8  C   UNL     1      33.381  32.538   0.289  0.00  0.00    +0.220 A 
ATOM      9  N   UNL     1      33.812  32.009  -0.918  0.00  0.00    -0.283 N 
ATOM     36  H   UNL     1      33.156  31.497  -1.507  0.00  0.00    +0.155 HD
ATOM     37  N   UNL     1      32.087  32.367   0.630  0.00  0.00    -0.214 NA
BRANCH   4   3
ATOM      1  C   UNL     1      27.715  33.357   2.221  0.00  0.00    +0.020 A 
ATOM      2  C   UNL     1      29.104  33.655   1.960  0.00  0.00    +0.013 A 
ATOM      3  C   UNL     1      30.121  32.616   2.065  0.00  0.00    +0.019 A 
ATOM     38  C   UNL     1      29.695  31.275   2.438  0.00  0.00    +0.120 A 
ATOM     39  N   UNL     1      28.350  31.019   2.686  0.00  0.00    -0.263 NA
ATOM     40  C   UNL     1      27.363  32.011   2.589  0.00  0.00    +0.111 A 
ENDBRANCH   4   3
ENDBRANCH  10   9
BRANCH  12  13
ATOM     13  N   UNL     1      38.626  32.535   0.224  0.00  0.00    -0.281 N 
ATOM     14  C   UNL     1      39.138  33.679   0.815  0.00  0.00    +0.248 C 
ATOM     30  O   UNL     1      38.887  34.817   0.450  0.00  0.00    -0.270 OA
ATOM     31  H   UNL     1      39.065  31.655   0.495  0.00  0.00    +0.155 HD
BRANCH  14  15
ATOM     15  C   UNL     1      40.077  33.536   1.969  0.00  0.00    +0.037 A 
ATOM     16  C   UNL     1      41.123  34.530   2.226  0.00  0.00    +0.013 A 
ATOM     17  C   UNL     1      42.026  34.359   3.336  0.00  0.00    +0.005 A 
ATOM     18  C   UNL     1      41.886  33.189   4.200  0.00  0.00    -0.033 A 
ATOM     28  C   UNL     1      40.837  32.221   3.925  0.00  0.00    +0.005 A 
ATOM     29  C   UNL     1      39.951  32.385   2.837  0.00  0.00    +0.013 A 
BRANCH  18  19
ATOM     19  C   UNL     1      42.819  32.915   5.394  0.00  0.00    +0.119 C 
BRANCH  19  20
ATOM     20  N   UNL     1      42.238  32.189   6.563  0.00  0.00    -0.302 NA
ATOM     21  C   UNL     1      41.352  33.098   7.421  0.00  0.00    +0.066 C 
ATOM     22  C   UNL     1      40.735  32.317   8.626  0.00  0.00    -0.064 C 
ATOM     23  N   UNL     1      41.859  31.707   9.465  0.00  0.00    +0.379 N 
ATOM     24  C   UNL     1      41.284  31.021  10.632  0.00  0.00    -0.096 C 
ATOM     25  H   UNL     1      42.491  32.545   9.843  0.00  0.00    -0.082 HD
ATOM     26  C   UNL     1      42.746  30.805   8.620  0.00  0.00    -0.064 C 
ATOM     27  C   UNL     1      43.331  31.583   7.408  0.00  0.00    +0.066 C 
ENDBRANCH  19  20
ENDBRANCH  18  19
ENDBRANCH  14  15
ENDBRANCH  12  13
TORSDOF 6
ENDMDL
MODEL 4
REMARK VINA RESULT:      -8.9      6.870      9.451
REMARK  Name = C:\Users\Docking\Desktop\test protocol\1iep_ligandH.pdb
REMARK  8 active torsions:
REMARK  status: ('A' for Active; 'I' for Inactive)
REMARK    1  A    between atoms: _5  and  _11
REMARK    2  A    between atoms: _19  and  _21
REMARK    3  A    between atoms: _22  and  _66
REMARK    4  A    between atoms: _27  and  _30
REMARK    5  A    between atoms: _32  and  _33
REMARK    6  A    between atoms: _38  and  _43
REMARK    7  A    between atoms: _43  and  _46
REMARK    8  A    between atoms: _53  and  _55
REMARK                            x       y       z     vdW  Elec       q    Type
REMARK                         _______ _______ _______ _____ _____    ______ ____
ROOT
ATOM     10  C   UNL     1      33.003  13.319  -1.709  0.00  0.00    +0.038 A 
ATOM     11  C   UNL     1      32.577  14.388  -2.539  0.00  0.00    +0.047 A 
ATOM     12  C   UNL     1      32.558  14.254  -3.987  0.00  0.00    +0.035 A 
ATOM     32  C   UNL     1      32.976  13.016  -4.557  0.00  0.00    +0.024 A 
ATOM     33  C   UNL     1      33.412  11.920  -3.728  0.00  0.00    +0.007 A 
ATOM     34  C   UNL     1      33.436  12.047  -2.299  0.00  0.00    -0.029 A 
ATOM     35  C   UNL     1      33.919  10.841  -1.460  0.00  0.00    +0.045 C 
ENDROOT
BRANCH  10   9
ATOM      4  C   UNL     1      30.747  13.647   2.515  0.00  0.00    +0.077 A 
ATOM      5  C   UNL     1      29.460  13.464   1.909  0.00  0.00    +0.048 A 
ATOM      6  C   UNL     1      29.421  13.296   0.506  0.00  0.00    +0.116 A 
ATOM      7  N   UNL     1      30.589  13.311  -0.225  0.00  0.00    -0.223 NA
ATOM      8  C   UNL     1      31.814  13.491   0.391  0.00  0.00    +0.220 A 
ATOM      9  N   UNL     1      33.001  13.502  -0.324  0.00  0.00    -0.283 N 
ATOM     36  H   UNL     1      33.884  13.645   0.166  0.00  0.00    +0.155 HD
ATOM     37  N   UNL     1      31.877  13.655   1.729  0.00  0.00    -0.214 NA
BRANCH   4   3
ATOM      1  C   UNL     1      32.016  14.975   5.969  0.00  0.00    +0.020 A 
ATOM      2  C   UNL     1      31.855  14.835   4.540  0.00  0.00    +0.013 A 
ATOM      3  C   UNL     1      30.952  13.833   3.986  0.00  0.00    +0.019 A 
ATOM     38  C   UNL     1      30.222  12.983   4.914  0.00  0.00    +0.120 A 
ATOM     39  N   UNL     1      30.399  13.139   6.285  0.00  0.00    -0.263 NA
ATOM     40  C   UNL     1      31.266  14.099   6.829  0.00  0.00    +0.111 A 
ENDBRANCH   4   3
ENDBRANCH  10   9
BRANCH  12  13
ATOM     13  N   UNL     1      32.144  15.307  -4.881  0.00  0.00    -0.281 N 
ATOM     14  C   UNL     1      32.366  16.668  -4.753  0.00  0.00    +0.248 C 
ATOM     30  O   UNL     1      32.772  17.210  -3.736  0.00  0.00    -0.270 OA
ATOM     31  H   UNL     1      31.624  15.013  -5.708  0.00  0.00    +0.155 HD
BRANCH  14  15
ATOM     15  C   UNL     1      32.082  17.559  -5.920  0.00  0.00    +0.037 A 
ATOM     16  C   UNL     1      33.167  18.176  -6.686  0.00  0.00    +0.013 A 
ATOM     17  C   UNL     1      32.865  19.045  -7.796  0.00  0.00    +0.005 A 
ATOM     18  C   UNL     1      31.470  19.299  -8.148  0.00  0.00    -0.033 A 
ATOM     28  C   UNL     1      30.413  18.669  -7.374  0.00  0.00    +0.005 A 
ATOM     29  C   UNL     1      30.705  17.818  -6.284  0.00  0.00    +0.013 A 
BRANCH  18  19
ATOM     19  C   UNL     1      31.055  20.228  -9.304  0.00  0.00    +0.119 C 
BRANCH  19  20
ATOM     20  N   UNL     1      31.609  21.616  -9.298  0.00  0.00    -0.302 NA
ATOM     21  C   UNL     1      31.328  22.341  -7.979  0.00  0.00    +0.066 C 
ATOM     22  C   UNL     1      31.934  23.782  -7.982  0.00  0.00    -0.064 C 
ATOM     23  N   UNL     1      31.364  24.569  -9.163  0.00  0.00    +0.379 N 
ATOM     24  C   UNL     1      31.887  25.943  -9.136  0.00  0.00    -0.096 C 
ATOM     25  H   UNL     1      30.259  24.624  -9.031  0.00  0.00    -0.082 HD
ATOM     26  C   UNL     1      31.636  23.854 -10.479  0.00  0.00    -0.064 C 
ATOM     27  C   UNL     1      31.056  22.412 -10.455  0.00  0.00    +0.066 C 
ENDBRANCH  19  20
ENDBRANCH  18  19
ENDBRANCH  14  15
ENDBRANCH  12  13
TORSDOF 6
ENDMDL
MODEL 5
REMARK VINA RESULT:      -8.7     20.917     24.706
REMARK  Name = C:\Users\Docking\Desktop\test protocol\1iep_ligandH.pdb
REMARK  8 active torsions:
REMARK  status: ('A' for Active; 'I' for Inactive)
REMARK    1  A    between atoms: _5  and  _11
REMARK    2  A    between atoms: _19  and  _21
REMARK    3  A    between atoms: _22  and  _66
REMARK    4  A    between atoms: _27  and  _30
REMARK    5  A    between atoms: _32  and  _33
REMARK    6  A    between atoms: _38  and  _43
REMARK    7  A    between atoms: _43  and  _46
REMARK    8  A    between atoms: _53  and  _55
REMARK                            x       y       z     vdW  Elec       q    Type
REMARK                         _______ _______ _______ _____ _____    ______ ____
ROOT
ATOM     10  C   UNL     1      34.897  32.175  -1.604  0.00  0.00    +0.038 A 
ATOM     11  C   UNL     1      35.977  32.618  -0.799  0.00  0.00    +0.047 A 
ATOM     12  C   UNL     1      37.312  32.782  -1.354  0.00  0.00    +0.035 A 
ATOM     32  C   UNL     1      37.509  32.489  -2.735  0.00  0.00    +0.024 A 
ATOM     33  C   UNL     1      36.422  32.037  -3.568  0.00  0.00    +0.007 A 
ATOM     34  C   UNL     1      35.104  31.871  -3.025  0.00  0.00    -0.029 A 
ATOM     35  C   UNL     1      33.978  31.378  -3.962  0.00  0.00    +0.045 C 
ENDROOT
BRANCH  10   9
ATOM      4  C   UNL     1      31.768  32.968   1.949  0.00  0.00    +0.077 A 
ATOM      5  C   UNL     1      32.735  33.700   2.716  0.00  0.00    +0.048 A 
ATOM      6  C   UNL     1      34.027  33.844   2.164  0.00  0.00    +0.116 A 
ATOM      7  N   UNL     1      34.320  33.293   0.935  0.00  0.00    -0.223 NA
ATOM      8  C   UNL     1      33.366  32.591   0.223  0.00  0.00    +0.220 A 
ATOM      9  N   UNL     1      33.636  32.035  -1.018  0.00  0.00    -0.283 N 
ATOM     36  H   UNL     1      32.907  31.519  -1.509  0.00  0.00    +0.155 HD
ATOM     37  N   UNL     1      32.124  32.439   0.729  0.00  0.00    -0.214 NA
BRANCH   4   3
ATOM      1  C   UNL     1      27.864  33.039   2.181  0.00  0.00    +0.020 A 
ATOM      2  C   UNL     1      29.205  33.297   1.708  0.00  0.00    +0.013 A 
ATOM      3  C   UNL     1      30.359  32.733   2.397  0.00  0.00    +0.019 A 
ATOM     38  C   UNL     1      30.120  31.906   3.570  0.00  0.00    +0.120 A 
ATOM     39  N   UNL     1      28.818  31.676   4.003  0.00  0.00    -0.263 NA
ATOM     40  C   UNL     1      27.700  32.215   3.349  0.00  0.00    +0.111 A 
ENDBRANCH   4   3
ENDBRANCH  10   9
BRANCH  12  13
ATOM     13  N   UNL     1      38.449  33.220  -0.584  0.00  0.00    -0.281 N 
ATOM     14  C   UNL     1      38.498  34.230   0.363  0.00  0.00    +0.248 C 
ATOM     30  O   UNL     1      37.616  35.057   0.538  0.00  0.00    -0.270 OA
ATOM     31  H   UNL     1      39.324  32.726  -0.758  0.00  0.00    +0.155 HD
BRANCH  14  15
ATOM     15  C   UNL     1      39.709  34.347   1.231  0.00  0.00    +0.037 A 
ATOM     16  C   UNL     1      40.319  33.167   1.848  0.00  0.00    +0.013 A 
ATOM     17  C   UNL     1      41.477  33.310   2.695  0.00  0.00    +0.005 A 
ATOM     18  C   UNL     1      42.033  34.640   2.929  0.00  0.00    -0.033 A 
ATOM     28  C   UNL     1      41.411  35.794   2.301  0.00  0.00    +0.005 A 
ATOM     29  C   UNL     1      40.276  35.658   1.470  0.00  0.00    +0.013 A 
BRANCH  18  19
ATOM     19  C   UNL     1      43.253  34.889   3.836  0.00  0.00    +0.119 C 
BRANCH  19  20
ATOM     20  N   UNL     1      43.003  35.000   5.304  0.00  0.00    -0.302 NA
ATOM     21  C   UNL     1      43.996  35.945   5.986  0.00  0.00    +0.066 C 
ATOM     22  C   UNL     1      43.706  36.067   7.517  0.00  0.00    -0.064 C 
ATOM     23  N   UNL     1      43.755  34.677   8.155  0.00  0.00    +0.379 N 
ATOM     24  C   UNL     1      43.540  34.794   9.604  0.00  0.00    -0.096 C 
ATOM     25  H   UNL     1      44.780  34.269   7.997  0.00  0.00    -0.082 HD
ATOM     26  C   UNL     1      42.772  33.730   7.481  0.00  0.00    -0.064 C 
ATOM     27  C   UNL     1      43.051  33.639   5.954  0.00  0.00    +0.066 C 
ENDBRANCH  19  20
ENDBRANCH  18  19
ENDBRANCH  14  15
ENDBRANCH  12  13
TORSDOF 6
ENDMDL
