MODEL 1
REMARK VINA RESULT:      -7.7      0.000      0.000
REMARK  Name = C:\Users\Docking\Desktop\test protocol\1iep_ligandH.pdb
REMARK  8 active torsions:
REMARK  status: ('A' for Active; 'I' for Inactive)
REMARK    1  A    between atoms: _5  and  _11
REMARK    2  A    between atoms: _19  and  _21
REMARK    3  A    between atoms: _22  and  _66
REMARK    4  A    between atoms: _27  and  _30
REMARK    5  A    between atoms: _32  and  _33
REMARK    6  A    between atoms: _38  and  _43
REMARK    7  A    between atoms: _43  and  _46
REMARK    8  A    between atoms: _53  and  _55
REMARK                            x       y       z     vdW  Elec       q    Type
REMARK                         _______ _______ _______ _____ _____    ______ ____
ROOT
ATOM     10  C   UNL     1       3.740  14.770  35.079  0.00  0.00    +0.038 A 
ATOM     11  C   UNL     1       3.251  15.638  34.070  0.00  0.00    +0.047 A 
ATOM     12  C   UNL     1       2.985  17.041  34.348  0.00  0.00    +0.035 A 
ATOM     32  C   UNL     1       3.231  17.527  35.665  0.00  0.00    +0.024 A 
ATOM     33  C   UNL     1       3.727  16.658  36.703  0.00  0.00    +0.007 A 
ATOM     34  C   UNL     1       3.989  15.273  36.435  0.00  0.00    -0.029 A 
ATOM     35  C   UNL     1       4.514  14.387  37.588  0.00  0.00    +0.045 C 
ENDROOT
BRANCH  10   9
ATOM      4  C   UNL     1       2.233  10.356  33.945  0.00  0.00    +0.077 A 
ATOM      5  C   UNL     1       0.853  10.742  34.027  0.00  0.00    +0.048 A 
ATOM      6  C   UNL     1       0.574  12.084  34.372  0.00  0.00    +0.116 A 
ATOM      7  N   UNL     1       1.606  12.965  34.613  0.00  0.00    -0.223 NA
ATOM      8  C   UNL     1       2.925  12.560  34.526  0.00  0.00    +0.220 A 
ATOM      9  N   UNL     1       3.978  13.432  34.757  0.00  0.00    -0.283 N 
ATOM     36  H   UNL     1       4.937  13.092  34.690  0.00  0.00    +0.155 HD
ATOM     37  N   UNL     1       3.218  11.284  34.201  0.00  0.00    -0.214 NA
BRANCH   4   3
ATOM      1  C   UNL     1       4.447   7.175  33.421  0.00  0.00    +0.020 A 
ATOM      2  C   UNL     1       4.059   8.519  33.781  0.00  0.00    +0.013 A 
ATOM      3  C   UNL     1       2.688   8.975  33.589  0.00  0.00    +0.019 A 
ATOM     38  C   UNL     1       1.726   8.038  33.028  0.00  0.00    +0.120 A 
ATOM     39  N   UNL     1       2.129   6.750  32.690  0.00  0.00    -0.263 NA
ATOM     40  C   UNL     1       3.446   6.301  32.868  0.00  0.00    +0.111 A 
ENDBRANCH   4   3
ENDBRANCH  10   9
BRANCH  12  13
ATOM     13  N   UNL     1       2.480  17.968  33.365  0.00  0.00    -0.281 N 
ATOM     14  C   UNL     1       1.280  18.660  33.385  0.00  0.00    +0.248 C 
ATOM     30  O   UNL     1       0.358  18.423  34.152  0.00  0.00    -0.270 OA
ATOM     31  H   UNL     1       3.079  18.133  32.557  0.00  0.00    +0.155 HD
BRANCH  14  15
ATOM     15  C   UNL     1       1.068  19.766  32.402  0.00  0.00    +0.037 A 
ATOM     16  C   UNL     1       0.925  19.492  30.970  0.00  0.00    +0.013 A 
ATOM     17  C   UNL     1       0.739  20.579  30.041  0.00  0.00    +0.005 A 
ATOM     18  C   UNL     1       0.693  21.950  30.543  0.00  0.00    -0.033 A 
ATOM     28  C   UNL     1       0.832  22.193  31.970  0.00  0.00    +0.005 A 
ATOM     29  C   UNL     1       1.016  21.130  32.883  0.00  0.00    +0.013 A 
BRANCH  18  19
ATOM     19  C   UNL     1       0.519  23.172  29.623  0.00  0.00    +0.119 C 
BRANCH  19  20
ATOM     20  N   UNL     1       0.520  24.520  30.267  0.00  0.00    -0.302 NA
ATOM     21  C   UNL     1      -0.750  25.312  29.944  0.00  0.00    +0.066 C 
ATOM     22  C   UNL     1      -0.743  26.710  30.644  0.00  0.00    -0.064 C 
ATOM     23  N   UNL     1       0.504  27.486  30.215  0.00  0.00    +0.379 N 
ATOM     24  C   UNL     1       0.485  28.822  30.826  0.00  0.00    -0.096 C 
ATOM     25  H   UNL     1       0.455  27.618  29.109  0.00  0.00    -0.082 HD
ATOM     26  C   UNL     1       1.771  26.703  30.530  0.00  0.00    -0.064 C 
ATOM     27  C   UNL     1       1.740  25.305  29.854  0.00  0.00    +0.066 C 
ENDBRANCH  19  20
ENDBRANCH  18  19
ENDBRANCH  14  15
ENDBRANCH  12  13
TORSDOF 6
ENDMDL
MODEL 2
REMARK VINA RESULT:      -7.4      1.219      1.678
REMARK  Name = C:\Users\Docking\Desktop\test protocol\1iep_ligandH.pdb
REMARK  8 active torsions:
REMARK  status: ('A' for Active; 'I' for Inactive)
REMARK    1  A    between atoms: _5  and  _11
REMARK    2  A    between atoms: _19  and  _21
REMARK    3  A    between atoms: _22  and  _66
REMARK    4  A    between atoms: _27  and  _30
REMARK    5  A    between atoms: _32  and  _33
REMARK    6  A    between atoms: _38  and  _43
REMARK    7  A    between atoms: _43  and  _46
REMARK    8  A    between atoms: _53  and  _55
REMARK                            x       y       z     vdW  Elec       q    Type
REMARK                         _______ _______ _______ _____ _____    ______ ____
ROOT
ATOM     10  C   UNL     1       2.775  15.328  35.259  0.00  0.00    +0.038 A 
ATOM     11  C   UNL     1       2.353  16.149  34.182  0.00  0.00    +0.047 A 
ATOM     12  C   UNL     1       2.567  17.588  34.205  0.00  0.00    +0.035 A 
ATOM     32  C   UNL     1       3.216  18.157  35.339  0.00  0.00    +0.024 A 
ATOM     33  C   UNL     1       3.650  17.337  36.442  0.00  0.00    +0.007 A 
ATOM     34  C   UNL     1       3.440  15.917  36.427  0.00  0.00    -0.029 A 
ATOM     35  C   UNL     1       3.920  15.088  37.641  0.00  0.00    +0.045 C 
ENDROOT
BRANCH  10   9
ATOM      4  C   UNL     1       3.422  11.032  33.219  0.00  0.00    +0.077 A 
ATOM      5  C   UNL     1       4.270  11.578  32.198  0.00  0.00    +0.048 A 
ATOM      6  C   UNL     1       4.508  12.971  32.230  0.00  0.00    +0.116 A 
ATOM      7  N   UNL     1       3.937  13.749  33.213  0.00  0.00    -0.223 NA
ATOM      8  C   UNL     1       3.123  13.190  34.181  0.00  0.00    +0.220 A 
ATOM      9  N   UNL     1       2.544  13.952  35.184  0.00  0.00    -0.283 N 
ATOM     36  H   UNL     1       1.944  13.504  35.876  0.00  0.00    +0.155 HD
ATOM     37  N   UNL     1       2.879  11.863  34.172  0.00  0.00    -0.214 NA
BRANCH   4   3
ATOM      1  C   UNL     1       3.644   7.179  33.859  0.00  0.00    +0.020 A 
ATOM      2  C   UNL     1       4.027   8.570  33.778  0.00  0.00    +0.013 A 
ATOM      3  C   UNL     1       3.079   9.578  33.321  0.00  0.00    +0.019 A 
ATOM     38  C   UNL     1       1.740   9.143  32.952  0.00  0.00    +0.120 A 
ATOM     39  N   UNL     1       1.401   7.796  33.039  0.00  0.00    -0.263 NA
ATOM     40  C   UNL     1       2.305   6.817  33.475  0.00  0.00    +0.111 A 
ENDBRANCH   4   3
ENDBRANCH  10   9
BRANCH  12  13
ATOM     13  N   UNL     1       2.153  18.473  33.144  0.00  0.00    -0.281 N 
ATOM     14  C   UNL     1       0.906  19.045  32.950  0.00  0.00    +0.248 C 
ATOM     30  O   UNL     1      -0.108  18.710  33.544  0.00  0.00    -0.270 OA
ATOM     31  H   UNL     1       2.866  18.707  32.453  0.00  0.00    +0.155 HD
BRANCH  14  15
ATOM     15  C   UNL     1       0.762  20.137  31.940  0.00  0.00    +0.037 A 
ATOM     16  C   UNL     1       1.501  20.104  30.675  0.00  0.00    +0.013 A 
ATOM     17  C   UNL     1       1.356  21.179  29.725  0.00  0.00    +0.005 A 
ATOM     18  C   UNL     1       0.467  22.296  30.037  0.00  0.00    -0.033 A 
ATOM     28  C   UNL     1      -0.258  22.300  31.297  0.00  0.00    +0.005 A 
ATOM     29  C   UNL     1      -0.118  21.249  32.231  0.00  0.00    +0.013 A 
BRANCH  18  19
ATOM     19  C   UNL     1       0.269  23.496  29.092  0.00  0.00    +0.119 C 
BRANCH  19  20
ATOM     20  N   UNL     1       0.787  24.819  29.550  0.00  0.00    -0.302 NA
ATOM     21  C   UNL     1       1.964  24.672  30.518  0.00  0.00    +0.066 C 
ATOM     22  C   UNL     1       2.509  26.066  30.969  0.00  0.00    -0.064 C 
ATOM     23  N   UNL     1       1.376  26.870  31.611  0.00  0.00    +0.379 N 
ATOM     24  C   UNL     1       1.899  28.159  32.088  0.00  0.00    -0.096 C 
ATOM     25  H   UNL     1       1.019  26.299  32.500  0.00  0.00    -0.082 HD
ATOM     26  C   UNL     1       0.201  27.019  30.655  0.00  0.00    -0.064 C 
ATOM     27  C   UNL     1      -0.314  25.628  30.191  0.00  0.00    +0.066 C 
ENDBRANCH  19  20
ENDBRANCH  18  19
ENDBRANCH  14  15
ENDBRANCH  12  13
TORSDOF 6
ENDMDL
MODEL 3
REMARK VINA RESULT:      -7.4     31.664     33.823
REMARK  Name = C:\Users\Docking\Desktop\test protocol\1iep_ligandH.pdb
REMARK  8 active torsions:
REMARK  status: ('A' for Active; 'I' for Inactive)
REMARK    1  A    between atoms: _5  and  _11
REMARK    2  A    between atoms: _19  and  _21
REMARK    3  A    between atoms: _22  and  _66
REMARK    4  A    between atoms: _27  and  _30
REMARK    5  A    between atoms: _32  and  _33
REMARK    6  A    between atoms: _38  and  _43
REMARK    7  A    between atoms: _43  and  _46
REMARK    8  A    between atoms: _53  and  _55
REMARK                            x       y       z     vdW  Elec       q    Type
REMARK                         _______ _______ _______ _____ _____    ______ ____
ROOT
ATOM     10  C   UNL     1      14.947   6.842   2.632  0.00  0.00    +0.038 A 
ATOM     11  C   UNL     1      13.659   7.196   3.107  0.00  0.00    +0.047 A 
ATOM     12  C   UNL     1      12.456   6.646   2.502  0.00  0.00    +0.035 A 
ATOM     32  C   UNL     1      12.602   5.736   1.416  0.00  0.00    +0.024 A 
ATOM     33  C   UNL     1      13.904   5.366   0.919  0.00  0.00    +0.007 A 
ATOM     34  C   UNL     1      15.094   5.907   1.510  0.00  0.00    -0.029 A 
ATOM     35  C   UNL     1      16.463   5.480   0.932  0.00  0.00    +0.045 C 
ENDROOT
BRANCH  10   9
ATOM      4  C   UNL     1      18.090  10.413   3.271  0.00  0.00    +0.077 A 
ATOM      5  C   UNL     1      17.461  11.225   2.269  0.00  0.00    +0.048 A 
ATOM      6  C   UNL     1      16.336  10.684   1.608  0.00  0.00    +0.116 A 
ATOM      7  N   UNL     1      15.882   9.424   1.932  0.00  0.00    -0.223 NA
ATOM      8  C   UNL     1      16.513   8.667   2.902  0.00  0.00    +0.220 A 
ATOM      9  N   UNL     1      16.068   7.400   3.250  0.00  0.00    -0.283 N 
ATOM     36  H   UNL     1      16.565   6.871   3.966  0.00  0.00    +0.155 HD
ATOM     37  N   UNL     1      17.590   9.160   3.547  0.00  0.00    -0.214 NA
BRANCH   4   3
ATOM      1  C   UNL     1      21.416  10.381   5.329  0.00  0.00    +0.020 A 
ATOM      2  C   UNL     1      20.279   9.911   4.573  0.00  0.00    +0.013 A 
ATOM      3  C   UNL     1      19.287  10.847   4.059  0.00  0.00    +0.019 A 
ATOM     38  C   UNL     1      19.477  12.264   4.329  0.00  0.00    +0.120 A 
ATOM     39  N   UNL     1      20.582  12.688   5.061  0.00  0.00    -0.263 NA
ATOM     40  C   UNL     1      21.542  11.796   5.562  0.00  0.00    +0.111 A 
ENDBRANCH   4   3
ENDBRANCH  10   9
BRANCH  12  13
ATOM     13  N   UNL     1      11.121   6.976   2.937  0.00  0.00    -0.281 N 
ATOM     14  C   UNL     1      10.278   7.954   2.435  0.00  0.00    +0.248 C 
ATOM     30  O   UNL     1      10.628   8.841   1.671  0.00  0.00    -0.270 OA
ATOM     31  H   UNL     1      10.753   6.420   3.710  0.00  0.00    +0.155 HD
BRANCH  14  15
ATOM     15  C   UNL     1       8.843   7.955   2.853  0.00  0.00    +0.037 A 
ATOM     16  C   UNL     1       8.158   9.198   3.212  0.00  0.00    +0.013 A 
ATOM     17  C   UNL     1       6.778   9.169   3.628  0.00  0.00    +0.005 A 
ATOM     18  C   UNL     1       6.074   7.890   3.686  0.00  0.00    -0.033 A 
ATOM     28  C   UNL     1       6.777   6.672   3.318  0.00  0.00    +0.005 A 
ATOM     29  C   UNL     1       8.130   6.697   2.911  0.00  0.00    +0.013 A 
BRANCH  18  19
ATOM     19  C   UNL     1       4.607   7.762   4.138  0.00  0.00    +0.119 C 
BRANCH  19  20
ATOM     20  N   UNL     1       3.724   8.950   3.940  0.00  0.00    -0.302 NA
ATOM     21  C   UNL     1       2.599   9.009   4.976  0.00  0.00    +0.066 C 
ATOM     22  C   UNL     1       1.698  10.270   4.767  0.00  0.00    -0.064 C 
ATOM     23  N   UNL     1       1.127  10.256   3.348  0.00  0.00    +0.379 N 
ATOM     24  C   UNL     1       0.234  11.409   3.168  0.00  0.00    -0.096 C 
ATOM     25  H   UNL     1       0.513   9.332   3.240  0.00  0.00    -0.082 HD
ATOM     26  C   UNL     1       2.240  10.195   2.311  0.00  0.00    -0.064 C 
ATOM     27  C   UNL     1       3.146   8.954   2.546  0.00  0.00    +0.066 C 
ENDBRANCH  19  20
ENDBRANCH  18  19
ENDBRANCH  14  15
ENDBRANCH  12  13
TORSDOF 6
ENDMDL
MODEL 4
REMARK VINA RESULT:      -7.3     30.227     32.549
REMARK  Name = C:\Users\Docking\Desktop\test protocol\1iep_ligandH.pdb
REMARK  8 active torsions:
REMARK  status: ('A' for Active; 'I' for Inactive)
REMARK    1  A    between atoms: _5  and  _11
REMARK    2  A    between atoms: _19  and  _21
REMARK    3  A    between atoms: _22  and  _66
REMARK    4  A    between atoms: _27  and  _30
REMARK    5  A    between atoms: _32  and  _33
REMARK    6  A    between atoms: _38  and  _43
REMARK    7  A    between atoms: _43  and  _46
REMARK    8  A    between atoms: _53  and  _55
REMARK                            x       y       z     vdW  Elec       q    Type
REMARK                         _______ _______ _______ _____ _____    ______ ____
ROOT
ATOM     10  C   UNL     1      12.828   5.766   2.943  0.00  0.00    +0.038 A 
ATOM     11  C   UNL     1      11.543   6.280   3.255  0.00  0.00    +0.047 A 
ATOM     12  C   UNL     1      10.559   6.527   2.213  0.00  0.00    +0.035 A 
ATOM     32  C   UNL     1      10.915   6.236   0.864  0.00  0.00    +0.024 A 
ATOM     33  C   UNL     1      12.217   5.713   0.529  0.00  0.00    +0.007 A 
ATOM     34  C   UNL     1      13.193   5.470   1.552  0.00  0.00    -0.029 A 
ATOM     35  C   UNL     1      14.575   4.915   1.135  0.00  0.00    +0.045 C 
ENDROOT
BRANCH  10   9
ATOM      4  C   UNL     1      16.261   7.256   5.948  0.00  0.00    +0.077 A 
ATOM      5  C   UNL     1      16.269   8.574   5.380  0.00  0.00    +0.048 A 
ATOM      6  C   UNL     1      15.379   8.825   4.311  0.00  0.00    +0.116 A 
ATOM      7  N   UNL     1      14.548   7.825   3.853  0.00  0.00    -0.223 NA
ATOM      8  C   UNL     1      14.567   6.565   4.422  0.00  0.00    +0.220 A 
ATOM      9  N   UNL     1      13.734   5.547   3.983  0.00  0.00    -0.283 N 
ATOM     36  H   UNL     1      13.784   4.629   4.424  0.00  0.00    +0.155 HD
ATOM     37  N   UNL     1      15.409   6.300   5.443  0.00  0.00    -0.214 NA
BRANCH   4   3
ATOM      1  C   UNL     1      18.073   7.118   9.412  0.00  0.00    +0.020 A 
ATOM      2  C   UNL     1      17.206   7.565   8.346  0.00  0.00    +0.013 A 
ATOM      3  C   UNL     1      17.141   6.838   7.084  0.00  0.00    +0.019 A 
ATOM     38  C   UNL     1      17.972   5.653   6.933  0.00  0.00    +0.120 A 
ATOM     39  N   UNL     1      18.798   5.247   7.977  0.00  0.00    -0.263 NA
ATOM     40  C   UNL     1      18.870   5.940   9.194  0.00  0.00    +0.111 A 
ENDBRANCH   4   3
ENDBRANCH  10   9
BRANCH  12  13
ATOM     13  N   UNL     1       9.242   7.056   2.468  0.00  0.00    -0.281 N 
ATOM     14  C   UNL     1       8.834   8.380   2.430  0.00  0.00    +0.248 C 
ATOM     30  O   UNL     1       9.593   9.336   2.380  0.00  0.00    -0.270 OA
ATOM     31  H   UNL     1       8.523   6.372   2.705  0.00  0.00    +0.155 HD
BRANCH  14  15
ATOM     15  C   UNL     1       7.372   8.686   2.469  0.00  0.00    +0.037 A 
ATOM     16  C   UNL     1       6.445   8.092   1.501  0.00  0.00    +0.013 A 
ATOM     17  C   UNL     1       5.042   8.417   1.550  0.00  0.00    +0.005 A 
ATOM     18  C   UNL     1       4.556   9.341   2.572  0.00  0.00    -0.033 A 
ATOM     28  C   UNL     1       5.496   9.911   3.523  0.00  0.00    +0.005 A 
ATOM     29  C   UNL     1       6.872   9.596   3.477  0.00  0.00    +0.013 A 
BRANCH  18  19
ATOM     19  C   UNL     1       3.078   9.761   2.685  0.00  0.00    +0.119 C 
BRANCH  19  20
ATOM     20  N   UNL     1       2.165   8.853   3.442  0.00  0.00    -0.302 NA
ATOM     21  C   UNL     1       0.928   9.589   3.965  0.00  0.00    +0.066 C 
ATOM     22  C   UNL     1      -0.027   8.619   4.735  0.00  0.00    -0.064 C 
ATOM     23  N   UNL     1       0.738   7.960   5.884  0.00  0.00    +0.379 N 
ATOM     24  C   UNL     1      -0.173   7.092   6.645  0.00  0.00    -0.096 C 
ATOM     25  H   UNL     1       1.084   8.770   6.567  0.00  0.00    -0.082 HD
ATOM     26  C   UNL     1       1.971   7.229   5.372  0.00  0.00    -0.064 C 
ATOM     27  C   UNL     1       2.899   8.195   4.584  0.00  0.00    +0.066 C 
ENDBRANCH  19  20
ENDBRANCH  18  19
ENDBRANCH  14  15
ENDBRANCH  12  13
TORSDOF 6
ENDMDL
MODEL 5
REMARK VINA RESULT:      -7.3      2.378     13.632
REMARK  Name = C:\Users\Docking\Desktop\test protocol\1iep_ligandH.pdb
REMARK  8 active torsions:
REMARK  status: ('A' for Active; 'I' for Inactive)
REMARK    1  A    between atoms: _5  and  _11
REMARK    2  A    between atoms: _19  and  _21
REMARK    3  A    between atoms: _22  and  _66
REMARK    4  A    between atoms: _27  and  _30
REMARK    5  A    between atoms: _32  and  _33
REMARK    6  A    between atoms: _38  and  _43
REMARK    7  A    between atoms: _43  and  _46
REMARK    8  A    between atoms: _53  and  _55
REMARK                            x       y       z     vdW  Elec       q    Type
REMARK                         _______ _______ _______ _____ _____    ______ ____
ROOT
ATOM     10  C   UNL     1       3.044  17.242  34.879  0.00  0.00    +0.038 A 
ATOM     11  C   UNL     1       2.950  15.889  34.466  0.00  0.00    +0.047 A 
ATOM     12  C   UNL     1       3.186  14.798  35.399  0.00  0.00    +0.035 A 
ATOM     32  C   UNL     1       3.513  15.123  36.748  0.00  0.00    +0.024 A 
ATOM     33  C   UNL     1       3.614  16.493  37.185  0.00  0.00    +0.007 A 
ATOM     34  C   UNL     1       3.385  17.573  36.268  0.00  0.00    -0.029 A 
ATOM     35  C   UNL     1       3.512  19.023  36.791  0.00  0.00    +0.045 C 
ENDROOT
BRANCH  10   9
ATOM      4  C   UNL     1       0.116  20.223  32.517  0.00  0.00    +0.077 A 
ATOM      5  C   UNL     1      -1.044  19.712  33.190  0.00  0.00    +0.048 A 
ATOM      6  C   UNL     1      -0.844  18.677  34.131  0.00  0.00    +0.116 A 
ATOM      7  N   UNL     1       0.424  18.197  34.374  0.00  0.00    -0.223 NA
ATOM      8  C   UNL     1       1.521  18.711  33.707  0.00  0.00    +0.220 A 
ATOM      9  N   UNL     1       2.807  18.249  33.941  0.00  0.00    -0.283 N 
ATOM     36  H   UNL     1       3.589  18.649  33.422  0.00  0.00    +0.155 HD
ATOM     37  N   UNL     1       1.357  19.698  32.802  0.00  0.00    -0.214 NA
BRANCH   4   3
ATOM      1  C   UNL     1       0.742  22.359  29.301  0.00  0.00    +0.020 A 
ATOM      2  C   UNL     1       0.824  21.275  30.252  0.00  0.00    +0.013 A 
ATOM      3  C   UNL     1       0.068  21.318  31.497  0.00  0.00    +0.019 A 
ATOM     38  C   UNL     1      -0.768  22.481  31.751  0.00  0.00    +0.120 A 
ATOM     39  N   UNL     1      -0.826  23.511  30.817  0.00  0.00    -0.263 NA
ATOM     40  C   UNL     1      -0.102  23.481  29.616  0.00  0.00    +0.111 A 
ENDBRANCH   4   3
ENDBRANCH  10   9
BRANCH  12  13
ATOM     13  N   UNL     1       3.113  13.405  35.035  0.00  0.00    -0.281 N 
ATOM     14  C   UNL     1       4.082  12.636  34.413  0.00  0.00    +0.248 C 
ATOM     30  O   UNL     1       5.086  13.086  33.880  0.00  0.00    -0.270 OA
ATOM     31  H   UNL     1       2.241  12.928  35.264  0.00  0.00    +0.155 HD
BRANCH  14  15
ATOM     15  C   UNL     1       3.905  11.152  34.363  0.00  0.00    +0.037 A 
ATOM     16  C   UNL     1       4.006  10.334  35.574  0.00  0.00    +0.013 A 
ATOM     17  C   UNL     1       3.847   8.903  35.496  0.00  0.00    +0.005 A 
ATOM     18  C   UNL     1       3.584   8.282  34.200  0.00  0.00    -0.033 A 
ATOM     28  C   UNL     1       3.484   9.118  33.015  0.00  0.00    +0.005 A 
ATOM     29  C   UNL     1       3.640  10.521  33.088  0.00  0.00    +0.013 A 
BRANCH  18  19
ATOM     19  C   UNL     1       3.422   6.761  34.019  0.00  0.00    +0.119 C 
BRANCH  19  20
ATOM     20  N   UNL     1       4.593   5.903  34.368  0.00  0.00    -0.302 NA
ATOM     21  C   UNL     1       5.850   6.300  33.588  0.00  0.00    +0.066 C 
ATOM     22  C   UNL     1       7.071   5.406  33.982  0.00  0.00    -0.064 C 
ATOM     23  N   UNL     1       6.724   3.937  33.737  0.00  0.00    +0.379 N 
ATOM     24  C   UNL     1       7.889   3.098  34.052  0.00  0.00    -0.096 C 
ATOM     25  H   UNL     1       6.504   3.818  32.651  0.00  0.00    -0.082 HD
ATOM     26  C   UNL     1       5.474   3.534  34.507  0.00  0.00    -0.064 C 
ATOM     27  C   UNL     1       4.274   4.447  34.130  0.00  0.00    +0.066 C 
ENDBRANCH  19  20
ENDBRANCH  18  19
ENDBRANCH  14  15
ENDBRANCH  12  13
TORSDOF 6
ENDMDL
