MODEL 1
REMARK VINA RESULT:      -7.6      0.000      0.000
REMARK  Name = C:\Users\Docking\Desktop\test protocol\1iep_ligandH.pdb
REMARK  8 active torsions:
REMARK  status: ('A' for Active; 'I' for Inactive)
REMARK    1  A    between atoms: _5  and  _11
REMARK    2  A    between atoms: _19  and  _21
REMARK    3  A    between atoms: _22  and  _66
REMARK    4  A    between atoms: _27  and  _30
REMARK    5  A    between atoms: _32  and  _33
REMARK    6  A    between atoms: _38  and  _43
REMARK    7  A    between atoms: _43  and  _46
REMARK    8  A    between atoms: _53  and  _55
REMARK                            x       y       z     vdW  Elec       q    Type
REMARK                         _______ _______ _______ _____ _____    ______ ____
ROOT
ATOM     10  C   UNL     1       3.719  14.709  34.958  0.00  0.00    +0.038 A 
ATOM     11  C   UNL     1       3.216  15.583  33.961  0.00  0.00    +0.047 A 
ATOM     12  C   UNL     1       2.955  16.985  34.251  0.00  0.00    +0.035 A 
ATOM     32  C   UNL     1       3.221  17.463  35.568  0.00  0.00    +0.024 A 
ATOM     33  C   UNL     1       3.732  16.587  36.593  0.00  0.00    +0.007 A 
ATOM     34  C   UNL     1       3.989  15.204  36.313  0.00  0.00    -0.029 A 
ATOM     35  C   UNL     1       4.530  14.310  37.453  0.00  0.00    +0.045 C 
ENDROOT
BRANCH  10   9
ATOM      4  C   UNL     1       2.193  10.276  33.928  0.00  0.00    +0.077 A 
ATOM      5  C   UNL     1       0.818  10.647  34.095  0.00  0.00    +0.048 A 
ATOM      6  C   UNL     1       0.546  11.987  34.454  0.00  0.00    +0.116 A 
ATOM      7  N   UNL     1       1.580  12.880  34.628  0.00  0.00    -0.223 NA
ATOM      8  C   UNL     1       2.896  12.489  34.461  0.00  0.00    +0.220 A 
ATOM      9  N   UNL     1       3.952  13.373  34.624  0.00  0.00    -0.283 N 
ATOM     36  H   UNL     1       4.909  13.044  34.498  0.00  0.00    +0.155 HD
ATOM     37  N   UNL     1       3.182  11.215  34.120  0.00  0.00    -0.214 NA
BRANCH   4   3
ATOM      1  C   UNL     1       4.394   7.098  33.330  0.00  0.00    +0.020 A 
ATOM      2  C   UNL     1       4.014   8.438  33.713  0.00  0.00    +0.013 A 
ATOM      3  C   UNL     1       2.641   8.899  33.547  0.00  0.00    +0.019 A 
ATOM     38  C   UNL     1       1.670   7.972  32.987  0.00  0.00    +0.120 A 
ATOM     39  N   UNL     1       2.065   6.688  32.625  0.00  0.00    -0.263 NA
ATOM     40  C   UNL     1       3.384   6.234  32.779  0.00  0.00    +0.111 A 
ENDBRANCH   4   3
ENDBRANCH  10   9
BRANCH  12  13
ATOM     13  N   UNL     1       2.436  17.918  33.282  0.00  0.00    -0.281 N 
ATOM     14  C   UNL     1       1.237  18.610  33.323  0.00  0.00    +0.248 C 
ATOM     30  O   UNL     1       0.326  18.368  34.101  0.00  0.00    -0.270 OA
ATOM     31  H   UNL     1       3.025  18.089  32.467  0.00  0.00    +0.155 HD
BRANCH  14  15
ATOM     15  C   UNL     1       1.011  19.722  32.351  0.00  0.00    +0.037 A 
ATOM     16  C   UNL     1       0.861  19.459  30.917  0.00  0.00    +0.013 A 
ATOM     17  C   UNL     1       0.661  20.552  29.999  0.00  0.00    +0.005 A 
ATOM     18  C   UNL     1       0.609  21.919  30.512  0.00  0.00    -0.033 A 
ATOM     28  C   UNL     1       0.756  22.150  31.940  0.00  0.00    +0.005 A 
ATOM     29  C   UNL     1       0.953  21.082  32.843  0.00  0.00    +0.013 A 
BRANCH  18  19
ATOM     19  C   UNL     1       0.421  23.147  29.603  0.00  0.00    +0.119 C 
BRANCH  19  20
ATOM     20  N   UNL     1       0.430  24.490  30.256  0.00  0.00    -0.302 NA
ATOM     21  C   UNL     1      -0.834  25.293  29.936  0.00  0.00    +0.066 C 
ATOM     22  C   UNL     1      -0.818  26.686  30.646  0.00  0.00    -0.064 C 
ATOM     23  N   UNL     1       0.435  27.456  30.225  0.00  0.00    +0.379 N 
ATOM     24  C   UNL     1       0.424  28.789  30.845  0.00  0.00    -0.096 C 
ATOM     25  H   UNL     1       0.390  27.597  29.120  0.00  0.00    -0.082 HD
ATOM     26  C   UNL     1       1.696  26.663  30.537  0.00  0.00    -0.064 C 
ATOM     27  C   UNL     1       1.657  25.269  29.851  0.00  0.00    +0.066 C 
ENDBRANCH  19  20
ENDBRANCH  18  19
ENDBRANCH  14  15
ENDBRANCH  12  13
TORSDOF 6
ENDMDL
MODEL 2
REMARK VINA RESULT:      -7.5     31.931     34.108
REMARK  Name = C:\Users\Docking\Desktop\test protocol\1iep_ligandH.pdb
REMARK  8 active torsions:
REMARK  status: ('A' for Active; 'I' for Inactive)
REMARK    1  A    between atoms: _5  and  _11
REMARK    2  A    between atoms: _19  and  _21
REMARK    3  A    between atoms: _22  and  _66
REMARK    4  A    between atoms: _27  and  _30
REMARK    5  A    between atoms: _32  and  _33
REMARK    6  A    between atoms: _38  and  _43
REMARK    7  A    between atoms: _43  and  _46
REMARK    8  A    between atoms: _53  and  _55
REMARK                            x       y       z     vdW  Elec       q    Type
REMARK                         _______ _______ _______ _____ _____    ______ ____
ROOT
ATOM     10  C   UNL     1      15.882   8.806   1.872  0.00  0.00    +0.038 A 
ATOM     11  C   UNL     1      14.542   8.846   2.333  0.00  0.00    +0.047 A 
ATOM     12  C   UNL     1      13.562   7.869   1.884  0.00  0.00    +0.035 A 
ATOM     32  C   UNL     1      13.983   6.863   0.967  0.00  0.00    +0.024 A 
ATOM     33  C   UNL     1      15.341   6.808   0.487  0.00  0.00    +0.007 A 
ATOM     34  C   UNL     1      16.312   7.770   0.925  0.00  0.00    -0.029 A 
ATOM     35  C   UNL     1      17.752   7.667   0.373  0.00  0.00    +0.045 C 
ENDROOT
BRANCH  10   9
ATOM      4  C   UNL     1      19.503  10.204   4.696  0.00  0.00    +0.077 A 
ATOM      5  C   UNL     1      19.593   8.914   5.319  0.00  0.00    +0.048 A 
ATOM      6  C   UNL     1      18.685   7.921   4.889  0.00  0.00    +0.116 A 
ATOM      7  N   UNL     1      17.760   8.207   3.908  0.00  0.00    -0.223 NA
ATOM      8  C   UNL     1      17.699   9.461   3.330  0.00  0.00    +0.220 A 
ATOM      9  N   UNL     1      16.781   9.769   2.337  0.00  0.00    -0.283 N 
ATOM     36  H   UNL     1      16.763  10.708   1.940  0.00  0.00    +0.155 HD
ATOM     37  N   UNL     1      18.554  10.427   3.724  0.00  0.00    -0.214 NA
BRANCH   4   3
ATOM      1  C   UNL     1      20.851  13.818   5.344  0.00  0.00    +0.020 A 
ATOM      2  C   UNL     1      19.949  12.742   5.002  0.00  0.00    +0.013 A 
ATOM      3  C   UNL     1      20.395  11.356   5.041  0.00  0.00    +0.019 A 
ATOM     38  C   UNL     1      21.771  11.089   5.434  0.00  0.00    +0.120 A 
ATOM     39  N   UNL     1      22.617  12.145   5.757  0.00  0.00    -0.263 NA
ATOM     40  C   UNL     1      22.199  13.484   5.721  0.00  0.00    +0.111 A 
ENDBRANCH   4   3
ENDBRANCH  10   9
BRANCH  12  13
ATOM     13  N   UNL     1      12.185   7.865   2.312  0.00  0.00    -0.281 N 
ATOM     14  C   UNL     1      11.051   8.029   1.533  0.00  0.00    +0.248 C 
ATOM     30  O   UNL     1      11.058   8.418   0.374  0.00  0.00    -0.270 OA
ATOM     31  H   UNL     1      12.027   7.724   3.309  0.00  0.00    +0.155 HD
BRANCH  14  15
ATOM     15  C   UNL     1       9.714   7.729   2.131  0.00  0.00    +0.037 A 
ATOM     16  C   UNL     1       8.980   6.511   1.781  0.00  0.00    +0.013 A 
ATOM     17  C   UNL     1       7.685   6.255   2.360  0.00  0.00    +0.005 A 
ATOM     18  C   UNL     1       7.116   7.221   3.297  0.00  0.00    -0.033 A 
ATOM     28  C   UNL     1       7.868   8.419   3.631  0.00  0.00    +0.005 A 
ATOM     29  C   UNL     1       9.138   8.673   3.065  0.00  0.00    +0.013 A 
BRANCH  18  19
ATOM     19  C   UNL     1       5.732   7.040   3.947  0.00  0.00    +0.119 C 
BRANCH  19  20
ATOM     20  N   UNL     1       4.823   8.225   3.962  0.00  0.00    -0.302 NA
ATOM     21  C   UNL     1       3.643   8.032   4.919  0.00  0.00    +0.066 C 
ATOM     22  C   UNL     1       2.716   9.290   4.939  0.00  0.00    -0.064 C 
ATOM     23  N   UNL     1       2.221   9.579   3.521  0.00  0.00    +0.379 N 
ATOM     24  C   UNL     1       1.303  10.727   3.545  0.00  0.00    -0.096 C 
ATOM     25  H   UNL     1       1.643   8.690   3.176  0.00  0.00    -0.082 HD
ATOM     26  C   UNL     1       3.389   9.770   2.562  0.00  0.00    -0.064 C 
ATOM     27  C   UNL     1       4.320   8.526   2.572  0.00  0.00    +0.066 C 
ENDBRANCH  19  20
ENDBRANCH  18  19
ENDBRANCH  14  15
ENDBRANCH  12  13
TORSDOF 6
ENDMDL
MODEL 3
REMARK VINA RESULT:      -7.3      2.477     13.647
REMARK  Name = C:\Users\Docking\Desktop\test protocol\1iep_ligandH.pdb
REMARK  8 active torsions:
REMARK  status: ('A' for Active; 'I' for Inactive)
REMARK    1  A    between atoms: _5  and  _11
REMARK    2  A    between atoms: _19  and  _21
REMARK    3  A    between atoms: _22  and  _66
REMARK    4  A    between atoms: _27  and  _30
REMARK    5  A    between atoms: _32  and  _33
REMARK    6  A    between atoms: _38  and  _43
REMARK    7  A    between atoms: _43  and  _46
REMARK    8  A    between atoms: _53  and  _55
REMARK                            x       y       z     vdW  Elec       q    Type
REMARK                         _______ _______ _______ _____ _____    ______ ____
ROOT
ATOM     10  C   UNL     1       3.115  17.096  35.016  0.00  0.00    +0.038 A 
ATOM     11  C   UNL     1       3.015  15.726  34.664  0.00  0.00    +0.047 A 
ATOM     12  C   UNL     1       3.223  14.678  35.652  0.00  0.00    +0.035 A 
ATOM     32  C   UNL     1       3.530  15.063  36.990  0.00  0.00    +0.024 A 
ATOM     33  C   UNL     1       3.637  16.451  37.364  0.00  0.00    +0.007 A 
ATOM     34  C   UNL     1       3.435  17.488  36.394  0.00  0.00    -0.029 A 
ATOM     35  C   UNL     1       3.568  18.960  36.850  0.00  0.00    +0.045 C 
ENDROOT
BRANCH  10   9
ATOM      4  C   UNL     1       0.276  20.070  32.539  0.00  0.00    +0.077 A 
ATOM      5  C   UNL     1      -0.892  19.648  33.257  0.00  0.00    +0.048 A 
ATOM      6  C   UNL     1      -0.721  18.658  34.251  0.00  0.00    +0.116 A 
ATOM      7  N   UNL     1       0.531  18.137  34.500  0.00  0.00    -0.223 NA
ATOM      8  C   UNL     1       1.636  18.565  33.788  0.00  0.00    +0.220 A 
ATOM      9  N   UNL     1       2.905  18.060  34.027  0.00  0.00    -0.283 N 
ATOM     36  H   UNL     1       3.694  18.397  33.476  0.00  0.00    +0.155 HD
ATOM     37  N   UNL     1       1.498  19.508  32.833  0.00  0.00    -0.214 NA
BRANCH   4   3
ATOM      1  C   UNL     1       1.012  22.046  29.245  0.00  0.00    +0.020 A 
ATOM      2  C   UNL     1       1.068  21.014  30.255  0.00  0.00    +0.013 A 
ATOM      3  C   UNL     1       0.257  21.110  31.462  0.00  0.00    +0.019 A 
ATOM     38  C   UNL     1      -0.607  22.271  31.618  0.00  0.00    +0.120 A 
ATOM     39  N   UNL     1      -0.638  23.249  30.629  0.00  0.00    -0.263 NA
ATOM     40  C   UNL     1       0.139  23.169  29.464  0.00  0.00    +0.111 A 
ENDBRANCH   4   3
ENDBRANCH  10   9
BRANCH  12  13
ATOM     13  N   UNL     1       3.143  13.270  35.352  0.00  0.00    -0.281 N 
ATOM     14  C   UNL     1       3.872  12.556  34.415  0.00  0.00    +0.248 C 
ATOM     30  O   UNL     1       4.557  13.063  33.540  0.00  0.00    -0.270 OA
ATOM     31  H   UNL     1       2.466  12.735  35.896  0.00  0.00    +0.155 HD
BRANCH  14  15
ATOM     15  C   UNL     1       3.820  11.063  34.446  0.00  0.00    +0.037 A 
ATOM     16  C   UNL     1       3.816  10.329  35.714  0.00  0.00    +0.013 A 
ATOM     17  C   UNL     1       3.784   8.888  35.716  0.00  0.00    +0.005 A 
ATOM     18  C   UNL     1       3.754   8.171  34.443  0.00  0.00    -0.033 A 
ATOM     28  C   UNL     1       3.753   8.924  33.200  0.00  0.00    +0.005 A 
ATOM     29  C   UNL     1       3.786  10.336  33.195  0.00  0.00    +0.013 A 
BRANCH  18  19
ATOM     19  C   UNL     1       3.739   6.633  34.349  0.00  0.00    +0.119 C 
BRANCH  19  20
ATOM     20  N   UNL     1       5.021   5.919  34.627  0.00  0.00    -0.302 NA
ATOM     21  C   UNL     1       6.060   6.156  33.527  0.00  0.00    +0.066 C 
ATOM     22  C   UNL     1       7.402   5.420  33.845  0.00  0.00    -0.064 C 
ATOM     23  N   UNL     1       7.132   3.925  34.022  0.00  0.00    +0.379 N 
ATOM     24  C   UNL     1       8.400   3.222  34.263  0.00  0.00    -0.096 C 
ATOM     25  H   UNL     1       6.710   3.542  33.063  0.00  0.00    -0.082 HD
ATOM     26  C   UNL     1       6.097   3.681  35.111  0.00  0.00    -0.064 C 
ATOM     27  C   UNL     1       4.777   4.440  34.801  0.00  0.00    +0.066 C 
ENDBRANCH  19  20
ENDBRANCH  18  19
ENDBRANCH  14  15
ENDBRANCH  12  13
TORSDOF 6
ENDMDL
MODEL 4
REMARK VINA RESULT:      -7.3     30.258     32.546
REMARK  Name = C:\Users\Docking\Desktop\test protocol\1iep_ligandH.pdb
REMARK  8 active torsions:
REMARK  status: ('A' for Active; 'I' for Inactive)
REMARK    1  A    between atoms: _5  and  _11
REMARK    2  A    between atoms: _19  and  _21
REMARK    3  A    between atoms: _22  and  _66
REMARK    4  A    between atoms: _27  and  _30
REMARK    5  A    between atoms: _32  and  _33
REMARK    6  A    between atoms: _38  and  _43
REMARK    7  A    between atoms: _43  and  _46
REMARK    8  A    between atoms: _53  and  _55
REMARK                            x       y       z     vdW  Elec       q    Type
REMARK                         _______ _______ _______ _____ _____    ______ ____
ROOT
ATOM     10  C   UNL     1      12.797   5.734   2.922  0.00  0.00    +0.038 A 
ATOM     11  C   UNL     1      11.509   6.246   3.218  0.00  0.00    +0.047 A 
ATOM     12  C   UNL     1      10.541   6.505   2.164  0.00  0.00    +0.035 A 
ATOM     32  C   UNL     1      10.918   6.228   0.818  0.00  0.00    +0.024 A 
ATOM     33  C   UNL     1      12.224   5.708   0.498  0.00  0.00    +0.007 A 
ATOM     34  C   UNL     1      13.184   5.453   1.534  0.00  0.00    -0.029 A 
ATOM     35  C   UNL     1      14.572   4.902   1.133  0.00  0.00    +0.045 C 
ENDROOT
BRANCH  10   9
ATOM      4  C   UNL     1      16.177   7.192   6.003  0.00  0.00    +0.077 A 
ATOM      5  C   UNL     1      16.190   8.517   5.453  0.00  0.00    +0.048 A 
ATOM      6  C   UNL     1      15.317   8.781   4.373  0.00  0.00    +0.116 A 
ATOM      7  N   UNL     1      14.496   7.786   3.888  0.00  0.00    -0.223 NA
ATOM      8  C   UNL     1      14.510   6.518   4.440  0.00  0.00    +0.220 A 
ATOM      9  N   UNL     1      13.687   5.504   3.974  0.00  0.00    -0.283 N 
ATOM     36  H   UNL     1      13.732   4.580   4.403  0.00  0.00    +0.155 HD
ATOM     37  N   UNL     1      15.335   6.241   5.471  0.00  0.00    -0.214 NA
BRANCH   4   3
ATOM      1  C   UNL     1      18.115   7.129   9.400  0.00  0.00    +0.020 A 
ATOM      2  C   UNL     1      17.273   7.593   8.321  0.00  0.00    +0.013 A 
ATOM      3  C   UNL     1      17.039   6.761   7.148  0.00  0.00    +0.019 A 
ATOM     38  C   UNL     1      17.675   5.453   7.097  0.00  0.00    +0.120 A 
ATOM     39  N   UNL     1      18.482   5.033   8.150  0.00  0.00    -0.263 NA
ATOM     40  C   UNL     1      18.716   5.826   9.284  0.00  0.00    +0.111 A 
ENDBRANCH   4   3
ENDBRANCH  10   9
BRANCH  12  13
ATOM     13  N   UNL     1       9.220   7.033   2.404  0.00  0.00    -0.281 N 
ATOM     14  C   UNL     1       8.822   8.359   2.412  0.00  0.00    +0.248 C 
ATOM     30  O   UNL     1       9.588   9.311   2.426  0.00  0.00    -0.270 OA
ATOM     31  H   UNL     1       8.491   6.344   2.590  0.00  0.00    +0.155 HD
BRANCH  14  15
ATOM     15  C   UNL     1       7.360   8.674   2.422  0.00  0.00    +0.037 A 
ATOM     16  C   UNL     1       6.437   8.026   1.487  0.00  0.00    +0.013 A 
ATOM     17  C   UNL     1       5.035   8.360   1.506  0.00  0.00    +0.005 A 
ATOM     18  C   UNL     1       4.548   9.348   2.465  0.00  0.00    -0.033 A 
ATOM     28  C   UNL     1       5.485   9.972   3.385  0.00  0.00    +0.005 A 
ATOM     29  C   UNL     1       6.860   9.648   3.368  0.00  0.00    +0.013 A 
BRANCH  18  19
ATOM     19  C   UNL     1       3.072   9.782   2.542  0.00  0.00    +0.119 C 
BRANCH  19  20
ATOM     20  N   UNL     1       2.136   8.891   3.291  0.00  0.00    -0.302 NA
ATOM     21  C   UNL     1       0.695   9.019   2.787  0.00  0.00    +0.066 C 
ATOM     22  C   UNL     1      -0.267   8.064   3.566  0.00  0.00    -0.064 C 
ATOM     23  N   UNL     1      -0.186   8.372   5.062  0.00  0.00    +0.379 N 
ATOM     24  C   UNL     1      -1.133   7.514   5.791  0.00  0.00    -0.096 C 
ATOM     25  H   UNL     1      -0.507   9.429   5.207  0.00  0.00    -0.082 HD
ATOM     26  C   UNL     1       1.243   8.249   5.570  0.00  0.00    -0.064 C 
ATOM     27  C   UNL     1       2.196   9.181   4.770  0.00  0.00    +0.066 C 
ENDBRANCH  19  20
ENDBRANCH  18  19
ENDBRANCH  14  15
ENDBRANCH  12  13
TORSDOF 6
ENDMDL
MODEL 5
REMARK VINA RESULT:      -7.2     31.990     34.157
REMARK  Name = C:\Users\Docking\Desktop\test protocol\1iep_ligandH.pdb
REMARK  8 active torsions:
REMARK  status: ('A' for Active; 'I' for Inactive)
REMARK    1  A    between atoms: _5  and  _11
REMARK    2  A    between atoms: _19  and  _21
REMARK    3  A    between atoms: _22  and  _66
REMARK    4  A    between atoms: _27  and  _30
REMARK    5  A    between atoms: _32  and  _33
REMARK    6  A    between atoms: _38  and  _43
REMARK    7  A    between atoms: _43  and  _46
REMARK    8  A    between atoms: _53  and  _55
REMARK                            x       y       z     vdW  Elec       q    Type
REMARK                         _______ _______ _______ _____ _____    ______ ____
ROOT
ATOM     10  C   UNL     1      15.448   7.112   2.746  0.00  0.00    +0.038 A 
ATOM     11  C   UNL     1      14.135   7.439   3.174  0.00  0.00    +0.047 A 
ATOM     12  C   UNL     1      12.968   6.854   2.533  0.00  0.00    +0.035 A 
ATOM     32  C   UNL     1      13.173   5.938   1.461  0.00  0.00    +0.024 A 
ATOM     33  C   UNL     1      14.500   5.596   1.012  0.00  0.00    +0.007 A 
ATOM     34  C   UNL     1      15.655   6.172   1.639  0.00  0.00    -0.029 A 
ATOM     35  C   UNL     1      17.054   5.773   1.112  0.00  0.00    +0.045 C 
ENDROOT
BRANCH  10   9
ATOM      4  C   UNL     1      18.527  10.734   3.406  0.00  0.00    +0.077 A 
ATOM      5  C   UNL     1      17.941  11.504   2.346  0.00  0.00    +0.048 A 
ATOM      6  C   UNL     1      16.854  10.928   1.651  0.00  0.00    +0.116 A 
ATOM      7  N   UNL     1      16.395   9.676   1.999  0.00  0.00    -0.223 NA
ATOM      8  C   UNL     1      16.984   8.960   3.025  0.00  0.00    +0.220 A 
ATOM      9  N   UNL     1      16.533   7.703   3.397  0.00  0.00    -0.283 N 
ATOM     36  H   UNL     1      16.999   7.204   4.154  0.00  0.00    +0.155 HD
ATOM     37  N   UNL     1      18.024   9.487   3.703  0.00  0.00    -0.214 NA
BRANCH   4   3
ATOM      1  C   UNL     1      20.976  13.001   5.447  0.00  0.00    +0.020 A 
ATOM      2  C   UNL     1      19.844  12.596   4.646  0.00  0.00    +0.013 A 
ATOM      3  C   UNL     1      19.681  11.207   4.235  0.00  0.00    +0.019 A 
ATOM     38  C   UNL     1      20.689  10.246   4.655  0.00  0.00    +0.120 A 
ATOM     39  N   UNL     1      21.769  10.665   5.425  0.00  0.00    -0.263 NA
ATOM     40  C   UNL     1      21.937  11.999   5.825  0.00  0.00    +0.111 A 
ENDBRANCH   4   3
ENDBRANCH  10   9
BRANCH  12  13
ATOM     13  N   UNL     1      11.611   7.154   2.919  0.00  0.00    -0.281 N 
ATOM     14  C   UNL     1      10.670   7.891   2.220  0.00  0.00    +0.248 C 
ATOM     30  O   UNL     1      10.920   8.588   1.248  0.00  0.00    -0.270 OA
ATOM     31  H   UNL     1      11.308   6.778   3.818  0.00  0.00    +0.155 HD
BRANCH  14  15
ATOM     15  C   UNL     1       9.246   7.861   2.674  0.00  0.00    +0.037 A 
ATOM     16  C   UNL     1       8.589   9.063   3.194  0.00  0.00    +0.013 A 
ATOM     17  C   UNL     1       7.220   9.003   3.641  0.00  0.00    +0.005 A 
ATOM     18  C   UNL     1       6.498   7.734   3.570  0.00  0.00    -0.033 A 
ATOM     28  C   UNL     1       7.173   6.559   3.045  0.00  0.00    +0.005 A 
ATOM     29  C   UNL     1       8.515   6.614   2.606  0.00  0.00    +0.013 A 
BRANCH  18  19
ATOM     19  C   UNL     1       5.042   7.573   4.045  0.00  0.00    +0.119 C 
BRANCH  19  20
ATOM     20  N   UNL     1       3.977   8.204   3.210  0.00  0.00    -0.302 NA
ATOM     21  C   UNL     1       4.421   8.394   1.757  0.00  0.00    +0.066 C 
ATOM     22  C   UNL     1       3.287   9.035   0.894  0.00  0.00    -0.064 C 
ATOM     23  N   UNL     1       2.872  10.371   1.512  0.00  0.00    +0.379 N 
ATOM     24  C   UNL     1       1.846  11.004   0.670  0.00  0.00    -0.096 C 
ATOM     25  H   UNL     1       3.768  11.036   1.512  0.00  0.00    -0.082 HD
ATOM     26  C   UNL     1       2.431  10.192   2.958  0.00  0.00    -0.064 C 
ATOM     27  C   UNL     1       3.555   9.527   3.800  0.00  0.00    +0.066 C 
ENDBRANCH  19  20
ENDBRANCH  18  19
ENDBRANCH  14  15
ENDBRANCH  12  13
TORSDOF 6
ENDMDL
