MODEL 1
REMARK VINA RESULT:      -7.7      0.000      0.000
REMARK  Name = C:\Users\Docking\Desktop\test protocol\1iep_ligandH.pdb
REMARK  8 active torsions:
REMARK  status: ('A' for Active; 'I' for Inactive)
REMARK    1  A    between atoms: _5  and  _11
REMARK    2  A    between atoms: _19  and  _21
REMARK    3  A    between atoms: _22  and  _66
REMARK    4  A    between atoms: _27  and  _30
REMARK    5  A    between atoms: _32  and  _33
REMARK    6  A    between atoms: _38  and  _43
REMARK    7  A    between atoms: _43  and  _46
REMARK    8  A    between atoms: _53  and  _55
REMARK                            x       y       z     vdW  Elec       q    Type
REMARK                         _______ _______ _______ _____ _____    ______ ____
ROOT
ATOM     10  C   UNL     1       3.729  14.748  35.025  0.00  0.00    +0.038 A 
ATOM     11  C   UNL     1       3.233  15.619  34.022  0.00  0.00    +0.047 A 
ATOM     12  C   UNL     1       2.958  17.018  34.308  0.00  0.00    +0.035 A 
ATOM     32  C   UNL     1       3.203  17.499  35.627  0.00  0.00    +0.024 A 
ATOM     33  C   UNL     1       3.706  16.627  36.660  0.00  0.00    +0.007 A 
ATOM     34  C   UNL     1       3.976  15.245  36.384  0.00  0.00    -0.029 A 
ATOM     35  C   UNL     1       4.508  14.355  37.532  0.00  0.00    +0.045 C 
ENDROOT
BRANCH  10   9
ATOM      4  C   UNL     1       2.246  10.315  33.934  0.00  0.00    +0.077 A 
ATOM      5  C   UNL     1       0.865  10.683  34.059  0.00  0.00    +0.048 A 
ATOM      6  C   UNL     1       0.579  12.021  34.412  0.00  0.00    +0.116 A 
ATOM      7  N   UNL     1       1.605  12.916  34.623  0.00  0.00    -0.223 NA
ATOM      8  C   UNL     1       2.927  12.528  34.496  0.00  0.00    +0.220 A 
ATOM      9  N   UNL     1       3.975  13.413  34.695  0.00  0.00    -0.283 N 
ATOM     36  H   UNL     1       4.936  13.087  34.600  0.00  0.00    +0.155 HD
ATOM     37  N   UNL     1       3.226  11.256  34.161  0.00  0.00    -0.214 NA
BRANCH   4   3
ATOM      1  C   UNL     1       4.476   7.149  33.383  0.00  0.00    +0.020 A 
ATOM      2  C   UNL     1       4.081   8.487  33.757  0.00  0.00    +0.013 A 
ATOM      3  C   UNL     1       2.709   8.940  33.564  0.00  0.00    +0.019 A 
ATOM     38  C   UNL     1       1.753   8.007  32.987  0.00  0.00    +0.120 A 
ATOM     39  N   UNL     1       2.163   6.724  32.635  0.00  0.00    -0.263 NA
ATOM     40  C   UNL     1       3.481   6.278  32.814  0.00  0.00    +0.111 A 
ENDBRANCH   4   3
ENDBRANCH  10   9
BRANCH  12  13
ATOM     13  N   UNL     1       2.447  17.948  33.331  0.00  0.00    -0.281 N 
ATOM     14  C   UNL     1       1.248  18.641  33.362  0.00  0.00    +0.248 C 
ATOM     30  O   UNL     1       0.331  18.402  34.134  0.00  0.00    -0.270 OA
ATOM     31  H   UNL     1       3.041  18.115  32.519  0.00  0.00    +0.155 HD
BRANCH  14  15
ATOM     15  C   UNL     1       1.029  19.749  32.383  0.00  0.00    +0.037 A 
ATOM     16  C   UNL     1       0.861  19.478  30.953  0.00  0.00    +0.013 A 
ATOM     17  C   UNL     1       0.669  20.566  30.028  0.00  0.00    +0.005 A 
ATOM     18  C   UNL     1       0.642  21.937  30.532  0.00  0.00    -0.033 A 
ATOM     28  C   UNL     1       0.806  22.178  31.956  0.00  0.00    +0.005 A 
ATOM     29  C   UNL     1       0.995  21.113  32.865  0.00  0.00    +0.013 A 
BRANCH  18  19
ATOM     19  C   UNL     1       0.463  23.162  29.615  0.00  0.00    +0.119 C 
BRANCH  19  20
ATOM     20  N   UNL     1       0.513  24.510  30.256  0.00  0.00    -0.302 NA
ATOM     21  C   UNL     1      -0.728  25.346  29.934  0.00  0.00    +0.066 C 
ATOM     22  C   UNL     1      -0.669  26.744  30.631  0.00  0.00    -0.064 C 
ATOM     23  N   UNL     1       0.603  27.474  30.196  0.00  0.00    +0.379 N 
ATOM     24  C   UNL     1       0.633  28.812  30.805  0.00  0.00    -0.096 C 
ATOM     25  H   UNL     1       0.556  27.606  29.090  0.00  0.00    -0.082 HD
ATOM     26  C   UNL     1       1.842  26.648  30.510  0.00  0.00    -0.064 C 
ATOM     27  C   UNL     1       1.760  25.250  29.837  0.00  0.00    +0.066 C 
ENDBRANCH  19  20
ENDBRANCH  18  19
ENDBRANCH  14  15
ENDBRANCH  12  13
TORSDOF 6
ENDMDL
MODEL 2
REMARK VINA RESULT:      -7.6     31.821     33.974
REMARK  Name = C:\Users\Docking\Desktop\test protocol\1iep_ligandH.pdb
REMARK  8 active torsions:
REMARK  status: ('A' for Active; 'I' for Inactive)
REMARK    1  A    between atoms: _5  and  _11
REMARK    2  A    between atoms: _19  and  _21
REMARK    3  A    between atoms: _22  and  _66
REMARK    4  A    between atoms: _27  and  _30
REMARK    5  A    between atoms: _32  and  _33
REMARK    6  A    between atoms: _38  and  _43
REMARK    7  A    between atoms: _43  and  _46
REMARK    8  A    between atoms: _53  and  _55
REMARK                            x       y       z     vdW  Elec       q    Type
REMARK                         _______ _______ _______ _____ _____    ______ ____
ROOT
ATOM     10  C   UNL     1      15.698   8.706   1.928  0.00  0.00    +0.038 A 
ATOM     11  C   UNL     1      14.363   8.784   2.398  0.00  0.00    +0.047 A 
ATOM     12  C   UNL     1      13.359   7.818   1.979  0.00  0.00    +0.035 A 
ATOM     32  C   UNL     1      13.752   6.782   1.082  0.00  0.00    +0.024 A 
ATOM     33  C   UNL     1      15.106   6.688   0.594  0.00  0.00    +0.007 A 
ATOM     34  C   UNL     1      16.099   7.640   1.002  0.00  0.00    -0.029 A 
ATOM     35  C   UNL     1      17.533   7.494   0.441  0.00  0.00    +0.045 C 
ENDROOT
BRANCH  10   9
ATOM      4  C   UNL     1      19.349  10.104   4.714  0.00  0.00    +0.077 A 
ATOM      5  C   UNL     1      19.406   8.833   5.378  0.00  0.00    +0.048 A 
ATOM      6  C   UNL     1      18.473   7.850   4.978  0.00  0.00    +0.116 A 
ATOM      7  N   UNL     1      17.557   8.127   3.987  0.00  0.00    -0.223 NA
ATOM      8  C   UNL     1      17.528   9.363   3.368  0.00  0.00    +0.220 A 
ATOM      9  N   UNL     1      16.621   9.661   2.363  0.00  0.00    -0.283 N 
ATOM     36  H   UNL     1      16.627  10.587   1.936  0.00  0.00    +0.155 HD
ATOM     37  N   UNL     1      18.407  10.320   3.733  0.00  0.00    -0.214 NA
BRANCH   4   3
ATOM      1  C   UNL     1      22.503  12.189   5.715  0.00  0.00    +0.020 A 
ATOM      2  C   UNL     1      21.656  11.054   5.429  0.00  0.00    +0.013 A 
ATOM      3  C   UNL     1      20.269  11.243   5.023  0.00  0.00    +0.019 A 
ATOM     38  C   UNL     1      19.766  12.605   4.914  0.00  0.00    +0.120 A 
ATOM     39  N   UNL     1      20.605  13.678   5.198  0.00  0.00    -0.263 NA
ATOM     40  C   UNL     1      21.941  13.508   5.591  0.00  0.00    +0.111 A 
ENDBRANCH   4   3
ENDBRANCH  10   9
BRANCH  12  13
ATOM     13  N   UNL     1      11.986   7.852   2.417  0.00  0.00    -0.281 N 
ATOM     14  C   UNL     1      10.856   8.104   1.656  0.00  0.00    +0.248 C 
ATOM     30  O   UNL     1      10.874   8.551   0.519  0.00  0.00    -0.270 OA
ATOM     31  H   UNL     1      11.828   7.668   3.407  0.00  0.00    +0.155 HD
BRANCH  14  15
ATOM     15  C   UNL     1       9.511   7.833   2.250  0.00  0.00    +0.037 A 
ATOM     16  C   UNL     1       8.831   6.553   2.038  0.00  0.00    +0.013 A 
ATOM     17  C   UNL     1       7.526   6.324   2.607  0.00  0.00    +0.005 A 
ATOM     18  C   UNL     1       6.895   7.379   3.396  0.00  0.00    -0.033 A 
ATOM     28  C   UNL     1       7.594   8.637   3.595  0.00  0.00    +0.005 A 
ATOM     29  C   UNL     1       8.872   8.866   3.038  0.00  0.00    +0.013 A 
BRANCH  18  19
ATOM     19  C   UNL     1       5.496   7.230   4.024  0.00  0.00    +0.119 C 
BRANCH  19  20
ATOM     20  N   UNL     1       4.607   8.430   4.005  0.00  0.00    -0.302 NA
ATOM     21  C   UNL     1       3.510   8.349   5.071  0.00  0.00    +0.066 C 
ATOM     22  C   UNL     1       2.603   9.622   5.051  0.00  0.00    -0.064 C 
ATOM     23  N   UNL     1       1.993   9.789   3.659  0.00  0.00    +0.379 N 
ATOM     24  C   UNL     1       1.094  10.952   3.653  0.00  0.00    -0.096 C 
ATOM     25  H   UNL     1       1.377   8.884   3.449  0.00  0.00    -0.082 HD
ATOM     26  C   UNL     1       3.076   9.868   2.592  0.00  0.00    -0.064 C 
ATOM     27  C   UNL     1       3.990   8.611   2.640  0.00  0.00    +0.066 C 
ENDBRANCH  19  20
ENDBRANCH  18  19
ENDBRANCH  14  15
ENDBRANCH  12  13
TORSDOF 6
ENDMDL
MODEL 3
REMARK VINA RESULT:      -7.3      2.385     13.661
REMARK  Name = C:\Users\Docking\Desktop\test protocol\1iep_ligandH.pdb
REMARK  8 active torsions:
REMARK  status: ('A' for Active; 'I' for Inactive)
REMARK    1  A    between atoms: _5  and  _11
REMARK    2  A    between atoms: _19  and  _21
REMARK    3  A    between atoms: _22  and  _66
REMARK    4  A    between atoms: _27  and  _30
REMARK    5  A    between atoms: _32  and  _33
REMARK    6  A    between atoms: _38  and  _43
REMARK    7  A    between atoms: _43  and  _46
REMARK    8  A    between atoms: _53  and  _55
REMARK                            x       y       z     vdW  Elec       q    Type
REMARK                         _______ _______ _______ _____ _____    ______ ____
ROOT
ATOM     10  C   UNL     1       3.004  17.194  34.777  0.00  0.00    +0.038 A 
ATOM     11  C   UNL     1       2.931  15.831  34.393  0.00  0.00    +0.047 A 
ATOM     12  C   UNL     1       3.129  14.764  35.361  0.00  0.00    +0.035 A 
ATOM     32  C   UNL     1       3.397  15.122  36.715  0.00  0.00    +0.024 A 
ATOM     33  C   UNL     1       3.476  16.503  37.123  0.00  0.00    +0.007 A 
ATOM     34  C   UNL     1       3.284  17.559  36.171  0.00  0.00    -0.029 A 
ATOM     35  C   UNL     1       3.387  19.022  36.663  0.00  0.00    +0.045 C 
ENDROOT
BRANCH  10   9
ATOM      4  C   UNL     1       0.205  20.260  32.368  0.00  0.00    +0.077 A 
ATOM      5  C   UNL     1      -0.966  19.849  33.087  0.00  0.00    +0.048 A 
ATOM      6  C   UNL     1      -0.807  18.840  34.064  0.00  0.00    +0.116 A 
ATOM      7  N   UNL     1       0.436  18.291  34.296  0.00  0.00    -0.223 NA
ATOM      8  C   UNL     1       1.545  18.710  33.583  0.00  0.00    +0.220 A 
ATOM      9  N   UNL     1       2.805  18.178  33.806  0.00  0.00    -0.283 N 
ATOM     36  H   UNL     1       3.597  18.508  33.254  0.00  0.00    +0.155 HD
ATOM     37  N   UNL     1       1.418  19.671  32.644  0.00  0.00    -0.214 NA
BRANCH   4   3
ATOM      1  C   UNL     1       0.997  22.300  29.126  0.00  0.00    +0.020 A 
ATOM      2  C   UNL     1       1.042  21.253  30.120  0.00  0.00    +0.013 A 
ATOM      3  C   UNL     1       0.199  21.317  31.308  0.00  0.00    +0.019 A 
ATOM     38  C   UNL     1      -0.686  22.462  31.459  0.00  0.00    +0.120 A 
ATOM     39  N   UNL     1      -0.707  23.456  30.486  0.00  0.00    -0.263 NA
ATOM     40  C   UNL     1       0.101  23.407  29.340  0.00  0.00    +0.111 A 
ENDBRANCH   4   3
ENDBRANCH  10   9
BRANCH  12  13
ATOM     13  N   UNL     1       3.074  13.363  35.028  0.00  0.00    -0.281 N 
ATOM     14  C   UNL     1       4.068  12.583  34.459  0.00  0.00    +0.248 C 
ATOM     30  O   UNL     1       5.088  13.025  33.952  0.00  0.00    -0.270 OA
ATOM     31  H   UNL     1       2.196  12.887  35.236  0.00  0.00    +0.155 HD
BRANCH  14  15
ATOM     15  C   UNL     1       3.898  11.098  34.438  0.00  0.00    +0.037 A 
ATOM     16  C   UNL     1       3.991  10.305  35.667  0.00  0.00    +0.013 A 
ATOM     17  C   UNL     1       3.840   8.873  35.616  0.00  0.00    +0.005 A 
ATOM     18  C   UNL     1       3.593   8.224  34.331  0.00  0.00    -0.033 A 
ATOM     28  C   UNL     1       3.500   9.035  33.128  0.00  0.00    +0.005 A 
ATOM     29  C   UNL     1       3.648  10.439  33.174  0.00  0.00    +0.013 A 
BRANCH  18  19
ATOM     19  C   UNL     1       3.440   6.699  34.180  0.00  0.00    +0.119 C 
BRANCH  19  20
ATOM     20  N   UNL     1       4.639   5.859  34.473  0.00  0.00    -0.302 NA
ATOM     21  C   UNL     1       5.855   6.283  33.644  0.00  0.00    +0.066 C 
ATOM     22  C   UNL     1       7.106   5.409  33.980  0.00  0.00    -0.064 C 
ATOM     23  N   UNL     1       6.775   3.935  33.740  0.00  0.00    +0.379 N 
ATOM     24  C   UNL     1       7.967   3.115  33.999  0.00  0.00    -0.096 C 
ATOM     25  H   UNL     1       6.512   3.819  32.662  0.00  0.00    -0.082 HD
ATOM     26  C   UNL     1       5.566   3.505  34.558  0.00  0.00    -0.064 C 
ATOM     27  C   UNL     1       4.335   4.399  34.238  0.00  0.00    +0.066 C 
ENDBRANCH  19  20
ENDBRANCH  18  19
ENDBRANCH  14  15
ENDBRANCH  12  13
TORSDOF 6
ENDMDL
MODEL 4
REMARK VINA RESULT:      -7.2     30.144     32.493
REMARK  Name = C:\Users\Docking\Desktop\test protocol\1iep_ligandH.pdb
REMARK  8 active torsions:
REMARK  status: ('A' for Active; 'I' for Inactive)
REMARK    1  A    between atoms: _5  and  _11
REMARK    2  A    between atoms: _19  and  _21
REMARK    3  A    between atoms: _22  and  _66
REMARK    4  A    between atoms: _27  and  _30
REMARK    5  A    between atoms: _32  and  _33
REMARK    6  A    between atoms: _38  and  _43
REMARK    7  A    between atoms: _43  and  _46
REMARK    8  A    between atoms: _53  and  _55
REMARK                            x       y       z     vdW  Elec       q    Type
REMARK                         _______ _______ _______ _____ _____    ______ ____
ROOT
ATOM     10  C   UNL     1      12.801   5.728   2.923  0.00  0.00    +0.038 A 
ATOM     11  C   UNL     1      11.515   6.234   3.242  0.00  0.00    +0.047 A 
ATOM     12  C   UNL     1      10.538   6.517   2.203  0.00  0.00    +0.035 A 
ATOM     32  C   UNL     1      10.903   6.269   0.847  0.00  0.00    +0.024 A 
ATOM     33  C   UNL     1      12.206   5.755   0.504  0.00  0.00    +0.007 A 
ATOM     34  C   UNL     1      13.175   5.477   1.526  0.00  0.00    -0.029 A 
ATOM     35  C   UNL     1      14.558   4.933   1.099  0.00  0.00    +0.045 C 
ENDROOT
BRANCH  10   9
ATOM      4  C   UNL     1      16.186   7.124   6.025  0.00  0.00    +0.077 A 
ATOM      5  C   UNL     1      16.182   8.466   5.517  0.00  0.00    +0.048 A 
ATOM      6  C   UNL     1      15.299   8.754   4.452  0.00  0.00    +0.116 A 
ATOM      7  N   UNL     1      14.486   7.766   3.942  0.00  0.00    -0.223 NA
ATOM      8  C   UNL     1      14.516   6.482   4.454  0.00  0.00    +0.220 A 
ATOM      9  N   UNL     1      13.700   5.474   3.961  0.00  0.00    -0.283 N 
ATOM     36  H   UNL     1      13.758   4.538   4.361  0.00  0.00    +0.155 HD
ATOM     37  N   UNL     1      15.351   6.181   5.470  0.00  0.00    -0.214 NA
BRANCH   4   3
ATOM      1  C   UNL     1      18.475   7.086   9.197  0.00  0.00    +0.020 A 
ATOM      2  C   UNL     1      17.637   7.580   8.129  0.00  0.00    +0.013 A 
ATOM      3  C   UNL     1      17.061   6.666   7.151  0.00  0.00    +0.019 A 
ATOM     38  C   UNL     1      17.354   5.247   7.283  0.00  0.00    +0.120 A 
ATOM     39  N   UNL     1      18.166   4.800   8.321  0.00  0.00    -0.263 NA
ATOM     40  C   UNL     1      18.727   5.671   9.268  0.00  0.00    +0.111 A 
ENDBRANCH   4   3
ENDBRANCH  10   9
BRANCH  12  13
ATOM     13  N   UNL     1       9.220   7.040   2.466  0.00  0.00    -0.281 N 
ATOM     14  C   UNL     1       8.808   8.362   2.442  0.00  0.00    +0.248 C 
ATOM     30  O   UNL     1       9.565   9.321   2.398  0.00  0.00    -0.270 OA
ATOM     31  H   UNL     1       8.505   6.351   2.699  0.00  0.00    +0.155 HD
BRANCH  14  15
ATOM     15  C   UNL     1       7.345   8.663   2.487  0.00  0.00    +0.037 A 
ATOM     16  C   UNL     1       6.403   7.991   1.589  0.00  0.00    +0.013 A 
ATOM     17  C   UNL     1       4.998   8.312   1.642  0.00  0.00    +0.005 A 
ATOM     18  C   UNL     1       4.528   9.312   2.598  0.00  0.00    -0.033 A 
ATOM     28  C   UNL     1       5.484   9.960   3.481  0.00  0.00    +0.005 A 
ATOM     29  C   UNL     1       6.861   9.648   3.431  0.00  0.00    +0.013 A 
BRANCH  18  19
ATOM     19  C   UNL     1       3.051   9.733   2.710  0.00  0.00    +0.119 C 
BRANCH  19  20
ATOM     20  N   UNL     1       2.134   8.820   3.455  0.00  0.00    -0.302 NA
ATOM     21  C   UNL     1       0.850   9.529   3.895  0.00  0.00    +0.066 C 
ATOM     22  C   UNL     1      -0.108   8.553   4.654  0.00  0.00    -0.064 C 
ATOM     23  N   UNL     1       0.624   7.959   5.859  0.00  0.00    +0.379 N 
ATOM     24  C   UNL     1      -0.292   7.086   6.607  0.00  0.00    -0.096 C 
ATOM     25  H   UNL     1       0.911   8.802   6.529  0.00  0.00    -0.082 HD
ATOM     26  C   UNL     1       1.903   7.254   5.430  0.00  0.00    -0.064 C 
ATOM     27  C   UNL     1       2.835   8.225   4.652  0.00  0.00    +0.066 C 
ENDBRANCH  19  20
ENDBRANCH  18  19
ENDBRANCH  14  15
ENDBRANCH  12  13
TORSDOF 6
ENDMDL
MODEL 5
REMARK VINA RESULT:      -7.2     30.487     32.523
REMARK  Name = C:\Users\Docking\Desktop\test protocol\1iep_ligandH.pdb
REMARK  8 active torsions:
REMARK  status: ('A' for Active; 'I' for Inactive)
REMARK    1  A    between atoms: _5  and  _11
REMARK    2  A    between atoms: _19  and  _21
REMARK    3  A    between atoms: _22  and  _66
REMARK    4  A    between atoms: _27  and  _30
REMARK    5  A    between atoms: _32  and  _33
REMARK    6  A    between atoms: _38  and  _43
REMARK    7  A    between atoms: _43  and  _46
REMARK    8  A    between atoms: _53  and  _55
REMARK                            x       y       z     vdW  Elec       q    Type
REMARK                         _______ _______ _______ _____ _____    ______ ____
ROOT
ATOM     10  C   UNL     1      12.865   5.497   3.165  0.00  0.00    +0.038 A 
ATOM     11  C   UNL     1      11.608   5.939   3.651  0.00  0.00    +0.047 A 
ATOM     12  C   UNL     1      10.478   6.123   2.754  0.00  0.00    +0.035 A 
ATOM     32  C   UNL     1      10.662   5.845   1.369  0.00  0.00    +0.024 A 
ATOM     33  C   UNL     1      11.933   5.396   0.857  0.00  0.00    +0.007 A 
ATOM     34  C   UNL     1      13.053   5.215   1.736  0.00  0.00    -0.029 A 
ATOM     35  C   UNL     1      14.394   4.738   1.132  0.00  0.00    +0.045 C 
ENDROOT
BRANCH  10   9
ATOM      4  C   UNL     1      16.520   7.220   5.755  0.00  0.00    +0.077 A 
ATOM      5  C   UNL     1      16.337   8.547   5.240  0.00  0.00    +0.048 A 
ATOM      6  C   UNL     1      15.295   8.742   4.306  0.00  0.00    +0.116 A 
ATOM      7  N   UNL     1      14.502   7.682   3.922  0.00  0.00    -0.223 NA
ATOM      8  C   UNL     1      14.707   6.415   4.436  0.00  0.00    +0.220 A 
ATOM      9  N   UNL     1      13.917   5.336   4.070  0.00  0.00    -0.283 N 
ATOM     36  H   UNL     1      14.105   4.416   4.466  0.00  0.00    +0.155 HD
ATOM     37  N   UNL     1      15.696   6.202   5.329  0.00  0.00    -0.214 NA
BRANCH   4   3
ATOM      1  C   UNL     1      18.667   7.033   9.019  0.00  0.00    +0.020 A 
ATOM      2  C   UNL     1      17.626   7.419   8.095  0.00  0.00    +0.013 A 
ATOM      3  C   UNL     1      17.576   6.855   6.751  0.00  0.00    +0.019 A 
ATOM     38  C   UNL     1      18.602   5.896   6.372  0.00  0.00    +0.120 A 
ATOM     39  N   UNL     1      19.593   5.544   7.283  0.00  0.00    -0.263 NA
ATOM     40  C   UNL     1      19.653   6.081   8.578  0.00  0.00    +0.111 A 
ENDBRANCH   4   3
ENDBRANCH  10   9
BRANCH  12  13
ATOM     13  N   UNL     1       9.180   6.577   3.189  0.00  0.00    -0.281 N 
ATOM     14  C   UNL     1       8.710   7.879   3.252  0.00  0.00    +0.248 C 
ATOM     30  O   UNL     1       9.413   8.873   3.145  0.00  0.00    -0.270 OA
ATOM     31  H   UNL     1       8.528   5.851   3.487  0.00  0.00    +0.155 HD
BRANCH  14  15
ATOM     15  C   UNL     1       7.251   8.110   3.481  0.00  0.00    +0.037 A 
ATOM     16  C   UNL     1       6.325   6.990   3.668  0.00  0.00    +0.013 A 
ATOM     17  C   UNL     1       4.920   7.240   3.870  0.00  0.00    +0.005 A 
ATOM     18  C   UNL     1       4.433   8.617   3.888  0.00  0.00    -0.033 A 
ATOM     28  C   UNL     1       5.375   9.709   3.706  0.00  0.00    +0.005 A 
ATOM     29  C   UNL     1       6.752   9.468   3.506  0.00  0.00    +0.013 A 
BRANCH  18  19
ATOM     19  C   UNL     1       2.947   8.977   4.077  0.00  0.00    +0.119 C 
BRANCH  19  20
ATOM     20  N   UNL     1       2.425  10.149   3.313  0.00  0.00    -0.302 NA
ATOM     21  C   UNL     1       1.160  10.732   3.950  0.00  0.00    +0.066 C 
ATOM     22  C   UNL     1       0.640  11.971   3.151  0.00  0.00    -0.064 C 
ATOM     23  N   UNL     1       0.379  11.566   1.700  0.00  0.00    +0.379 N 
ATOM     24  C   UNL     1      -0.165  12.714   0.960  0.00  0.00    -0.096 C 
ATOM     25  H   UNL     1      -0.400  10.768   1.706  0.00  0.00    -0.082 HD
ATOM     26  C   UNL     1       1.631  10.983   1.060  0.00  0.00    -0.064 C 
ATOM     27  C   UNL     1       2.156   9.770   1.878  0.00  0.00    +0.066 C 
ENDBRANCH  19  20
ENDBRANCH  18  19
ENDBRANCH  14  15
ENDBRANCH  12  13
TORSDOF 6
ENDMDL
