MODEL 1
REMARK VINA RESULT:      -7.3      0.000      0.000
REMARK  Name = C:\Users\Docking\Desktop\test protocol\1iep_ligandH.pdb
REMARK  8 active torsions:
REMARK  status: ('A' for Active; 'I' for Inactive)
REMARK    1  A    between atoms: _5  and  _11
REMARK    2  A    between atoms: _19  and  _21
REMARK    3  A    between atoms: _22  and  _66
REMARK    4  A    between atoms: _27  and  _30
REMARK    5  A    between atoms: _32  and  _33
REMARK    6  A    between atoms: _38  and  _43
REMARK    7  A    between atoms: _43  and  _46
REMARK    8  A    between atoms: _53  and  _55
REMARK                            x       y       z     vdW  Elec       q    Type
REMARK                         _______ _______ _______ _____ _____    ______ ____
ROOT
ATOM     10  C   UNL     1     -24.721  -6.099  58.809  0.00  0.00    +0.038 A 
ATOM     11  C   UNL     1     -24.122  -6.626  59.981  0.00  0.00    +0.047 A 
ATOM     12  C   UNL     1     -24.840  -6.656  61.246  0.00  0.00    +0.035 A 
ATOM     32  C   UNL     1     -26.169  -6.143  61.279  0.00  0.00    +0.024 A 
ATOM     33  C   UNL     1     -26.794  -5.603  60.098  0.00  0.00    +0.007 A 
ATOM     34  C   UNL     1     -26.089  -5.568  58.848  0.00  0.00    -0.029 A 
ATOM     35  C   UNL     1     -26.806  -4.972  57.614  0.00  0.00    +0.045 C 
ENDROOT
BRANCH  10   9
ATOM      4  C   UNL     1     -23.360  -8.106  54.667  0.00  0.00    +0.077 A 
ATOM      5  C   UNL     1     -24.162  -9.273  54.900  0.00  0.00    +0.048 A 
ATOM      6  C   UNL     1     -24.904  -9.321  56.102  0.00  0.00    +0.116 A 
ATOM      7  N   UNL     1     -24.841  -8.274  56.996  0.00  0.00    -0.223 NA
ATOM      8  C   UNL     1     -24.057  -7.164  56.740  0.00  0.00    +0.220 A 
ATOM      9  N   UNL     1     -23.986  -6.096  57.621  0.00  0.00    -0.283 N 
ATOM     36  H   UNL     1     -23.390  -5.299  57.400  0.00  0.00    +0.155 HD
ATOM     37  N   UNL     1     -23.338  -7.095  55.601  0.00  0.00    -0.214 NA
BRANCH   4   3
ATOM      1  C   UNL     1     -22.228  -7.328  51.004  0.00  0.00    +0.020 A 
ATOM      2  C   UNL     1     -23.081  -7.507  52.156  0.00  0.00    +0.013 A 
ATOM      3  C   UNL     1     -22.522  -7.907  53.442  0.00  0.00    +0.019 A 
ATOM     38  C   UNL     1     -21.085  -8.118  53.529  0.00  0.00    +0.120 A 
ATOM     39  N   UNL     1     -20.289  -7.939  52.402  0.00  0.00    -0.263 NA
ATOM     40  C   UNL     1     -20.815  -7.556  51.159  0.00  0.00    +0.111 A 
ENDBRANCH   4   3
ENDBRANCH  10   9
BRANCH  12  13
ATOM     13  N   UNL     1     -24.280  -7.171  62.470  0.00  0.00    -0.281 N 
ATOM     14  C   UNL     1     -24.145  -6.520  63.685  0.00  0.00    +0.248 C 
ATOM     30  O   UNL     1     -24.291  -5.317  63.845  0.00  0.00    -0.270 OA
ATOM     31  H   UNL     1     -23.942  -8.133  62.437  0.00  0.00    +0.155 HD
BRANCH  14  15
ATOM     15  C   UNL     1     -23.780  -7.317  64.896  0.00  0.00    +0.037 A 
ATOM     16  C   UNL     1     -23.210  -6.677  66.084  0.00  0.00    +0.013 A 
ATOM     17  C   UNL     1     -22.851  -7.472  67.231  0.00  0.00    +0.005 A 
ATOM     18  C   UNL     1     -23.062  -8.917  67.196  0.00  0.00    -0.033 A 
ATOM     28  C   UNL     1     -23.634  -9.525  66.007  0.00  0.00    +0.005 A 
ATOM     29  C   UNL     1     -23.986  -8.749  64.879  0.00  0.00    +0.013 A 
BRANCH  18  19
ATOM     19  C   UNL     1     -22.689  -9.845  68.367  0.00  0.00    +0.119 C 
BRANCH  19  20
ATOM     20  N   UNL     1     -22.805  -9.287  69.747  0.00  0.00    -0.302 NA
ATOM     21  C   UNL     1     -21.932 -10.046  70.750  0.00  0.00    +0.066 C 
ATOM     22  C   UNL     1     -22.049  -9.434  72.184  0.00  0.00    -0.064 C 
ATOM     23  N   UNL     1     -23.514  -9.447  72.623  0.00  0.00    +0.379 N 
ATOM     24  C   UNL     1     -23.620  -8.926  73.994  0.00  0.00    -0.096 C 
ATOM     25  H   UNL     1     -23.853 -10.509  72.638  0.00  0.00    -0.082 HD
ATOM     26  C   UNL     1     -24.390  -8.697  71.630  0.00  0.00    -0.064 C 
ATOM     27  C   UNL     1     -24.244  -9.294  70.203  0.00  0.00    +0.066 C 
ENDBRANCH  19  20
ENDBRANCH  18  19
ENDBRANCH  14  15
ENDBRANCH  12  13
TORSDOF 6
ENDMDL
MODEL 2
REMARK VINA RESULT:      -7.3     44.209     48.640
REMARK  Name = C:\Users\Docking\Desktop\test protocol\1iep_ligandH.pdb
REMARK  8 active torsions:
REMARK  status: ('A' for Active; 'I' for Inactive)
REMARK    1  A    between atoms: _5  and  _11
REMARK    2  A    between atoms: _19  and  _21
REMARK    3  A    between atoms: _22  and  _66
REMARK    4  A    between atoms: _27  and  _30
REMARK    5  A    between atoms: _32  and  _33
REMARK    6  A    between atoms: _38  and  _43
REMARK    7  A    between atoms: _43  and  _46
REMARK    8  A    between atoms: _53  and  _55
REMARK                            x       y       z     vdW  Elec       q    Type
REMARK                         _______ _______ _______ _____ _____    ______ ____
ROOT
ATOM     10  C   UNL     1      19.086  17.797  50.315  0.00  0.00    +0.038 A 
ATOM     11  C   UNL     1      18.211  16.683  50.385  0.00  0.00    +0.047 A 
ATOM     12  C   UNL     1      18.085  15.754  49.273  0.00  0.00    +0.035 A 
ATOM     32  C   UNL     1      18.868  15.989  48.105  0.00  0.00    +0.024 A 
ATOM     33  C   UNL     1      19.761  17.117  48.016  0.00  0.00    +0.007 A 
ATOM     34  C   UNL     1      19.887  18.038  49.109  0.00  0.00    -0.029 A 
ATOM     35  C   UNL     1      20.856  19.234  48.957  0.00  0.00    +0.045 C 
ENDROOT
BRANCH  10   9
ATOM      4  C   UNL     1      17.478  21.489  52.928  0.00  0.00    +0.077 A 
ATOM      5  C   UNL     1      16.401  21.742  52.015  0.00  0.00    +0.048 A 
ATOM      6  C   UNL     1      16.300  20.905  50.882  0.00  0.00    +0.116 A 
ATOM      7  N   UNL     1      17.214  19.892  50.687  0.00  0.00    -0.223 NA
ATOM      8  C   UNL     1      18.242  19.675  51.585  0.00  0.00    +0.220 A 
ATOM      9  N   UNL     1      19.167  18.657  51.413  0.00  0.00    -0.283 N 
ATOM     36  H   UNL     1      19.915  18.535  52.095  0.00  0.00    +0.155 HD
ATOM     37  N   UNL     1      18.361  20.462  52.675  0.00  0.00    -0.214 NA
BRANCH   4   3
ATOM      1  C   UNL     1      17.979  22.503  56.673  0.00  0.00    +0.020 A 
ATOM      2  C   UNL     1      17.745  21.689  55.502  0.00  0.00    +0.013 A 
ATOM      3  C   UNL     1      17.716  22.286  54.173  0.00  0.00    +0.019 A 
ATOM     38  C   UNL     1      17.930  23.721  54.061  0.00  0.00    +0.120 A 
ATOM     39  N   UNL     1      18.152  24.480  55.206  0.00  0.00    -0.263 NA
ATOM     40  C   UNL     1      18.180  23.917  56.491  0.00  0.00    +0.111 A 
ENDBRANCH   4   3
ENDBRANCH  10   9
BRANCH  12  13
ATOM     13  N   UNL     1      17.208  14.609  49.284  0.00  0.00    -0.281 N 
ATOM     14  C   UNL     1      16.295  14.228  48.315  0.00  0.00    +0.248 C 
ATOM     30  O   UNL     1      15.939  14.934  47.383  0.00  0.00    -0.270 OA
ATOM     31  H   UNL     1      17.268  14.008  50.105  0.00  0.00    +0.155 HD
BRANCH  14  15
ATOM     15  C   UNL     1      15.676  12.870  48.401  0.00  0.00    +0.037 A 
ATOM     16  C   UNL     1      16.448  11.710  48.852  0.00  0.00    +0.013 A 
ATOM     17  C   UNL     1      15.831  10.408  48.910  0.00  0.00    +0.005 A 
ATOM     18  C   UNL     1      14.432  10.261  48.516  0.00  0.00    -0.033 A 
ATOM     28  C   UNL     1      13.688  11.429  48.077  0.00  0.00    +0.005 A 
ATOM     29  C   UNL     1      14.289  12.707  48.018  0.00  0.00    +0.013 A 
BRANCH  18  19
ATOM     19  C   UNL     1      13.699   8.906  48.526  0.00  0.00    +0.119 C 
BRANCH  19  20
ATOM     20  N   UNL     1      12.306   8.887  49.063  0.00  0.00    -0.302 NA
ATOM     21  C   UNL     1      12.259   8.425  50.522  0.00  0.00    +0.066 C 
ATOM     22  C   UNL     1      10.796   8.432  51.074  0.00  0.00    -0.064 C 
ATOM     23  N   UNL     1       9.917   7.541  50.195  0.00  0.00    +0.379 N 
ATOM     24  C   UNL     1       8.555   7.499  50.746  0.00  0.00    -0.096 C 
ATOM     25  H   UNL     1      10.332   6.507  50.241  0.00  0.00    -0.082 HD
ATOM     26  C   UNL     1       9.960   7.991  48.742  0.00  0.00    -0.064 C 
ATOM     27  C   UNL     1      11.421   8.009  48.212  0.00  0.00    +0.066 C 
ENDBRANCH  19  20
ENDBRANCH  18  19
ENDBRANCH  14  15
ENDBRANCH  12  13
TORSDOF 6
ENDMDL
MODEL 3
REMARK VINA RESULT:      -7.3     24.592     25.807
REMARK  Name = C:\Users\Docking\Desktop\test protocol\1iep_ligandH.pdb
REMARK  8 active torsions:
REMARK  status: ('A' for Active; 'I' for Inactive)
REMARK    1  A    between atoms: _5  and  _11
REMARK    2  A    between atoms: _19  and  _21
REMARK    3  A    between atoms: _22  and  _66
REMARK    4  A    between atoms: _27  and  _30
REMARK    5  A    between atoms: _32  and  _33
REMARK    6  A    between atoms: _38  and  _43
REMARK    7  A    between atoms: _43  and  _46
REMARK    8  A    between atoms: _53  and  _55
REMARK                            x       y       z     vdW  Elec       q    Type
REMARK                         _______ _______ _______ _____ _____    ______ ____
ROOT
ATOM     10  C   UNL     1      -7.354  15.290  60.638  0.00  0.00    +0.038 A 
ATOM     11  C   UNL     1      -8.576  14.607  60.861  0.00  0.00    +0.047 A 
ATOM     12  C   UNL     1      -9.591  15.151  61.750  0.00  0.00    +0.035 A 
ATOM     32  C   UNL     1      -9.329  16.396  62.393  0.00  0.00    +0.024 A 
ATOM     33  C   UNL     1      -8.091  17.103  62.179  0.00  0.00    +0.007 A 
ATOM     34  C   UNL     1      -7.085  16.570  61.305  0.00  0.00    -0.029 A 
ATOM     35  C   UNL     1      -5.774  17.369  61.117  0.00  0.00    +0.045 C 
ENDROOT
BRANCH  10   9
ATOM      4  C   UNL     1      -5.490  14.608  56.268  0.00  0.00    +0.077 A 
ATOM      5  C   UNL     1      -6.488  15.432  55.649  0.00  0.00    +0.048 A 
ATOM      6  C   UNL     1      -7.467  16.007  56.490  0.00  0.00    +0.116 A 
ATOM      7  N   UNL     1      -7.440  15.769  57.847  0.00  0.00    -0.223 NA
ATOM      8  C   UNL     1      -6.465  14.968  58.412  0.00  0.00    +0.220 A 
ATOM      9  N   UNL     1      -6.414  14.722  59.775  0.00  0.00    -0.283 N 
ATOM     36  H   UNL     1      -5.683  14.119  60.152  0.00  0.00    +0.155 HD
ATOM     37  N   UNL     1      -5.519  14.406  57.630  0.00  0.00    -0.214 NA
BRANCH   4   3
ATOM      1  C   UNL     1      -3.393  11.962  54.292  0.00  0.00    +0.020 A 
ATOM      2  C   UNL     1      -4.487  12.567  55.015  0.00  0.00    +0.013 A 
ATOM      3  C   UNL     1      -4.386  13.933  55.514  0.00  0.00    +0.019 A 
ATOM     38  C   UNL     1      -3.154  14.665  55.262  0.00  0.00    +0.120 A 
ATOM     39  N   UNL     1      -2.116  14.056  54.564  0.00  0.00    -0.263 NA
ATOM     40  C   UNL     1      -2.202  12.742  54.080  0.00  0.00    +0.111 A 
ENDBRANCH   4   3
ENDBRANCH  10   9
BRANCH  12  13
ATOM     13  N   UNL     1     -10.848  14.498  62.021  0.00  0.00    -0.281 N 
ATOM     14  C   UNL     1     -11.360  13.356  61.428  0.00  0.00    +0.248 C 
ATOM     30  O   UNL     1     -10.907  12.841  60.416  0.00  0.00    -0.270 OA
ATOM     31  H   UNL     1     -11.431  14.931  62.738  0.00  0.00    +0.155 HD
BRANCH  14  15
ATOM     15  C   UNL     1     -12.557  12.700  62.037  0.00  0.00    +0.037 A 
ATOM     16  C   UNL     1     -13.668  13.492  62.571  0.00  0.00    +0.013 A 
ATOM     17  C   UNL     1     -14.803  12.834  63.169  0.00  0.00    +0.005 A 
ATOM     18  C   UNL     1     -14.832  11.375  63.235  0.00  0.00    -0.033 A 
ATOM     28  C   UNL     1     -13.718  10.614  62.693  0.00  0.00    +0.005 A 
ATOM     29  C   UNL     1     -12.604  11.255  62.107  0.00  0.00    +0.013 A 
BRANCH  18  19
ATOM     19  C   UNL     1     -15.993  10.590  63.875  0.00  0.00    +0.119 C 
BRANCH  19  20
ATOM     20  N   UNL     1     -15.872  10.251  65.324  0.00  0.00    -0.302 NA
ATOM     21  C   UNL     1     -16.533   8.911  65.658  0.00  0.00    +0.066 C 
ATOM     22  C   UNL     1     -16.378   8.562  67.174  0.00  0.00    -0.064 C 
ATOM     23  N   UNL     1     -16.980   9.687  68.018  0.00  0.00    +0.379 N 
ATOM     24  C   UNL     1     -16.888   9.335  69.442  0.00  0.00    -0.096 C 
ATOM     25  H   UNL     1     -18.061   9.764  67.757  0.00  0.00    -0.082 HD
ATOM     26  C   UNL     1     -16.330  11.024  67.690  0.00  0.00    -0.064 C 
ATOM     27  C   UNL     1     -16.464  11.348  66.176  0.00  0.00    +0.066 C 
ENDBRANCH  19  20
ENDBRANCH  18  19
ENDBRANCH  14  15
ENDBRANCH  12  13
TORSDOF 6
ENDMDL
MODEL 4
REMARK VINA RESULT:      -7.2     42.055     46.566
REMARK  Name = C:\Users\Docking\Desktop\test protocol\1iep_ligandH.pdb
REMARK  8 active torsions:
REMARK  status: ('A' for Active; 'I' for Inactive)
REMARK    1  A    between atoms: _5  and  _11
REMARK    2  A    between atoms: _19  and  _21
REMARK    3  A    between atoms: _22  and  _66
REMARK    4  A    between atoms: _27  and  _30
REMARK    5  A    between atoms: _32  and  _33
REMARK    6  A    between atoms: _38  and  _43
REMARK    7  A    between atoms: _43  and  _46
REMARK    8  A    between atoms: _53  and  _55
REMARK                            x       y       z     vdW  Elec       q    Type
REMARK                         _______ _______ _______ _____ _____    ______ ____
ROOT
ATOM     10  C   UNL     1      14.354  10.774  48.121  0.00  0.00    +0.038 A 
ATOM     11  C   UNL     1      15.020  11.957  48.530  0.00  0.00    +0.047 A 
ATOM     12  C   UNL     1      16.085  12.538  47.726  0.00  0.00    +0.035 A 
ATOM     32  C   UNL     1      16.443  11.889  46.509  0.00  0.00    +0.024 A 
ATOM     33  C   UNL     1      15.776  10.685  46.078  0.00  0.00    +0.007 A 
ATOM     34  C   UNL     1      14.727  10.106  46.868  0.00  0.00    -0.029 A 
ATOM     35  C   UNL     1      14.052   8.811  46.361  0.00  0.00    +0.045 C 
ENDROOT
BRANCH  10   9
ATOM      4  C   UNL     1       9.759  10.483  49.478  0.00  0.00    +0.077 A 
ATOM      5  C   UNL     1       9.349  11.458  48.508  0.00  0.00    +0.048 A 
ATOM      6  C   UNL     1      10.353  12.015  47.685  0.00  0.00    +0.116 A 
ATOM      7  N   UNL     1      11.665  11.620  47.828  0.00  0.00    -0.223 NA
ATOM      8  C   UNL     1      12.027  10.678  48.775  0.00  0.00    +0.220 A 
ATOM      9  N   UNL     1      13.339  10.260  48.931  0.00  0.00    -0.283 N 
ATOM     36  H   UNL     1      13.566   9.569  49.646  0.00  0.00    +0.155 HD
ATOM     37  N   UNL     1      11.087  10.132  49.575  0.00  0.00    -0.214 NA
BRANCH   4   3
ATOM      1  C   UNL     1       8.103   7.847  51.847  0.00  0.00    +0.020 A 
ATOM      2  C   UNL     1       9.046   8.460  50.940  0.00  0.00    +0.013 A 
ATOM      3  C   UNL     1       8.815   9.802  50.419  0.00  0.00    +0.019 A 
ATOM     38  C   UNL     1       7.611  10.502  50.840  0.00  0.00    +0.120 A 
ATOM     39  N   UNL     1       6.720   9.886  51.713  0.00  0.00    -0.263 NA
ATOM     40  C   UNL     1       6.931   8.594  52.219  0.00  0.00    +0.111 A 
ENDBRANCH   4   3
ENDBRANCH  10   9
BRANCH  12  13
ATOM     13  N   UNL     1      16.803  13.732  48.095  0.00  0.00    -0.281 N 
ATOM     14  C   UNL     1      16.341  15.038  48.094  0.00  0.00    +0.248 C 
ATOM     30  O   UNL     1      15.299  15.403  47.569  0.00  0.00    -0.270 OA
ATOM     31  H   UNL     1      17.769  13.599  48.393  0.00  0.00    +0.155 HD
BRANCH  14  15
ATOM     15  C   UNL     1      17.161  16.095  48.761  0.00  0.00    +0.037 A 
ATOM     16  C   UNL     1      17.828  15.845  50.041  0.00  0.00    +0.013 A 
ATOM     17  C   UNL     1      18.600  16.887  50.671  0.00  0.00    +0.005 A 
ATOM     18  C   UNL     1      18.710  18.190  50.019  0.00  0.00    -0.033 A 
ATOM     28  C   UNL     1      18.042  18.409  48.746  0.00  0.00    +0.005 A 
ATOM     29  C   UNL     1      17.284  17.390  48.127  0.00  0.00    +0.013 A 
BRANCH  18  19
ATOM     19  C   UNL     1      19.494  19.367  50.628  0.00  0.00    +0.119 C 
BRANCH  19  20
ATOM     20  N   UNL     1      18.925  20.008  51.851  0.00  0.00    -0.302 NA
ATOM     21  C   UNL     1      17.571  20.668  51.576  0.00  0.00    +0.066 C 
ATOM     22  C   UNL     1      16.979  21.314  52.871  0.00  0.00    -0.064 C 
ATOM     23  N   UNL     1      17.975  22.333  53.429  0.00  0.00    +0.379 N 
ATOM     24  C   UNL     1      17.397  22.984  54.614  0.00  0.00    -0.096 C 
ATOM     25  H   UNL     1      18.127  23.117  52.652  0.00  0.00    -0.082 HD
ATOM     26  C   UNL     1      19.325  21.685  53.703  0.00  0.00    -0.064 C 
ATOM     27  C   UNL     1      19.890  21.021  52.417  0.00  0.00    +0.066 C 
ENDBRANCH  19  20
ENDBRANCH  18  19
ENDBRANCH  14  15
ENDBRANCH  12  13
TORSDOF 6
ENDMDL
MODEL 5
REMARK VINA RESULT:      -7.2     29.401     31.122
REMARK  Name = C:\Users\Docking\Desktop\test protocol\1iep_ligandH.pdb
REMARK  8 active torsions:
REMARK  status: ('A' for Active; 'I' for Inactive)
REMARK    1  A    between atoms: _5  and  _11
REMARK    2  A    between atoms: _19  and  _21
REMARK    3  A    between atoms: _22  and  _66
REMARK    4  A    between atoms: _27  and  _30
REMARK    5  A    between atoms: _32  and  _33
REMARK    6  A    between atoms: _38  and  _43
REMARK    7  A    between atoms: _43  and  _46
REMARK    8  A    between atoms: _53  and  _55
REMARK                            x       y       z     vdW  Elec       q    Type
REMARK                         _______ _______ _______ _____ _____    ______ ____
ROOT
ATOM     10  C   UNL     1      -2.027  10.769  50.315  0.00  0.00    +0.038 A 
ATOM     11  C   UNL     1      -2.163  11.343  51.605  0.00  0.00    +0.047 A 
ATOM     12  C   UNL     1      -3.461  11.763  52.108  0.00  0.00    +0.035 A 
ATOM     32  C   UNL     1      -4.601  11.582  51.271  0.00  0.00    +0.024 A 
ATOM     33  C   UNL     1      -4.480  11.002  49.957  0.00  0.00    +0.007 A 
ATOM     34  C   UNL     1      -3.202  10.588  49.454  0.00  0.00    -0.029 A 
ATOM     35  C   UNL     1      -3.131   9.978  48.035  0.00  0.00    +0.045 C 
ENDROOT
BRANCH  10   9
ATOM      4  C   UNL     1       1.470   7.519  49.820  0.00  0.00    +0.077 A 
ATOM      5  C   UNL     1       0.711   6.512  50.504  0.00  0.00    +0.048 A 
ATOM      6  C   UNL     1      -0.571   6.873  50.974  0.00  0.00    +0.116 A 
ATOM      7  N   UNL     1      -1.050   8.149  50.769  0.00  0.00    -0.223 NA
ATOM      8  C   UNL     1      -0.291   9.097  50.107  0.00  0.00    +0.220 A 
ATOM      9  N   UNL     1      -0.756  10.384  49.883  0.00  0.00    -0.283 N 
ATOM     36  H   UNL     1      -0.163  11.056  49.396  0.00  0.00    +0.155 HD
ATOM     37  N   UNL     1       0.937   8.777  49.649  0.00  0.00    -0.214 NA
BRANCH   4   3
ATOM      1  C   UNL     1       5.342   7.610  49.274  0.00  0.00    +0.020 A 
ATOM      2  C   UNL     1       4.042   7.863  49.852  0.00  0.00    +0.013 A 
ATOM      3  C   UNL     1       2.840   7.289  49.261  0.00  0.00    +0.019 A 
ATOM     38  C   UNL     1       2.988   6.457  48.077  0.00  0.00    +0.120 A 
ATOM     39  N   UNL     1       4.253   6.232  47.542  0.00  0.00    -0.263 NA
ATOM     40  C   UNL     1       5.417   6.780  48.101  0.00  0.00    +0.111 A 
ENDBRANCH   4   3
ENDBRANCH  10   9
BRANCH  12  13
ATOM     13  N   UNL     1      -3.660  12.359  53.406  0.00  0.00    -0.281 N 
ATOM     14  C   UNL     1      -3.197  13.582  53.862  0.00  0.00    +0.248 C 
ATOM     30  O   UNL     1      -2.355  14.259  53.290  0.00  0.00    -0.270 OA
ATOM     31  H   UNL     1      -4.209  11.812  54.070  0.00  0.00    +0.155 HD
BRANCH  14  15
ATOM     15  C   UNL     1      -3.734  14.125  55.147  0.00  0.00    +0.037 A 
ATOM     16  C   UNL     1      -3.180  15.340  55.749  0.00  0.00    +0.013 A 
ATOM     17  C   UNL     1      -3.706  15.833  56.998  0.00  0.00    +0.005 A 
ATOM     18  C   UNL     1      -4.795  15.110  57.651  0.00  0.00    -0.033 A 
ATOM     28  C   UNL     1      -5.329  13.910  57.029  0.00  0.00    +0.005 A 
ATOM     29  C   UNL     1      -4.815  13.424  55.806  0.00  0.00    +0.013 A 
BRANCH  18  19
ATOM     19  C   UNL     1      -5.403  15.552  58.995  0.00  0.00    +0.119 C 
BRANCH  19  20
ATOM     20  N   UNL     1      -4.797  16.742  59.662  0.00  0.00    -0.302 NA
ATOM     21  C   UNL     1      -3.615  16.359  60.558  0.00  0.00    +0.066 C 
ATOM     22  C   UNL     1      -2.979  17.619  61.230  0.00  0.00    -0.064 C 
ATOM     23  N   UNL     1      -4.049  18.361  62.033  0.00  0.00    +0.379 N 
ATOM     24  C   UNL     1      -3.440  19.514  62.713  0.00  0.00    -0.096 C 
ATOM     25  H   UNL     1      -4.426  17.665  62.818  0.00  0.00    -0.082 HD
ATOM     26  C   UNL     1      -5.228  18.743  61.150  0.00  0.00    -0.064 C 
ATOM     27  C   UNL     1      -5.835  17.488  60.464  0.00  0.00    +0.066 C 
ENDBRANCH  19  20
ENDBRANCH  18  19
ENDBRANCH  14  15
ENDBRANCH  12  13
TORSDOF 6
ENDMDL
