MODEL 1
REMARK VINA RESULT:      -7.5      0.000      0.000
REMARK  Name = C:\Users\Docking\Desktop\test protocol\1iep_ligandH.pdb
REMARK  8 active torsions:
REMARK  status: ('A' for Active; 'I' for Inactive)
REMARK    1  A    between atoms: _5  and  _11
REMARK    2  A    between atoms: _19  and  _21
REMARK    3  A    between atoms: _22  and  _66
REMARK    4  A    between atoms: _27  and  _30
REMARK    5  A    between atoms: _32  and  _33
REMARK    6  A    between atoms: _38  and  _43
REMARK    7  A    between atoms: _43  and  _46
REMARK    8  A    between atoms: _53  and  _55
REMARK                            x       y       z     vdW  Elec       q    Type
REMARK                         _______ _______ _______ _____ _____    ______ ____
ROOT
ATOM     10  C   UNL     1      17.932  19.434  49.497  0.00  0.00    +0.038 A 
ATOM     11  C   UNL     1      17.326  18.157  49.376  0.00  0.00    +0.047 A 
ATOM     12  C   UNL     1      17.022  17.589  48.072  0.00  0.00    +0.035 A 
ATOM     32  C   UNL     1      17.351  18.348  46.911  0.00  0.00    +0.024 A 
ATOM     33  C   UNL     1      17.966  19.648  47.016  0.00  0.00    +0.007 A 
ATOM     34  C   UNL     1      18.267  20.214  48.300  0.00  0.00    -0.029 A 
ATOM     35  C   UNL     1      18.921  21.615  48.353  0.00  0.00    +0.045 C 
ENDROOT
BRANCH  10   9
ATOM      4  C   UNL     1      16.643  21.751  53.498  0.00  0.00    +0.077 A 
ATOM      5  C   UNL     1      15.328  22.017  52.990  0.00  0.00    +0.048 A 
ATOM      6  C   UNL     1      15.025  21.547  51.693  0.00  0.00    +0.116 A 
ATOM      7  N   UNL     1      15.975  20.863  50.966  0.00  0.00    -0.223 NA
ATOM      8  C   UNL     1      17.235  20.624  51.484  0.00  0.00    +0.220 A 
ATOM      9  N   UNL     1      18.203  19.931  50.774  0.00  0.00    -0.283 N 
ATOM     36  H   UNL     1      19.122  19.782  51.189  0.00  0.00    +0.155 HD
ATOM     37  N   UNL     1      17.548  21.064  52.721  0.00  0.00    -0.214 NA
BRANCH   4   3
ATOM      1  C   UNL     1      17.903  23.922  56.498  0.00  0.00    +0.020 A 
ATOM      2  C   UNL     1      17.455  23.560  55.173  0.00  0.00    +0.013 A 
ATOM      3  C   UNL     1      17.111  22.180  54.854  0.00  0.00    +0.019 A 
ATOM     38  C   UNL     1      17.231  21.183  55.907  0.00  0.00    +0.120 A 
ATOM     39  N   UNL     1      17.666  21.561  57.173  0.00  0.00    -0.263 NA
ATOM     40  C   UNL     1      18.001  22.885  57.491  0.00  0.00    +0.111 A 
ENDBRANCH   4   3
ENDBRANCH  10   9
BRANCH  12  13
ATOM     13  N   UNL     1      16.400  16.302  47.887  0.00  0.00    -0.281 N 
ATOM     14  C   UNL     1      16.922  15.053  48.183  0.00  0.00    +0.248 C 
ATOM     30  O   UNL     1      18.095  14.841  48.454  0.00  0.00    -0.270 OA
ATOM     31  H   UNL     1      15.460  16.312  47.491  0.00  0.00    +0.155 HD
BRANCH  14  15
ATOM     15  C   UNL     1      16.014  13.866  48.159  0.00  0.00    +0.037 A 
ATOM     16  C   UNL     1      14.637  13.973  47.672  0.00  0.00    +0.013 A 
ATOM     17  C   UNL     1      13.776  12.817  47.676  0.00  0.00    +0.005 A 
ATOM     18  C   UNL     1      14.293  11.542  48.168  0.00  0.00    -0.033 A 
ATOM     28  C   UNL     1      15.665  11.463  48.641  0.00  0.00    +0.005 A 
ATOM     29  C   UNL     1      16.511  12.595  48.639  0.00  0.00    +0.013 A 
BRANCH  18  19
ATOM     19  C   UNL     1      13.439  10.261  48.228  0.00  0.00    +0.119 C 
BRANCH  19  20
ATOM     20  N   UNL     1      12.157  10.329  48.990  0.00  0.00    -0.302 NA
ATOM     21  C   UNL     1      11.955   9.104  49.886  0.00  0.00    +0.066 C 
ATOM     22  C   UNL     1      10.620   9.203  50.693  0.00  0.00    -0.064 C 
ATOM     23  N   UNL     1       9.450   9.360  49.721  0.00  0.00    +0.379 N 
ATOM     24  C   UNL     1       8.187   9.395  50.473  0.00  0.00    -0.096 C 
ATOM     25  H   UNL     1       9.430   8.458  49.067  0.00  0.00    -0.082 HD
ATOM     26  C   UNL     1       9.644  10.575  48.824  0.00  0.00    -0.064 C 
ATOM     27  C   UNL     1      10.988  10.481  48.049  0.00  0.00    +0.066 C 
ENDBRANCH  19  20
ENDBRANCH  18  19
ENDBRANCH  14  15
ENDBRANCH  12  13
TORSDOF 6
ENDMDL
MODEL 2
REMARK VINA RESULT:      -7.3     44.184     47.690
REMARK  Name = C:\Users\Docking\Desktop\test protocol\1iep_ligandH.pdb
REMARK  8 active torsions:
REMARK  status: ('A' for Active; 'I' for Inactive)
REMARK    1  A    between atoms: _5  and  _11
REMARK    2  A    between atoms: _19  and  _21
REMARK    3  A    between atoms: _22  and  _66
REMARK    4  A    between atoms: _27  and  _30
REMARK    5  A    between atoms: _32  and  _33
REMARK    6  A    between atoms: _38  and  _43
REMARK    7  A    between atoms: _43  and  _46
REMARK    8  A    between atoms: _53  and  _55
REMARK                            x       y       z     vdW  Elec       q    Type
REMARK                         _______ _______ _______ _____ _____    ______ ____
ROOT
ATOM     10  C   UNL     1     -26.524  -6.930  61.914  0.00  0.00    +0.038 A 
ATOM     11  C   UNL     1     -25.857  -6.984  60.663  0.00  0.00    +0.047 A 
ATOM     12  C   UNL     1     -26.316  -6.194  59.531  0.00  0.00    +0.035 A 
ATOM     32  C   UNL     1     -27.456  -5.358  59.709  0.00  0.00    +0.024 A 
ATOM     33  C   UNL     1     -28.147  -5.291  60.973  0.00  0.00    +0.007 A 
ATOM     34  C   UNL     1     -27.700  -6.070  62.092  0.00  0.00    -0.029 A 
ATOM     35  C   UNL     1     -28.482  -5.964  63.422  0.00  0.00    +0.045 C 
ENDROOT
BRANCH  10   9
ATOM      4  C   UNL     1     -23.670  -7.609  65.713  0.00  0.00    +0.077 A 
ATOM      5  C   UNL     1     -23.073  -6.313  65.571  0.00  0.00    +0.048 A 
ATOM      6  C   UNL     1     -23.524  -5.504  64.503  0.00  0.00    +0.116 A 
ATOM      7  N   UNL     1     -24.499  -5.968  63.647  0.00  0.00    -0.223 NA
ATOM      8  C   UNL     1     -25.052  -7.225  63.811  0.00  0.00    +0.220 A 
ATOM      9  N   UNL     1     -26.040  -7.709  62.967  0.00  0.00    -0.283 N 
ATOM     36  H   UNL     1     -26.418  -8.644  63.117  0.00  0.00    +0.155 HD
ATOM     37  N   UNL     1     -24.638  -8.016  64.823  0.00  0.00    -0.214 NA
BRANCH   4   3
ATOM      1  C   UNL     1     -22.343 -10.766  67.603  0.00  0.00    +0.020 A 
ATOM      2  C   UNL     1     -22.678  -9.867  66.523  0.00  0.00    +0.013 A 
ATOM      3  C   UNL     1     -23.303  -8.578  66.794  0.00  0.00    +0.019 A 
ATOM     38  C   UNL     1     -23.576  -8.226  68.179  0.00  0.00    +0.120 A 
ATOM     39  N   UNL     1     -23.243  -9.112  69.198  0.00  0.00    -0.263 NA
ATOM     40  C   UNL     1     -22.643 -10.356  68.950  0.00  0.00    +0.111 A 
ENDBRANCH   4   3
ENDBRANCH  10   9
BRANCH  12  13
ATOM     13  N   UNL     1     -25.684  -6.215  58.235  0.00  0.00    -0.281 N 
ATOM     14  C   UNL     1     -24.468  -5.660  57.872  0.00  0.00    +0.248 C 
ATOM     30  O   UNL     1     -23.834  -4.873  58.559  0.00  0.00    -0.270 OA
ATOM     31  H   UNL     1     -26.196  -6.697  57.496  0.00  0.00    +0.155 HD
BRANCH  14  15
ATOM     15  C   UNL     1     -23.877  -6.020  56.547  0.00  0.00    +0.037 A 
ATOM     16  C   UNL     1     -23.267  -5.004  55.686  0.00  0.00    +0.013 A 
ATOM     17  C   UNL     1     -22.719  -5.376  54.405  0.00  0.00    +0.005 A 
ATOM     18  C   UNL     1     -22.779  -6.772  53.978  0.00  0.00    -0.033 A 
ATOM     28  C   UNL     1     -23.386  -7.760  54.855  0.00  0.00    +0.005 A 
ATOM     29  C   UNL     1     -23.924  -7.399  56.110  0.00  0.00    +0.013 A 
BRANCH  18  19
ATOM     19  C   UNL     1     -22.239  -7.255  52.619  0.00  0.00    +0.119 C 
BRANCH  19  20
ATOM     20  N   UNL     1     -21.418  -8.502  52.614  0.00  0.00    -0.302 NA
ATOM     21  C   UNL     1     -20.074  -8.308  53.321  0.00  0.00    +0.066 C 
ATOM     22  C   UNL     1     -19.237  -9.628  53.326  0.00  0.00    -0.064 C 
ATOM     23  N   UNL     1     -19.028 -10.102  51.887  0.00  0.00    +0.379 N 
ATOM     24  C   UNL     1     -18.192 -11.311  51.885  0.00  0.00    -0.096 C 
ATOM     25  H   UNL     1     -18.468  -9.303  51.347  0.00  0.00    -0.082 HD
ATOM     26  C   UNL     1     -20.359 -10.295  51.175  0.00  0.00    -0.064 C 
ATOM     27  C   UNL     1     -21.195  -8.985  51.202  0.00  0.00    +0.066 C 
ENDBRANCH  19  20
ENDBRANCH  18  19
ENDBRANCH  14  15
ENDBRANCH  12  13
TORSDOF 6
ENDMDL
MODEL 3
REMARK VINA RESULT:      -7.3     34.525     40.607
REMARK  Name = C:\Users\Docking\Desktop\test protocol\1iep_ligandH.pdb
REMARK  8 active torsions:
REMARK  status: ('A' for Active; 'I' for Inactive)
REMARK    1  A    between atoms: _5  and  _11
REMARK    2  A    between atoms: _19  and  _21
REMARK    3  A    between atoms: _22  and  _66
REMARK    4  A    between atoms: _27  and  _30
REMARK    5  A    between atoms: _32  and  _33
REMARK    6  A    between atoms: _38  and  _43
REMARK    7  A    between atoms: _43  and  _46
REMARK    8  A    between atoms: _53  and  _55
REMARK                            x       y       z     vdW  Elec       q    Type
REMARK                         _______ _______ _______ _____ _____    ______ ____
ROOT
ATOM     10  C   UNL     1     -10.588   3.053  77.215  0.00  0.00    +0.038 A 
ATOM     11  C   UNL     1      -9.606   2.365  77.973  0.00  0.00    +0.047 A 
ATOM     12  C   UNL     1      -9.846   1.020  78.472  0.00  0.00    +0.035 A 
ATOM     32  C   UNL     1     -11.097   0.404  78.178  0.00  0.00    +0.024 A 
ATOM     33  C   UNL     1     -12.107   1.089  77.410  0.00  0.00    +0.007 A 
ATOM     34  C   UNL     1     -11.877   2.417  76.917  0.00  0.00    -0.029 A 
ATOM     35  C   UNL     1     -12.998   3.105  76.104  0.00  0.00    +0.045 C 
ENDROOT
BRANCH  10   9
ATOM      4  C   UNL     1      -8.996   6.108  73.873  0.00  0.00    +0.077 A 
ATOM      5  C   UNL     1      -8.678   5.043  72.966  0.00  0.00    +0.048 A 
ATOM      6  C   UNL     1      -8.932   3.723  73.401  0.00  0.00    +0.116 A 
ATOM      7  N   UNL     1      -9.466   3.497  74.651  0.00  0.00    -0.223 NA
ATOM      8  C   UNL     1      -9.759   4.546  75.502  0.00  0.00    +0.220 A 
ATOM      9  N   UNL     1     -10.304   4.342  76.760  0.00  0.00    -0.283 N 
ATOM     36  H   UNL     1     -10.499   5.143  77.361  0.00  0.00    +0.155 HD
ATOM     37  N   UNL     1      -9.524   5.816  75.111  0.00  0.00    -0.214 NA
BRANCH   4   3
ATOM      1  C   UNL     1      -7.480   9.457  72.535  0.00  0.00    +0.020 A 
ATOM      2  C   UNL     1      -7.633   8.047  72.814  0.00  0.00    +0.013 A 
ATOM      3  C   UNL     1      -8.787   7.557  73.557  0.00  0.00    +0.019 A 
ATOM     38  C   UNL     1      -9.775   8.526  74.007  0.00  0.00    +0.120 A 
ATOM     39  N   UNL     1      -9.600   9.877  73.725  0.00  0.00    -0.263 NA
ATOM     40  C   UNL     1      -8.493  10.361  73.012  0.00  0.00    +0.111 A 
ENDBRANCH   4   3
ENDBRANCH  10   9
BRANCH  12  13
ATOM     13  N   UNL     1      -8.890   0.276  79.253  0.00  0.00    -0.281 N 
ATOM     14  C   UNL     1      -8.857   0.112  80.628  0.00  0.00    +0.248 C 
ATOM     30  O   UNL     1      -9.527   0.761  81.418  0.00  0.00    -0.270 OA
ATOM     31  H   UNL     1      -8.147  -0.187  78.729  0.00  0.00    +0.155 HD
BRANCH  14  15
ATOM     15  C   UNL     1      -7.936  -0.911  81.212  0.00  0.00    +0.037 A 
ATOM     16  C   UNL     1      -8.158  -2.343  80.997  0.00  0.00    +0.013 A 
ATOM     17  C   UNL     1      -7.264  -3.309  81.586  0.00  0.00    +0.005 A 
ATOM     18  C   UNL     1      -6.139  -2.845  82.394  0.00  0.00    -0.033 A 
ATOM     28  C   UNL     1      -5.940  -1.418  82.587  0.00  0.00    +0.005 A 
ATOM     29  C   UNL     1      -6.814  -0.468  82.012  0.00  0.00    +0.013 A 
BRANCH  18  19
ATOM     19  C   UNL     1      -5.148  -3.806  83.078  0.00  0.00    +0.119 C 
BRANCH  19  20
ATOM     20  N   UNL     1      -5.214  -5.246  82.689  0.00  0.00    -0.302 NA
ATOM     21  C   UNL     1      -4.774  -6.169  83.829  0.00  0.00    +0.066 C 
ATOM     22  C   UNL     1      -4.871  -7.673  83.413  0.00  0.00    -0.064 C 
ATOM     23  N   UNL     1      -4.018  -7.910  82.166  0.00  0.00    +0.379 N 
ATOM     24  C   UNL     1      -4.060  -9.335  81.806  0.00  0.00    -0.096 C 
ATOM     25  H   UNL     1      -2.963  -7.657  82.424  0.00  0.00    -0.082 HD
ATOM     26  C   UNL     1      -4.446  -6.994  81.028  0.00  0.00    -0.064 C 
ATOM     27  C   UNL     1      -4.375  -5.503  81.461  0.00  0.00    +0.066 C 
ENDBRANCH  19  20
ENDBRANCH  18  19
ENDBRANCH  14  15
ENDBRANCH  12  13
TORSDOF 6
ENDMDL
MODEL 4
REMARK VINA RESULT:      -7.3      3.027     12.016
REMARK  Name = C:\Users\Docking\Desktop\test protocol\1iep_ligandH.pdb
REMARK  8 active torsions:
REMARK  status: ('A' for Active; 'I' for Inactive)
REMARK    1  A    between atoms: _5  and  _11
REMARK    2  A    between atoms: _19  and  _21
REMARK    3  A    between atoms: _22  and  _66
REMARK    4  A    between atoms: _27  and  _30
REMARK    5  A    between atoms: _32  and  _33
REMARK    6  A    between atoms: _38  and  _43
REMARK    7  A    between atoms: _43  and  _46
REMARK    8  A    between atoms: _53  and  _55
REMARK                            x       y       z     vdW  Elec       q    Type
REMARK                         _______ _______ _______ _____ _____    ______ ____
ROOT
ATOM     10  C   UNL     1      14.539   8.661  49.403  0.00  0.00    +0.038 A 
ATOM     11  C   UNL     1      15.146   9.943  49.415  0.00  0.00    +0.047 A 
ATOM     12  C   UNL     1      16.400  10.188  48.721  0.00  0.00    +0.035 A 
ATOM     32  C   UNL     1      17.008   9.104  48.022  0.00  0.00    +0.024 A 
ATOM     33  C   UNL     1      16.406   7.795  48.001  0.00  0.00    +0.007 A 
ATOM     34  C   UNL     1      15.169   7.547  48.686  0.00  0.00    -0.029 A 
ATOM     35  C   UNL     1      14.572   6.121  48.635  0.00  0.00    +0.045 C 
ENDROOT
BRANCH  10   9
ATOM      4  C   UNL     1       9.817   9.359  49.911  0.00  0.00    +0.077 A 
ATOM      5  C   UNL     1       9.750  10.171  48.730  0.00  0.00    +0.048 A 
ATOM      6  C   UNL     1      10.954  10.390  48.024  0.00  0.00    +0.116 A 
ATOM      7  N   UNL     1      12.132   9.834  48.475  0.00  0.00    -0.223 NA
ATOM      8  C   UNL     1      12.162   9.058  49.619  0.00  0.00    +0.220 A 
ATOM      9  N   UNL     1      13.334   8.483  50.087  0.00  0.00    -0.283 N 
ATOM     36  H   UNL     1      13.315   7.923  50.939  0.00  0.00    +0.155 HD
ATOM     37  N   UNL     1      11.026   8.835  50.312  0.00  0.00    -0.214 NA
BRANCH   4   3
ATOM      1  C   UNL     1       7.280   7.474  52.215  0.00  0.00    +0.020 A 
ATOM      2  C   UNL     1       8.445   7.737  51.402  0.00  0.00    +0.013 A 
ATOM      3  C   UNL     1       8.629   9.034  50.763  0.00  0.00    +0.019 A 
ATOM     38  C   UNL     1       7.609  10.051  50.968  0.00  0.00    +0.120 A 
ATOM     39  N   UNL     1       6.497   9.768  51.755  0.00  0.00    -0.263 NA
ATOM     40  C   UNL     1       6.308   8.524  52.374  0.00  0.00    +0.111 A 
ENDBRANCH   4   3
ENDBRANCH  10   9
BRANCH  12  13
ATOM     13  N   UNL     1      17.068  11.466  48.704  0.00  0.00    -0.281 N 
ATOM     14  C   UNL     1      16.716  12.601  47.991  0.00  0.00    +0.248 C 
ATOM     30  O   UNL     1      15.892  12.623  47.090  0.00  0.00    -0.270 OA
ATOM     31  H   UNL     1      17.900  11.543  49.288  0.00  0.00    +0.155 HD
BRANCH  14  15
ATOM     15  C   UNL     1      17.389  13.895  48.318  0.00  0.00    +0.037 A 
ATOM     16  C   UNL     1      17.093  14.613  49.560  0.00  0.00    +0.013 A 
ATOM     17  C   UNL     1      17.743  15.868  49.842  0.00  0.00    +0.005 A 
ATOM     18  C   UNL     1      18.697  16.413  48.880  0.00  0.00    -0.033 A 
ATOM     28  C   UNL     1      18.976  15.677  47.658  0.00  0.00    +0.005 A 
ATOM     29  C   UNL     1      18.340  14.447  47.377  0.00  0.00    +0.013 A 
BRANCH  18  19
ATOM     19  C   UNL     1      19.422  17.756  49.089  0.00  0.00    +0.119 C 
BRANCH  19  20
ATOM     20  N   UNL     1      18.572  18.972  49.258  0.00  0.00    -0.302 NA
ATOM     21  C   UNL     1      18.166  19.190  50.718  0.00  0.00    +0.066 C 
ATOM     22  C   UNL     1      17.296  20.479  50.881  0.00  0.00    -0.064 C 
ATOM     23  N   UNL     1      16.061  20.374  49.985  0.00  0.00    +0.379 N 
ATOM     24  C   UNL     1      15.211  21.558  50.179  0.00  0.00    -0.096 C 
ATOM     25  H   UNL     1      15.479  19.482  50.315  0.00  0.00    -0.082 HD
ATOM     26  C   UNL     1      16.456  20.154  48.531  0.00  0.00    -0.064 C 
ATOM     27  C   UNL     1      17.344  18.887  48.385  0.00  0.00    +0.066 C 
ENDBRANCH  19  20
ENDBRANCH  18  19
ENDBRANCH  14  15
ENDBRANCH  12  13
TORSDOF 6
ENDMDL
MODEL 5
REMARK VINA RESULT:      -7.2     18.198     20.864
REMARK  Name = C:\Users\Docking\Desktop\test protocol\1iep_ligandH.pdb
REMARK  8 active torsions:
REMARK  status: ('A' for Active; 'I' for Inactive)
REMARK    1  A    between atoms: _5  and  _11
REMARK    2  A    between atoms: _19  and  _21
REMARK    3  A    between atoms: _22  and  _66
REMARK    4  A    between atoms: _27  and  _30
REMARK    5  A    between atoms: _32  and  _33
REMARK    6  A    between atoms: _38  and  _43
REMARK    7  A    between atoms: _43  and  _46
REMARK    8  A    between atoms: _53  and  _55
REMARK                            x       y       z     vdW  Elec       q    Type
REMARK                         _______ _______ _______ _____ _____    ______ ____
ROOT
ATOM     10  C   UNL     1       6.446  29.116  60.194  0.00  0.00    +0.038 A 
ATOM     11  C   UNL     1       6.802  28.380  61.353  0.00  0.00    +0.047 A 
ATOM     12  C   UNL     1       5.786  27.859  62.255  0.00  0.00    +0.035 A 
ATOM     32  C   UNL     1       4.417  28.105  61.944  0.00  0.00    +0.024 A 
ATOM     33  C   UNL     1       4.037  28.852  60.771  0.00  0.00    +0.007 A 
ATOM     34  C   UNL     1       5.035  29.370  59.879  0.00  0.00    -0.029 A 
ATOM     35  C   UNL     1       4.571  30.170  58.639  0.00  0.00    +0.045 C 
ENDROOT
BRANCH  10   9
ATOM      4  C   UNL     1      10.192  31.984  59.306  0.00  0.00    +0.077 A 
ATOM      5  C   UNL     1      10.099  32.603  60.597  0.00  0.00    +0.048 A 
ATOM      6  C   UNL     1       9.069  32.160  61.457  0.00  0.00    +0.116 A 
ATOM      7  N   UNL     1       8.202  31.171  61.046  0.00  0.00    -0.223 NA
ATOM      8  C   UNL     1       8.318  30.595  59.794  0.00  0.00    +0.220 A 
ATOM      9  N   UNL     1       7.463  29.593  59.363  0.00  0.00    -0.283 N 
ATOM     36  H   UNL     1       7.577  29.199  58.430  0.00  0.00    +0.155 HD
ATOM     37  N   UNL     1       9.293  31.002  58.954  0.00  0.00    -0.214 NA
BRANCH   4   3
ATOM      1  C   UNL     1      13.576  32.969  57.611  0.00  0.00    +0.020 A 
ATOM      2  C   UNL     1      12.614  32.629  58.634  0.00  0.00    +0.013 A 
ATOM      3  C   UNL     1      11.228  32.341  58.287  0.00  0.00    +0.019 A 
ATOM     38  C   UNL     1      10.845  32.405  56.885  0.00  0.00    +0.120 A 
ATOM     39  N   UNL     1      11.793  32.736  55.921  0.00  0.00    -0.263 NA
ATOM     40  C   UNL     1      13.130  33.017  56.244  0.00  0.00    +0.111 A 
ENDBRANCH   4   3
ENDBRANCH  10   9
BRANCH  12  13
ATOM     13  N   UNL     1       6.087  27.112  63.451  0.00  0.00    -0.281 N 
ATOM     14  C   UNL     1       6.289  27.600  64.731  0.00  0.00    +0.248 C 
ATOM     30  O   UNL     1       6.454  28.780  65.004  0.00  0.00    -0.270 OA
ATOM     31  H   UNL     1       6.159  26.101  63.339  0.00  0.00    +0.155 HD
BRANCH  14  15
ATOM     15  C   UNL     1       6.329  26.636  65.873  0.00  0.00    +0.037 A 
ATOM     16  C   UNL     1       7.598  26.240  66.489  0.00  0.00    +0.013 A 
ATOM     17  C   UNL     1       7.610  25.296  67.578  0.00  0.00    +0.005 A 
ATOM     18  C   UNL     1       6.346  24.741  68.059  0.00  0.00    -0.033 A 
ATOM     28  C   UNL     1       5.102  25.155  67.433  0.00  0.00    +0.005 A 
ATOM     29  C   UNL     1       5.087  26.080  66.364  0.00  0.00    +0.013 A 
BRANCH  18  19
ATOM     19  C   UNL     1       6.266  23.712  69.202  0.00  0.00    +0.119 C 
BRANCH  19  20
ATOM     20  N   UNL     1       5.064  23.765  70.086  0.00  0.00    -0.302 NA
ATOM     21  C   UNL     1       5.419  23.506  71.553  0.00  0.00    +0.066 C 
ATOM     22  C   UNL     1       4.153  23.588  72.468  0.00  0.00    -0.064 C 
ATOM     23  N   UNL     1       3.108  22.584  71.978  0.00  0.00    +0.379 N 
ATOM     24  C   UNL     1       1.940  22.617  72.870  0.00  0.00    -0.096 C 
ATOM     25  H   UNL     1       3.558  21.566  72.047  0.00  0.00    -0.082 HD
ATOM     26  C   UNL     1       2.751  22.833  70.519  0.00  0.00    -0.064 C 
ATOM     27  C   UNL     1       4.020  22.778  69.623  0.00  0.00    +0.066 C 
ENDBRANCH  19  20
ENDBRANCH  18  19
ENDBRANCH  14  15
ENDBRANCH  12  13
TORSDOF 6
ENDMDL
