MODEL 1
REMARK VINA RESULT:      -7.4      0.000      0.000
REMARK  Name = C:\Users\Docking\Desktop\test protocol\1iep_ligandH.pdb
REMARK  8 active torsions:
REMARK  status: ('A' for Active; 'I' for Inactive)
REMARK    1  A    between atoms: _5  and  _11
REMARK    2  A    between atoms: _19  and  _21
REMARK    3  A    between atoms: _22  and  _66
REMARK    4  A    between atoms: _27  and  _30
REMARK    5  A    between atoms: _32  and  _33
REMARK    6  A    between atoms: _38  and  _43
REMARK    7  A    between atoms: _43  and  _46
REMARK    8  A    between atoms: _53  and  _55
REMARK                            x       y       z     vdW  Elec       q    Type
REMARK                         _______ _______ _______ _____ _____    ______ ____
ROOT
ATOM     10  C   UNL     1     -26.671  -6.644  61.965  0.00  0.00    +0.038 A 
ATOM     11  C   UNL     1     -26.019  -6.794  60.714  0.00  0.00    +0.047 A 
ATOM     12  C   UNL     1     -26.388  -5.975  59.570  0.00  0.00    +0.035 A 
ATOM     32  C   UNL     1     -27.425  -5.011  59.736  0.00  0.00    +0.024 A 
ATOM     33  C   UNL     1     -28.099  -4.846  61.000  0.00  0.00    +0.007 A 
ATOM     34  C   UNL     1     -27.741  -5.653  62.131  0.00  0.00    -0.029 A 
ATOM     35  C   UNL     1     -28.502  -5.438  63.460  0.00  0.00    +0.045 C 
ENDROOT
BRANCH  10   9
ATOM      4  C   UNL     1     -23.884  -7.599  65.754  0.00  0.00    +0.077 A 
ATOM      5  C   UNL     1     -23.133  -6.389  65.581  0.00  0.00    +0.048 A 
ATOM      6  C   UNL     1     -23.491  -5.552  64.500  0.00  0.00    +0.116 A 
ATOM      7  N   UNL     1     -24.525  -5.908  63.662  0.00  0.00    -0.223 NA
ATOM      8  C   UNL     1     -25.228  -7.083  63.856  0.00  0.00    +0.220 A 
ATOM      9  N   UNL     1     -26.276  -7.457  63.030  0.00  0.00    -0.283 N 
ATOM     36  H   UNL     1     -26.765  -8.335  63.201  0.00  0.00    +0.155 HD
ATOM     37  N   UNL     1     -24.904  -7.900  64.879  0.00  0.00    -0.214 NA
BRANCH   4   3
ATOM      1  C   UNL     1     -22.222 -10.339  67.997  0.00  0.00    +0.020 A 
ATOM      2  C   UNL     1     -22.421  -9.401  66.916  0.00  0.00    +0.013 A 
ATOM      3  C   UNL     1     -23.627  -8.585  66.851  0.00  0.00    +0.019 A 
ATOM     38  C   UNL     1     -24.619  -8.742  67.904  0.00  0.00    +0.120 A 
ATOM     39  N   UNL     1     -24.401  -9.654  68.932  0.00  0.00    -0.263 NA
ATOM     40  C   UNL     1     -23.245 -10.446  69.004  0.00  0.00    +0.111 A 
ENDBRANCH   4   3
ENDBRANCH  10   9
BRANCH  12  13
ATOM     13  N   UNL     1     -25.767  -6.087  58.274  0.00  0.00    -0.281 N 
ATOM     14  C   UNL     1     -24.606  -5.474  57.830  0.00  0.00    +0.248 C 
ATOM     30  O   UNL     1     -24.039  -4.563  58.414  0.00  0.00    -0.270 OA
ATOM     31  H   UNL     1     -26.240  -6.692  57.602  0.00  0.00    +0.155 HD
BRANCH  14  15
ATOM     15  C   UNL     1     -23.996  -5.930  56.543  0.00  0.00    +0.037 A 
ATOM     16  C   UNL     1     -24.065  -7.332  56.124  0.00  0.00    +0.013 A 
ATOM     17  C   UNL     1     -23.453  -7.748  54.887  0.00  0.00    +0.005 A 
ATOM     18  C   UNL     1     -22.768  -6.758  54.059  0.00  0.00    -0.033 A 
ATOM     28  C   UNL     1     -22.720  -5.373  54.496  0.00  0.00    +0.005 A 
ATOM     29  C   UNL     1     -23.317  -4.962  55.708  0.00  0.00    +0.013 A 
BRANCH  18  19
ATOM     19  C   UNL     1     -22.069  -7.117  52.734  0.00  0.00    +0.119 C 
BRANCH  19  20
ATOM     20  N   UNL     1     -21.307  -8.400  52.688  0.00  0.00    -0.302 NA
ATOM     21  C   UNL     1     -19.968  -8.300  53.424  0.00  0.00    +0.066 C 
ATOM     22  C   UNL     1     -19.195  -9.658  53.386  0.00  0.00    -0.064 C 
ATOM     23  N   UNL     1     -18.982 -10.079  51.931  0.00  0.00    +0.379 N 
ATOM     24  C   UNL     1     -18.204 -11.326  51.890  0.00  0.00    -0.096 C 
ATOM     25  H   UNL     1     -18.377  -9.286  51.434  0.00  0.00    -0.082 HD
ATOM     26  C   UNL     1     -20.308 -10.179  51.190  0.00  0.00    -0.064 C 
ATOM     27  C   UNL     1     -21.083  -8.833  51.260  0.00  0.00    +0.066 C 
ENDBRANCH  19  20
ENDBRANCH  18  19
ENDBRANCH  14  15
ENDBRANCH  12  13
TORSDOF 6
ENDMDL
MODEL 2
REMARK VINA RESULT:      -7.2     45.790     48.606
REMARK  Name = C:\Users\Docking\Desktop\test protocol\1iep_ligandH.pdb
REMARK  8 active torsions:
REMARK  status: ('A' for Active; 'I' for Inactive)
REMARK    1  A    between atoms: _5  and  _11
REMARK    2  A    between atoms: _19  and  _21
REMARK    3  A    between atoms: _22  and  _66
REMARK    4  A    between atoms: _27  and  _30
REMARK    5  A    between atoms: _32  and  _33
REMARK    6  A    between atoms: _38  and  _43
REMARK    7  A    between atoms: _43  and  _46
REMARK    8  A    between atoms: _53  and  _55
REMARK                            x       y       z     vdW  Elec       q    Type
REMARK                         _______ _______ _______ _____ _____    ______ ____
ROOT
ATOM     10  C   UNL     1       6.412  29.089  60.288  0.00  0.00    +0.038 A 
ATOM     11  C   UNL     1       6.762  28.346  61.445  0.00  0.00    +0.047 A 
ATOM     12  C   UNL     1       5.742  27.823  62.340  0.00  0.00    +0.035 A 
ATOM     32  C   UNL     1       4.374  28.072  62.026  0.00  0.00    +0.024 A 
ATOM     33  C   UNL     1       4.001  28.826  60.855  0.00  0.00    +0.007 A 
ATOM     34  C   UNL     1       5.002  29.347  59.970  0.00  0.00    -0.029 A 
ATOM     35  C   UNL     1       4.544  30.154  58.733  0.00  0.00    +0.045 C 
ENDROOT
BRANCH  10   9
ATOM      4  C   UNL     1      10.159  31.961  59.423  0.00  0.00    +0.077 A 
ATOM      5  C   UNL     1      10.060  32.578  60.714  0.00  0.00    +0.048 A 
ATOM      6  C   UNL     1       9.026  32.133  61.568  0.00  0.00    +0.116 A 
ATOM      7  N   UNL     1       8.162  31.143  61.152  0.00  0.00    -0.223 NA
ATOM      8  C   UNL     1       8.284  30.570  59.900  0.00  0.00    +0.220 A 
ATOM      9  N   UNL     1       7.432  29.568  59.463  0.00  0.00    -0.283 N 
ATOM     36  H   UNL     1       7.551  29.176  58.529  0.00  0.00    +0.155 HD
ATOM     37  N   UNL     1       9.262  30.979  59.065  0.00  0.00    -0.214 NA
BRANCH   4   3
ATOM      1  C   UNL     1      13.526  33.046  57.753  0.00  0.00    +0.020 A 
ATOM      2  C   UNL     1      12.558  32.708  58.771  0.00  0.00    +0.013 A 
ATOM      3  C   UNL     1      11.200  32.321  58.409  0.00  0.00    +0.019 A 
ATOM     38  C   UNL     1      10.852  32.284  56.997  0.00  0.00    +0.120 A 
ATOM     39  N   UNL     1      11.804  32.616  56.039  0.00  0.00    -0.263 NA
ATOM     40  C   UNL     1      13.113  32.992  56.375  0.00  0.00    +0.111 A 
ENDBRANCH   4   3
ENDBRANCH  10   9
BRANCH  12  13
ATOM     13  N   UNL     1       6.038  27.069  63.533  0.00  0.00    -0.281 N 
ATOM     14  C   UNL     1       6.173  27.542  64.828  0.00  0.00    +0.248 C 
ATOM     30  O   UNL     1       6.271  28.723  65.126  0.00  0.00    -0.270 OA
ATOM     31  H   UNL     1       6.163  26.064  63.408  0.00  0.00    +0.155 HD
BRANCH  14  15
ATOM     15  C   UNL     1       6.220  26.561  65.954  0.00  0.00    +0.037 A 
ATOM     16  C   UNL     1       7.496  26.114  66.520  0.00  0.00    +0.013 A 
ATOM     17  C   UNL     1       7.514  25.153  67.595  0.00  0.00    +0.005 A 
ATOM     18  C   UNL     1       6.250  24.634  68.112  0.00  0.00    -0.033 A 
ATOM     28  C   UNL     1       4.999  25.098  67.536  0.00  0.00    +0.005 A 
ATOM     29  C   UNL     1       4.978  26.039  66.482  0.00  0.00    +0.013 A 
BRANCH  18  19
ATOM     19  C   UNL     1       6.175  23.591  69.243  0.00  0.00    +0.119 C 
BRANCH  19  20
ATOM     20  N   UNL     1       4.994  23.654  70.154  0.00  0.00    -0.302 NA
ATOM     21  C   UNL     1       5.383  23.416  71.616  0.00  0.00    +0.066 C 
ATOM     22  C   UNL     1       4.139  23.508  72.558  0.00  0.00    -0.064 C 
ATOM     23  N   UNL     1       3.084  22.497  72.107  0.00  0.00    +0.379 N 
ATOM     24  C   UNL     1       1.937  22.541  73.026  0.00  0.00    -0.096 C 
ATOM     25  H   UNL     1       3.537  21.481  72.180  0.00  0.00    -0.082 HD
ATOM     26  C   UNL     1       2.694  22.725  70.653  0.00  0.00    -0.064 C 
ATOM     27  C   UNL     1       3.941  22.660  69.729  0.00  0.00    +0.066 C 
ENDBRANCH  19  20
ENDBRANCH  18  19
ENDBRANCH  14  15
ENDBRANCH  12  13
TORSDOF 6
ENDMDL
MODEL 3
REMARK VINA RESULT:      -7.2     34.559     38.697
REMARK  Name = C:\Users\Docking\Desktop\test protocol\1iep_ligandH.pdb
REMARK  8 active torsions:
REMARK  status: ('A' for Active; 'I' for Inactive)
REMARK    1  A    between atoms: _5  and  _11
REMARK    2  A    between atoms: _19  and  _21
REMARK    3  A    between atoms: _22  and  _66
REMARK    4  A    between atoms: _27  and  _30
REMARK    5  A    between atoms: _32  and  _33
REMARK    6  A    between atoms: _38  and  _43
REMARK    7  A    between atoms: _43  and  _46
REMARK    8  A    between atoms: _53  and  _55
REMARK                            x       y       z     vdW  Elec       q    Type
REMARK                         _______ _______ _______ _____ _____    ______ ____
ROOT
ATOM     10  C   UNL     1       6.090   8.585  50.851  0.00  0.00    +0.038 A 
ATOM     11  C   UNL     1       6.871   9.360  49.956  0.00  0.00    +0.047 A 
ATOM     12  C   UNL     1       8.318   9.223  49.908  0.00  0.00    +0.035 A 
ATOM     32  C   UNL     1       8.937   8.285  50.784  0.00  0.00    +0.024 A 
ATOM     33  C   UNL     1       8.159   7.490  51.701  0.00  0.00    +0.007 A 
ATOM     34  C   UNL     1       6.731   7.623  51.755  0.00  0.00    -0.029 A 
ATOM     35  C   UNL     1       5.948   6.749  52.763  0.00  0.00    +0.045 C 
ENDROOT
BRANCH  10   9
ATOM      4  C   UNL     1       1.681   7.470  49.315  0.00  0.00    +0.077 A 
ATOM      5  C   UNL     1       2.184   6.479  48.408  0.00  0.00    +0.048 A 
ATOM      6  C   UNL     1       3.584   6.292  48.362  0.00  0.00    +0.116 A 
ATOM      7  N   UNL     1       4.410   7.046  49.168  0.00  0.00    -0.223 NA
ATOM      8  C   UNL     1       3.892   7.994  50.030  0.00  0.00    +0.220 A 
ATOM      9  N   UNL     1       4.704   8.758  50.856  0.00  0.00    -0.283 N 
ATOM     36  H   UNL     1       4.284   9.452  51.473  0.00  0.00    +0.155 HD
ATOM     37  N   UNL     1       2.559   8.193  50.092  0.00  0.00    -0.214 NA
BRANCH   4   3
ATOM      1  C   UNL     1      -1.684   9.039  50.545  0.00  0.00    +0.020 A 
ATOM      2  C   UNL     1      -0.269   8.776  50.425  0.00  0.00    +0.013 A 
ATOM      3  C   UNL     1       0.226   7.782  49.481  0.00  0.00    +0.019 A 
ATOM     38  C   UNL     1      -0.745   7.066  48.667  0.00  0.00    +0.120 A 
ATOM     39  N   UNL     1      -2.102   7.340  48.806  0.00  0.00    -0.263 NA
ATOM     40  C   UNL     1      -2.590   8.293  49.712  0.00  0.00    +0.111 A 
ENDBRANCH   4   3
ENDBRANCH  10   9
BRANCH  12  13
ATOM     13  N   UNL     1       9.164   9.988  49.025  0.00  0.00    -0.281 N 
ATOM     14  C   UNL     1       9.567  11.306  49.163  0.00  0.00    +0.248 C 
ATOM     30  O   UNL     1       9.085  12.097  49.961  0.00  0.00    -0.270 OA
ATOM     31  H   UNL     1       9.507   9.499  48.199  0.00  0.00    +0.155 HD
BRANCH  14  15
ATOM     15  C   UNL     1      10.652  11.826  48.277  0.00  0.00    +0.037 A 
ATOM     16  C   UNL     1      10.348  12.432  46.978  0.00  0.00    +0.013 A 
ATOM     17  C   UNL     1      11.415  12.910  46.135  0.00  0.00    +0.005 A 
ATOM     18  C   UNL     1      12.798  12.784  46.590  0.00  0.00    -0.033 A 
ATOM     28  C   UNL     1      13.071  12.184  47.885  0.00  0.00    +0.005 A 
ATOM     29  C   UNL     1      12.028  11.713  48.714  0.00  0.00    +0.013 A 
BRANCH  18  19
ATOM     19  C   UNL     1      14.001  13.247  45.747  0.00  0.00    +0.119 C 
BRANCH  19  20
ATOM     20  N   UNL     1      14.395  14.684  45.849  0.00  0.00    -0.302 NA
ATOM     21  C   UNL     1      15.857  14.850  46.273  0.00  0.00    +0.066 C 
ATOM     22  C   UNL     1      16.258  16.359  46.354  0.00  0.00    -0.064 C 
ATOM     23  N   UNL     1      15.327  17.081  47.329  0.00  0.00    +0.379 N 
ATOM     24  C   UNL     1      15.738  18.487  47.450  0.00  0.00    -0.096 C 
ATOM     25  H   UNL     1      15.449  16.604  48.329  0.00  0.00    -0.082 HD
ATOM     26  C   UNL     1      13.870  16.919  46.916  0.00  0.00    -0.064 C 
ATOM     27  C   UNL     1      13.490  15.415  46.811  0.00  0.00    +0.066 C 
ENDBRANCH  19  20
ENDBRANCH  18  19
ENDBRANCH  14  15
ENDBRANCH  12  13
TORSDOF 6
ENDMDL
MODEL 4
REMARK VINA RESULT:      -7.2     40.819     43.300
REMARK  Name = C:\Users\Docking\Desktop\test protocol\1iep_ligandH.pdb
REMARK  8 active torsions:
REMARK  status: ('A' for Active; 'I' for Inactive)
REMARK    1  A    between atoms: _5  and  _11
REMARK    2  A    between atoms: _19  and  _21
REMARK    3  A    between atoms: _22  and  _66
REMARK    4  A    between atoms: _27  and  _30
REMARK    5  A    between atoms: _32  and  _33
REMARK    6  A    between atoms: _38  and  _43
REMARK    7  A    between atoms: _43  and  _46
REMARK    8  A    between atoms: _53  and  _55
REMARK                            x       y       z     vdW  Elec       q    Type
REMARK                         _______ _______ _______ _____ _____    ______ ____
ROOT
ATOM     10  C   UNL     1       6.774  17.570  76.248  0.00  0.00    +0.038 A 
ATOM     11  C   UNL     1       6.190  18.252  75.150  0.00  0.00    +0.047 A 
ATOM     12  C   UNL     1       5.964  19.688  75.191  0.00  0.00    +0.035 A 
ATOM     32  C   UNL     1       6.348  20.400  76.364  0.00  0.00    +0.024 A 
ATOM     33  C   UNL     1       6.942  19.723  77.490  0.00  0.00    +0.007 A 
ATOM     34  C   UNL     1       7.165  18.306  77.457  0.00  0.00    -0.029 A 
ATOM     35  C   UNL     1       7.800  17.631  78.695  0.00  0.00    +0.045 C 
ENDROOT
BRANCH  10   9
ATOM      4  C   UNL     1       9.367  13.736  74.976  0.00  0.00    +0.077 A 
ATOM      5  C   UNL     1      10.411  14.552  74.425  0.00  0.00    +0.048 A 
ATOM      6  C   UNL     1      10.239  15.953  74.482  0.00  0.00    +0.116 A 
ATOM      7  N   UNL     1       9.103  16.488  75.051  0.00  0.00    -0.223 NA
ATOM      8  C   UNL     1       8.115  15.673  75.572  0.00  0.00    +0.220 A 
ATOM      9  N   UNL     1       6.968  16.190  76.156  0.00  0.00    -0.283 N 
ATOM     36  H   UNL     1       6.259  15.556  76.522  0.00  0.00    +0.155 HD
ATOM     37  N   UNL     1       8.255  14.332  75.528  0.00  0.00    -0.214 NA
BRANCH   4   3
ATOM      1  C   UNL     1      10.619  10.032  74.877  0.00  0.00    +0.020 A 
ATOM      2  C   UNL     1      10.638  11.477  74.853  0.00  0.00    +0.013 A 
ATOM      3  C   UNL     1       9.404  12.240  74.993  0.00  0.00    +0.019 A 
ATOM     38  C   UNL     1       8.159  11.505  75.157  0.00  0.00    +0.120 A 
ATOM     39  N   UNL     1       8.172  10.114  75.175  0.00  0.00    -0.263 NA
ATOM     40  C   UNL     1       9.353   9.369  75.039  0.00  0.00    +0.111 A 
ENDBRANCH   4   3
ENDBRANCH  10   9
BRANCH  12  13
ATOM     13  N   UNL     1       5.367  20.433  74.110  0.00  0.00    -0.281 N 
ATOM     14  C   UNL     1       4.399  21.421  74.189  0.00  0.00    +0.248 C 
ATOM     30  O   UNL     1       3.741  21.665  75.190  0.00  0.00    -0.270 OA
ATOM     31  H   UNL     1       5.699  20.205  73.173  0.00  0.00    +0.155 HD
BRANCH  14  15
ATOM     15  C   UNL     1       4.109  22.247  72.977  0.00  0.00    +0.037 A 
ATOM     16  C   UNL     1       2.810  22.179  72.304  0.00  0.00    +0.013 A 
ATOM     17  C   UNL     1       2.562  22.974  71.128  0.00  0.00    +0.005 A 
ATOM     18  C   UNL     1       3.618  23.845  70.617  0.00  0.00    -0.033 A 
ATOM     28  C   UNL     1       4.896  23.896  71.307  0.00  0.00    +0.005 A 
ATOM     29  C   UNL     1       5.143  23.118  72.460  0.00  0.00    +0.013 A 
BRANCH  18  19
ATOM     19  C   UNL     1       3.449  24.712  69.355  0.00  0.00    +0.119 C 
BRANCH  19  20
ATOM     20  N   UNL     1       4.645  25.472  68.883  0.00  0.00    -0.302 NA
ATOM     21  C   UNL     1       4.308  26.932  68.565  0.00  0.00    +0.066 C 
ATOM     22  C   UNL     1       5.575  27.719  68.095  0.00  0.00    -0.064 C 
ATOM     23  N   UNL     1       6.179  27.024  66.873  0.00  0.00    +0.379 N 
ATOM     24  C   UNL     1       7.336  27.793  66.393  0.00  0.00    -0.096 C 
ATOM     25  H   UNL     1       5.410  27.030  66.066  0.00  0.00    -0.082 HD
ATOM     26  C   UNL     1       6.514  25.571  67.180  0.00  0.00    -0.064 C 
ATOM     27  C   UNL     1       5.255  24.806  67.675  0.00  0.00    +0.066 C 
ENDBRANCH  19  20
ENDBRANCH  18  19
ENDBRANCH  14  15
ENDBRANCH  12  13
TORSDOF 6
ENDMDL
MODEL 5
REMARK VINA RESULT:      -7.1     44.510     48.126
REMARK  Name = C:\Users\Docking\Desktop\test protocol\1iep_ligandH.pdb
REMARK  8 active torsions:
REMARK  status: ('A' for Active; 'I' for Inactive)
REMARK    1  A    between atoms: _5  and  _11
REMARK    2  A    between atoms: _19  and  _21
REMARK    3  A    between atoms: _22  and  _66
REMARK    4  A    between atoms: _27  and  _30
REMARK    5  A    between atoms: _32  and  _33
REMARK    6  A    between atoms: _38  and  _43
REMARK    7  A    between atoms: _43  and  _46
REMARK    8  A    between atoms: _53  and  _55
REMARK                            x       y       z     vdW  Elec       q    Type
REMARK                         _______ _______ _______ _____ _____    ______ ____
ROOT
ATOM     10  C   UNL     1      18.248  19.318  49.719  0.00  0.00    +0.038 A 
ATOM     11  C   UNL     1      17.536  18.100  49.579  0.00  0.00    +0.047 A 
ATOM     12  C   UNL     1      17.289  17.519  48.268  0.00  0.00    +0.035 A 
ATOM     32  C   UNL     1      17.785  18.204  47.121  0.00  0.00    +0.024 A 
ATOM     33  C   UNL     1      18.511  19.444  47.245  0.00  0.00    +0.007 A 
ATOM     34  C   UNL     1      18.755  20.023  48.535  0.00  0.00    -0.029 A 
ATOM     35  C   UNL     1      19.533  21.358  48.608  0.00  0.00    +0.045 C 
ENDROOT
BRANCH  10   9
ATOM      4  C   UNL     1      16.784  21.731  53.601  0.00  0.00    +0.077 A 
ATOM      5  C   UNL     1      15.507  22.016  53.015  0.00  0.00    +0.048 A 
ATOM      6  C   UNL     1      15.269  21.531  51.710  0.00  0.00    +0.116 A 
ATOM      7  N   UNL     1      16.243  20.813  51.050  0.00  0.00    -0.223 NA
ATOM      8  C   UNL     1      17.465  20.557  51.643  0.00  0.00    +0.220 A 
ATOM      9  N   UNL     1      18.456  19.831  51.001  0.00  0.00    -0.283 N 
ATOM     36  H   UNL     1      19.347  19.670  51.470  0.00  0.00    +0.155 HD
ATOM     37  N   UNL     1      17.717  21.011  52.888  0.00  0.00    -0.214 NA
BRANCH   4   3
ATOM      1  C   UNL     1      17.735  21.727  57.396  0.00  0.00    +0.020 A 
ATOM      2  C   UNL     1      17.346  21.248  56.089  0.00  0.00    +0.013 A 
ATOM      3  C   UNL     1      17.185  22.173  54.974  0.00  0.00    +0.019 A 
ATOM     38  C   UNL     1      17.427  23.587  55.217  0.00  0.00    +0.120 A 
ATOM     39  N   UNL     1      17.799  24.020  56.486  0.00  0.00    -0.263 NA
ATOM     40  C   UNL     1      17.956  23.139  57.567  0.00  0.00    +0.111 A 
ENDBRANCH   4   3
ENDBRANCH  10   9
BRANCH  12  13
ATOM     13  N   UNL     1      16.565  16.289  48.063  0.00  0.00    -0.281 N 
ATOM     14  C   UNL     1      17.053  14.994  48.119  0.00  0.00    +0.248 C 
ATOM     30  O   UNL     1      18.240  14.703  48.143  0.00  0.00    -0.270 OA
ATOM     31  H   UNL     1      15.572  16.385  47.852  0.00  0.00    +0.155 HD
BRANCH  14  15
ATOM     15  C   UNL     1      16.083  13.857  48.136  0.00  0.00    +0.037 A 
ATOM     16  C   UNL     1      14.713  14.020  47.645  0.00  0.00    +0.013 A 
ATOM     17  C   UNL     1      13.792  12.911  47.689  0.00  0.00    +0.005 A 
ATOM     18  C   UNL     1      14.241  11.628  48.224  0.00  0.00    -0.033 A 
ATOM     28  C   UNL     1      15.608  11.492  48.699  0.00  0.00    +0.005 A 
ATOM     29  C   UNL     1      16.513  12.577  48.659  0.00  0.00    +0.013 A 
BRANCH  18  19
ATOM     19  C   UNL     1      13.322  10.397  48.328  0.00  0.00    +0.119 C 
BRANCH  19  20
ATOM     20  N   UNL     1      13.941   9.059  48.095  0.00  0.00    -0.302 NA
ATOM     21  C   UNL     1      13.673   8.540  46.679  0.00  0.00    +0.066 C 
ATOM     22  C   UNL     1      14.348   7.149  46.445  0.00  0.00    -0.064 C 
ATOM     23  N   UNL     1      13.838   6.156  47.490  0.00  0.00    +0.379 N 
ATOM     24  C   UNL     1      14.426   4.833  47.237  0.00  0.00    -0.096 C 
ATOM     25  H   UNL     1      12.735   6.066  47.362  0.00  0.00    -0.082 HD
ATOM     26  C   UNL     1      14.099   6.665  48.901  0.00  0.00    -0.064 C 
ATOM     27  C   UNL     1      13.449   8.061  49.114  0.00  0.00    +0.066 C 
ENDBRANCH  19  20
ENDBRANCH  18  19
ENDBRANCH  14  15
ENDBRANCH  12  13
TORSDOF 6
ENDMDL
