MODEL 1
REMARK VINA RESULT:     -12.0      0.000      0.000
REMARK  Name = C:\Users\Docking\Desktop\test protocol\1iep_ligandH.pdb
REMARK  8 active torsions:
REMARK  status: ('A' for Active; 'I' for Inactive)
REMARK    1  A    between atoms: _5  and  _11
REMARK    2  A    between atoms: _19  and  _21
REMARK    3  A    between atoms: _22  and  _66
REMARK    4  A    between atoms: _27  and  _30
REMARK    5  A    between atoms: _32  and  _33
REMARK    6  A    between atoms: _38  and  _43
REMARK    7  A    between atoms: _43  and  _46
REMARK    8  A    between atoms: _53  and  _55
REMARK                            x       y       z     vdW  Elec       q    Type
REMARK                         _______ _______ _______ _____ _____    ______ ____
ROOT
ATOM     10  C   UNL     1      11.808  -5.200  19.889  0.00  0.00    +0.038 A 
ATOM     11  C   UNL     1      11.847  -3.828  20.249  0.00  0.00    +0.047 A 
ATOM     12  C   UNL     1      13.044  -3.234  20.823  0.00  0.00    +0.035 A 
ATOM     32  C   UNL     1      14.186  -4.066  21.014  0.00  0.00    +0.024 A 
ATOM     33  C   UNL     1      14.164  -5.462  20.655  0.00  0.00    +0.007 A 
ATOM     34  C   UNL     1      12.985  -6.054  20.091  0.00  0.00    -0.029 A 
ATOM     35  C   UNL     1      13.016  -7.558  19.730  0.00  0.00    +0.045 C 
ENDROOT
BRANCH  10   9
ATOM      4  C   UNL     1       9.124  -6.575  16.155  0.00  0.00    +0.077 A 
ATOM      5  C   UNL     1      10.140  -6.205  15.213  0.00  0.00    +0.048 A 
ATOM      6  C   UNL     1      11.336  -5.658  15.729  0.00  0.00    +0.116 A 
ATOM      7  N   UNL     1      11.493  -5.497  17.089  0.00  0.00    -0.223 NA
ATOM      8  C   UNL     1      10.492  -5.863  17.971  0.00  0.00    +0.220 A 
ATOM      9  N   UNL     1      10.632  -5.718  19.342  0.00  0.00    -0.283 N 
ATOM     36  H   UNL     1       9.868  -5.993  19.959  0.00  0.00    +0.155 HD
ATOM     37  N   UNL     1       9.340  -6.386  17.502  0.00  0.00    -0.214 NA
BRANCH   4   3
ATOM      1  C   UNL     1       6.290  -8.382  14.154  0.00  0.00    +0.020 A 
ATOM      2  C   UNL     1       7.582  -7.823  14.482  0.00  0.00    +0.013 A 
ATOM      3  C   UNL     1       7.806  -7.169  15.765  0.00  0.00    +0.019 A 
ATOM     38  C   UNL     1       6.695  -7.097  16.701  0.00  0.00    +0.120 A 
ATOM     39  N   UNL     1       5.462  -7.642  16.357  0.00  0.00    -0.263 NA
ATOM     40  C   UNL     1       5.233  -8.272  15.125  0.00  0.00    +0.111 A 
ENDBRANCH   4   3
ENDBRANCH  10   9
BRANCH  12  13
ATOM     13  N   UNL     1      13.139  -1.850  21.215  0.00  0.00    -0.281 N 
ATOM     14  C   UNL     1      12.871  -0.727  20.449  0.00  0.00    +0.248 C 
ATOM     30  O   UNL     1      12.712  -0.739  19.237  0.00  0.00    -0.270 OA
ATOM     31  H   UNL     1      13.441  -1.676  22.174  0.00  0.00    +0.155 HD
BRANCH  14  15
ATOM     15  C   UNL     1      12.780   0.603  21.124  0.00  0.00    +0.037 A 
ATOM     16  C   UNL     1      12.337   0.720  22.516  0.00  0.00    +0.013 A 
ATOM     17  C   UNL     1      12.242   2.017  23.138  0.00  0.00    +0.005 A 
ATOM     18  C   UNL     1      12.592   3.208  22.368  0.00  0.00    -0.033 A 
ATOM     28  C   UNL     1      13.033   3.063  20.991  0.00  0.00    +0.005 A 
ATOM     29  C   UNL     1      13.126   1.793  20.377  0.00  0.00    +0.013 A 
BRANCH  18  19
ATOM     19  C   UNL     1      12.500   4.633  22.945  0.00  0.00    +0.119 C 
BRANCH  19  20
ATOM     20  N   UNL     1      11.426   5.521  22.406  0.00  0.00    -0.302 NA
ATOM     21  C   UNL     1      10.251   4.720  21.838  0.00  0.00    +0.066 C 
ATOM     22  C   UNL     1       9.127   5.664  21.299  0.00  0.00    -0.064 C 
ATOM     23  N   UNL     1       9.713   6.595  20.236  0.00  0.00    +0.379 N 
ATOM     24  C   UNL     1       8.646   7.444  19.686  0.00  0.00    -0.096 C 
ATOM     25  H   UNL     1      10.100   5.958  19.406  0.00  0.00    -0.082 HD
ATOM     26  C   UNL     1      10.884   7.392  20.791  0.00  0.00    -0.064 C 
ATOM     27  C   UNL     1      11.982   6.445  21.351  0.00  0.00    +0.066 C 
ENDBRANCH  19  20
ENDBRANCH  18  19
ENDBRANCH  14  15
ENDBRANCH  12  13
TORSDOF 6
ENDMDL
MODEL 2
REMARK VINA RESULT:     -12.0      1.375      1.666
REMARK  Name = C:\Users\Docking\Desktop\test protocol\1iep_ligandH.pdb
REMARK  8 active torsions:
REMARK  status: ('A' for Active; 'I' for Inactive)
REMARK    1  A    between atoms: _5  and  _11
REMARK    2  A    between atoms: _19  and  _21
REMARK    3  A    between atoms: _22  and  _66
REMARK    4  A    between atoms: _27  and  _30
REMARK    5  A    between atoms: _32  and  _33
REMARK    6  A    between atoms: _38  and  _43
REMARK    7  A    between atoms: _43  and  _46
REMARK    8  A    between atoms: _53  and  _55
REMARK                            x       y       z     vdW  Elec       q    Type
REMARK                         _______ _______ _______ _____ _____    ______ ____
ROOT
ATOM     10  C   UNL     1      11.615  -5.527  19.635  0.00  0.00    +0.038 A 
ATOM     11  C   UNL     1      11.916  -4.167  19.900  0.00  0.00    +0.047 A 
ATOM     12  C   UNL     1      13.197  -3.776  20.466  0.00  0.00    +0.035 A 
ATOM     32  C   UNL     1      14.151  -4.797  20.748  0.00  0.00    +0.024 A 
ATOM     33  C   UNL     1      13.862  -6.185  20.486  0.00  0.00    +0.007 A 
ATOM     34  C   UNL     1      12.598  -6.577  19.930  0.00  0.00    -0.029 A 
ATOM     35  C   UNL     1      12.340  -8.080  19.676  0.00  0.00    +0.045 C 
ENDROOT
BRANCH  10   9
ATOM      4  C   UNL     1       8.810  -6.856  15.975  0.00  0.00    +0.077 A 
ATOM      5  C   UNL     1       9.916  -6.892  15.062  0.00  0.00    +0.048 A 
ATOM      6  C   UNL     1      11.190  -6.555  15.573  0.00  0.00    +0.116 A 
ATOM      7  N   UNL     1      11.334  -6.209  16.900  0.00  0.00    -0.223 NA
ATOM      8  C   UNL     1      10.246  -6.183  17.752  0.00  0.00    +0.220 A 
ATOM      9  N   UNL     1      10.369  -5.846  19.091  0.00  0.00    -0.283 N 
ATOM     36  H   UNL     1       9.541  -5.831  19.686  0.00  0.00    +0.155 HD
ATOM     37  N   UNL     1       9.019  -6.499  17.288  0.00  0.00    -0.214 NA
BRANCH   4   3
ATOM      1  C   UNL     1       5.633  -7.783  13.889  0.00  0.00    +0.020 A 
ATOM      2  C   UNL     1       7.005  -7.466  14.211  0.00  0.00    +0.013 A 
ATOM      3  C   UNL     1       7.403  -7.190  15.586  0.00  0.00    +0.019 A 
ATOM     38  C   UNL     1       6.380  -7.244  16.619  0.00  0.00    +0.120 A 
ATOM     39  N   UNL     1       5.066  -7.551  16.279  0.00  0.00    -0.263 NA
ATOM     40  C   UNL     1       4.671  -7.817  14.960  0.00  0.00    +0.111 A 
ENDBRANCH   4   3
ENDBRANCH  10   9
BRANCH  12  13
ATOM     13  N   UNL     1      13.556  -2.411  20.764  0.00  0.00    -0.281 N 
ATOM     14  C   UNL     1      13.097  -1.257  20.151  0.00  0.00    +0.248 C 
ATOM     30  O   UNL     1      12.466  -1.234  19.105  0.00  0.00    -0.270 OA
ATOM     31  H   UNL     1      14.230  -2.280  21.518  0.00  0.00    +0.155 HD
BRANCH  14  15
ATOM     15  C   UNL     1      13.394   0.064  20.784  0.00  0.00    +0.037 A 
ATOM     16  C   UNL     1      14.235   0.162  21.980  0.00  0.00    +0.013 A 
ATOM     17  C   UNL     1      14.492   1.447  22.580  0.00  0.00    +0.005 A 
ATOM     18  C   UNL     1      13.908   2.646  21.983  0.00  0.00    -0.033 A 
ATOM     28  C   UNL     1      13.082   2.521  20.794  0.00  0.00    +0.005 A 
ATOM     29  C   UNL     1      12.827   1.263  20.203  0.00  0.00    +0.013 A 
BRANCH  18  19
ATOM     19  C   UNL     1      14.112   4.055  22.569  0.00  0.00    +0.119 C 
BRANCH  19  20
ATOM     20  N   UNL     1      13.351   5.175  21.938  0.00  0.00    -0.302 NA
ATOM     21  C   UNL     1      14.265   6.335  21.534  0.00  0.00    +0.066 C 
ATOM     22  C   UNL     1      13.456   7.487  20.855  0.00  0.00    -0.064 C 
ATOM     23  N   UNL     1      12.360   7.968  21.808  0.00  0.00    +0.379 N 
ATOM     24  C   UNL     1      11.634   9.090  21.196  0.00  0.00    -0.096 C 
ATOM     25  H   UNL     1      12.857   8.349  22.730  0.00  0.00    -0.082 HD
ATOM     26  C   UNL     1      11.448   6.819  22.217  0.00  0.00    -0.064 C 
ATOM     27  C   UNL     1      12.266   5.667  22.864  0.00  0.00    +0.066 C 
ENDBRANCH  19  20
ENDBRANCH  18  19
ENDBRANCH  14  15
ENDBRANCH  12  13
TORSDOF 6
ENDMDL
MODEL 3
REMARK VINA RESULT:     -11.5      1.790      2.435
REMARK  Name = C:\Users\Docking\Desktop\test protocol\1iep_ligandH.pdb
REMARK  8 active torsions:
REMARK  status: ('A' for Active; 'I' for Inactive)
REMARK    1  A    between atoms: _5  and  _11
REMARK    2  A    between atoms: _19  and  _21
REMARK    3  A    between atoms: _22  and  _66
REMARK    4  A    between atoms: _27  and  _30
REMARK    5  A    between atoms: _32  and  _33
REMARK    6  A    between atoms: _38  and  _43
REMARK    7  A    between atoms: _43  and  _46
REMARK    8  A    between atoms: _53  and  _55
REMARK                            x       y       z     vdW  Elec       q    Type
REMARK                         _______ _______ _______ _____ _____    ______ ____
ROOT
ATOM     10  C   UNL     1      11.993  -4.598  20.297  0.00  0.00    +0.038 A 
ATOM     11  C   UNL     1      12.020  -3.201  20.542  0.00  0.00    +0.047 A 
ATOM     12  C   UNL     1      13.171  -2.568  21.165  0.00  0.00    +0.035 A 
ATOM     32  C   UNL     1      14.281  -3.388  21.524  0.00  0.00    +0.024 A 
ATOM     33  C   UNL     1      14.270  -4.809  21.284  0.00  0.00    +0.007 A 
ATOM     34  C   UNL     1      13.136  -5.439  20.671  0.00  0.00    -0.029 A 
ATOM     35  C   UNL     1      13.177  -6.968  20.443  0.00  0.00    +0.045 C 
ENDROOT
BRANCH  10   9
ATOM      4  C   UNL     1       9.634  -6.301  16.480  0.00  0.00    +0.077 A 
ATOM      5  C   UNL     1      10.740  -6.037  15.605  0.00  0.00    +0.048 A 
ATOM      6  C   UNL     1      11.895  -5.456  16.175  0.00  0.00    +0.116 A 
ATOM      7  N   UNL     1      11.930  -5.165  17.522  0.00  0.00    -0.223 NA
ATOM      8  C   UNL     1      10.845  -5.430  18.337  0.00  0.00    +0.220 A 
ATOM      9  N   UNL     1      10.862  -5.153  19.695  0.00  0.00    -0.283 N 
ATOM     36  H   UNL     1      10.038  -5.357  20.261  0.00  0.00    +0.155 HD
ATOM     37  N   UNL     1       9.730  -5.983  17.816  0.00  0.00    -0.214 NA
BRANCH   4   3
ATOM      1  C   UNL     1       6.913  -8.106  14.327  0.00  0.00    +0.020 A 
ATOM      2  C   UNL     1       8.178  -7.527  14.715  0.00  0.00    +0.013 A 
ATOM      3  C   UNL     1       8.346  -6.915  16.027  0.00  0.00    +0.019 A 
ATOM     38  C   UNL     1       7.205  -6.906  16.930  0.00  0.00    +0.120 A 
ATOM     39  N   UNL     1       5.998  -7.471  16.529  0.00  0.00    -0.263 NA
ATOM     40  C   UNL     1       5.824  -8.061  15.268  0.00  0.00    +0.111 A 
ENDBRANCH   4   3
ENDBRANCH  10   9
BRANCH  12  13
ATOM     13  N   UNL     1      13.252  -1.156  21.446  0.00  0.00    -0.281 N 
ATOM     14  C   UNL     1      12.973  -0.101  20.593  0.00  0.00    +0.248 C 
ATOM     30  O   UNL     1      12.816  -0.211  19.386  0.00  0.00    -0.270 OA
ATOM     31  H   UNL     1      13.551  -0.903  22.388  0.00  0.00    +0.155 HD
BRANCH  14  15
ATOM     15  C   UNL     1      12.867   1.278  21.160  0.00  0.00    +0.037 A 
ATOM     16  C   UNL     1      11.657   1.722  21.857  0.00  0.00    +0.013 A 
ATOM     17  C   UNL     1      11.575   3.063  22.379  0.00  0.00    +0.005 A 
ATOM     18  C   UNL     1      12.708   3.969  22.209  0.00  0.00    -0.033 A 
ATOM     28  C   UNL     1      13.898   3.501  21.518  0.00  0.00    +0.005 A 
ATOM     29  C   UNL     1      13.982   2.188  21.003  0.00  0.00    +0.013 A 
BRANCH  18  19
ATOM     19  C   UNL     1      12.699   5.424  22.715  0.00  0.00    +0.119 C 
BRANCH  19  20
ATOM     20  N   UNL     1      13.712   6.356  22.136  0.00  0.00    -0.302 NA
ATOM     21  C   UNL     1      14.745   6.800  23.175  0.00  0.00    +0.066 C 
ATOM     22  C   UNL     1      15.810   7.757  22.547  0.00  0.00    -0.064 C 
ATOM     23  N   UNL     1      15.105   8.967  21.932  0.00  0.00    +0.379 N 
ATOM     24  C   UNL     1      16.107   9.896  21.392  0.00  0.00    -0.096 C 
ATOM     25  H   UNL     1      14.562   9.493  22.751  0.00  0.00    -0.082 HD
ATOM     26  C   UNL     1      14.074   8.534  20.899  0.00  0.00    -0.064 C 
ATOM     27  C   UNL     1      13.038   7.560  21.527  0.00  0.00    +0.066 C 
ENDBRANCH  19  20
ENDBRANCH  18  19
ENDBRANCH  14  15
ENDBRANCH  12  13
TORSDOF 6
ENDMDL
MODEL 4
REMARK VINA RESULT:     -11.5      1.929     11.855
REMARK  Name = C:\Users\Docking\Desktop\test protocol\1iep_ligandH.pdb
REMARK  8 active torsions:
REMARK  status: ('A' for Active; 'I' for Inactive)
REMARK    1  A    between atoms: _5  and  _11
REMARK    2  A    between atoms: _19  and  _21
REMARK    3  A    between atoms: _22  and  _66
REMARK    4  A    between atoms: _27  and  _30
REMARK    5  A    between atoms: _32  and  _33
REMARK    6  A    between atoms: _38  and  _43
REMARK    7  A    between atoms: _43  and  _46
REMARK    8  A    between atoms: _53  and  _55
REMARK                            x       y       z     vdW  Elec       q    Type
REMARK                         _______ _______ _______ _____ _____    ______ ____
ROOT
ATOM     10  C   UNL     1      13.283   0.319  20.559  0.00  0.00    +0.038 A 
ATOM     11  C   UNL     1      12.692  -0.647  19.706  0.00  0.00    +0.047 A 
ATOM     12  C   UNL     1      12.993  -2.063  19.850  0.00  0.00    +0.035 A 
ATOM     32  C   UNL     1      13.901  -2.460  20.875  0.00  0.00    +0.024 A 
ATOM     33  C   UNL     1      14.512  -1.491  21.750  0.00  0.00    +0.007 A 
ATOM     34  C   UNL     1      14.221  -0.092  21.611  0.00  0.00    -0.029 A 
ATOM     35  C   UNL     1      14.910   0.903  22.573  0.00  0.00    +0.045 C 
ENDROOT
BRANCH  10   9
ATOM      4  C   UNL     1      10.830   4.276  21.726  0.00  0.00    +0.077 A 
ATOM      5  C   UNL     1      10.117   3.598  22.770  0.00  0.00    +0.048 A 
ATOM      6  C   UNL     1      10.406   2.229  22.969  0.00  0.00    +0.116 A 
ATOM      7  N   UNL     1      11.340   1.596  22.178  0.00  0.00    -0.223 NA
ATOM      8  C   UNL     1      12.009   2.280  21.179  0.00  0.00    +0.220 A 
ATOM      9  N   UNL     1      12.958   1.665  20.377  0.00  0.00    -0.283 N 
ATOM     36  H   UNL     1      13.424   2.202  19.646  0.00  0.00    +0.155 HD
ATOM     37  N   UNL     1      11.750   3.587  20.968  0.00  0.00    -0.214 NA
BRANCH   4   3
ATOM      1  C   UNL     1       9.326   7.635  20.401  0.00  0.00    +0.020 A 
ATOM      2  C   UNL     1       9.463   6.227  20.695  0.00  0.00    +0.013 A 
ATOM      3  C   UNL     1      10.638   5.724  21.395  0.00  0.00    +0.019 A 
ATOM     38  C   UNL     1      11.664   6.678  21.787  0.00  0.00    +0.120 A 
ATOM     39  N   UNL     1      11.505   8.028  21.489  0.00  0.00    -0.263 NA
ATOM     40  C   UNL     1      10.380   8.524  20.814  0.00  0.00    +0.111 A 
ENDBRANCH   4   3
ENDBRANCH  10   9
BRANCH  12  13
ATOM     13  N   UNL     1      12.429  -3.089  19.008  0.00  0.00    -0.281 N 
ATOM     14  C   UNL     1      11.695  -4.198  19.394  0.00  0.00    +0.248 C 
ATOM     30  O   UNL     1      11.594  -4.594  20.546  0.00  0.00    -0.270 OA
ATOM     31  H   UNL     1      12.590  -2.984  18.006  0.00  0.00    +0.155 HD
BRANCH  14  15
ATOM     15  C   UNL     1      10.982  -4.992  18.347  0.00  0.00    +0.037 A 
ATOM     16  C   UNL     1       9.741  -5.708  18.650  0.00  0.00    +0.013 A 
ATOM     17  C   UNL     1       9.082  -6.481  17.627  0.00  0.00    +0.005 A 
ATOM     18  C   UNL     1       9.665  -6.540  16.288  0.00  0.00    -0.033 A 
ATOM     28  C   UNL     1      10.895  -5.816  16.013  0.00  0.00    +0.005 A 
ATOM     29  C   UNL     1      11.544  -5.058  17.015  0.00  0.00    +0.013 A 
BRANCH  18  19
ATOM     19  C   UNL     1       9.043  -7.356  15.140  0.00  0.00    +0.119 C 
BRANCH  19  20
ATOM     20  N   UNL     1       7.566  -7.246  14.945  0.00  0.00    -0.302 NA
ATOM     21  C   UNL     1       6.788  -7.674  16.192  0.00  0.00    +0.066 C 
ATOM     22  C   UNL     1       5.246  -7.530  15.978  0.00  0.00    -0.064 C 
ATOM     23  N   UNL     1       4.823  -8.360  14.764  0.00  0.00    +0.379 N 
ATOM     24  C   UNL     1       3.365  -8.274  14.595  0.00  0.00    -0.096 C 
ATOM     25  H   UNL     1       5.077  -9.424  14.978  0.00  0.00    -0.082 HD
ATOM     26  C   UNL     1       5.594  -7.942  13.520  0.00  0.00    -0.064 C 
ATOM     27  C   UNL     1       7.126  -8.061  13.754  0.00  0.00    +0.066 C 
ENDBRANCH  19  20
ENDBRANCH  18  19
ENDBRANCH  14  15
ENDBRANCH  12  13
TORSDOF 6
ENDMDL
MODEL 5
REMARK VINA RESULT:     -11.3      1.387      1.937
REMARK  Name = C:\Users\Docking\Desktop\test protocol\1iep_ligandH.pdb
REMARK  8 active torsions:
REMARK  status: ('A' for Active; 'I' for Inactive)
REMARK    1  A    between atoms: _5  and  _11
REMARK    2  A    between atoms: _19  and  _21
REMARK    3  A    between atoms: _22  and  _66
REMARK    4  A    between atoms: _27  and  _30
REMARK    5  A    between atoms: _32  and  _33
REMARK    6  A    between atoms: _38  and  _43
REMARK    7  A    between atoms: _43  and  _46
REMARK    8  A    between atoms: _53  and  _55
REMARK                            x       y       z     vdW  Elec       q    Type
REMARK                         _______ _______ _______ _____ _____    ______ ____
ROOT
ATOM     10  C   UNL     1      12.198  -4.383  20.595  0.00  0.00    +0.038 A 
ATOM     11  C   UNL     1      12.222  -2.973  20.742  0.00  0.00    +0.047 A 
ATOM     12  C   UNL     1      13.325  -2.304  21.413  0.00  0.00    +0.035 A 
ATOM     32  C   UNL     1      14.391  -3.104  21.921  0.00  0.00    +0.024 A 
ATOM     33  C   UNL     1      14.383  -4.539  21.781  0.00  0.00    +0.007 A 
ATOM     34  C   UNL     1      13.295  -5.204  21.122  0.00  0.00    -0.029 A 
ATOM     35  C   UNL     1      13.336  -6.745  21.007  0.00  0.00    +0.045 C 
ENDROOT
BRANCH  10   9
ATOM      4  C   UNL     1      10.014  -6.016  16.645  0.00  0.00    +0.077 A 
ATOM      5  C   UNL     1      11.116  -5.638  15.808  0.00  0.00    +0.048 A 
ATOM      6  C   UNL     1      12.223  -5.020  16.432  0.00  0.00    +0.116 A 
ATOM      7  N   UNL     1      12.217  -4.801  17.793  0.00  0.00    -0.223 NA
ATOM      8  C   UNL     1      11.137  -5.176  18.571  0.00  0.00    +0.220 A 
ATOM      9  N   UNL     1      11.113  -4.973  19.942  0.00  0.00    -0.283 N 
ATOM     36  H   UNL     1      10.295  -5.257  20.479  0.00  0.00    +0.155 HD
ATOM     37  N   UNL     1      10.068  -5.767  17.998  0.00  0.00    -0.214 NA
BRANCH   4   3
ATOM      1  C   UNL     1       6.391  -7.467  16.390  0.00  0.00    +0.020 A 
ATOM      2  C   UNL     1       7.561  -6.816  16.931  0.00  0.00    +0.013 A 
ATOM      3  C   UNL     1       8.774  -6.681  16.134  0.00  0.00    +0.019 A 
ATOM     38  C   UNL     1       8.769  -7.220  14.782  0.00  0.00    +0.120 A 
ATOM     39  N   UNL     1       7.628  -7.843  14.288  0.00  0.00    -0.263 NA
ATOM     40  C   UNL     1       6.455  -7.980  15.047  0.00  0.00    +0.111 A 
ENDBRANCH   4   3
ENDBRANCH  10   9
BRANCH  12  13
ATOM     13  N   UNL     1      13.400  -0.877  21.599  0.00  0.00    -0.281 N 
ATOM     14  C   UNL     1      13.076   0.119  20.691  0.00  0.00    +0.248 C 
ATOM     30  O   UNL     1      12.874  -0.071  19.501  0.00  0.00    -0.270 OA
ATOM     31  H   UNL     1      13.732  -0.561  22.511  0.00  0.00    +0.155 HD
BRANCH  14  15
ATOM     15  C   UNL     1      12.976   1.530  21.173  0.00  0.00    +0.037 A 
ATOM     16  C   UNL     1      14.103   2.457  21.048  0.00  0.00    +0.013 A 
ATOM     17  C   UNL     1      13.986   3.809  21.536  0.00  0.00    +0.005 A 
ATOM     18  C   UNL     1      12.734   4.241  22.152  0.00  0.00    -0.033 A 
ATOM     28  C   UNL     1      11.629   3.302  22.258  0.00  0.00    +0.005 A 
ATOM     29  C   UNL     1      11.741   1.977  21.782  0.00  0.00    +0.013 A 
BRANCH  18  19
ATOM     19  C   UNL     1      12.527   5.658  22.719  0.00  0.00    +0.119 C 
BRANCH  19  20
ATOM     20  N   UNL     1      11.424   6.476  22.131  0.00  0.00    -0.302 NA
ATOM     21  C   UNL     1      11.902   7.870  21.715  0.00  0.00    +0.066 C 
ATOM     22  C   UNL     1      10.741   8.704  21.081  0.00  0.00    -0.064 C 
ATOM     23  N   UNL     1       9.584   8.802  22.077  0.00  0.00    +0.379 N 
ATOM     24  C   UNL     1       8.515   9.634  21.506  0.00  0.00    -0.096 C 
ATOM     25  H   UNL     1       9.966   9.319  22.988  0.00  0.00    -0.082 HD
ATOM     26  C   UNL     1       9.105   7.420  22.497  0.00  0.00    -0.064 C 
ATOM     27  C   UNL     1      10.273   6.589  23.099  0.00  0.00    +0.066 C 
ENDBRANCH  19  20
ENDBRANCH  18  19
ENDBRANCH  14  15
ENDBRANCH  12  13
TORSDOF 6
ENDMDL
