MODEL 1
REMARK VINA RESULT:     -12.1      0.000      0.000
REMARK  Name = C:\Users\Docking\Desktop\test protocol\1iep_ligandH.pdb
REMARK  8 active torsions:
REMARK  status: ('A' for Active; 'I' for Inactive)
REMARK    1  A    between atoms: _5  and  _11
REMARK    2  A    between atoms: _19  and  _21
REMARK    3  A    between atoms: _22  and  _66
REMARK    4  A    between atoms: _27  and  _30
REMARK    5  A    between atoms: _32  and  _33
REMARK    6  A    between atoms: _38  and  _43
REMARK    7  A    between atoms: _43  and  _46
REMARK    8  A    between atoms: _53  and  _55
REMARK                            x       y       z     vdW  Elec       q    Type
REMARK                         _______ _______ _______ _____ _____    ______ ____
ROOT
ATOM     10  C   UNL     1      11.596  -5.513  19.626  0.00  0.00    +0.038 A 
ATOM     11  C   UNL     1      11.898  -4.150  19.875  0.00  0.00    +0.047 A 
ATOM     12  C   UNL     1      13.179  -3.754  20.439  0.00  0.00    +0.035 A 
ATOM     32  C   UNL     1      14.131  -4.773  20.736  0.00  0.00    +0.024 A 
ATOM     33  C   UNL     1      13.839  -6.164  20.490  0.00  0.00    +0.007 A 
ATOM     34  C   UNL     1      12.576  -6.560  19.936  0.00  0.00    -0.029 A 
ATOM     35  C   UNL     1      12.316  -8.066  19.700  0.00  0.00    +0.045 C 
ENDROOT
BRANCH  10   9
ATOM      4  C   UNL     1       8.792  -6.851  15.967  0.00  0.00    +0.077 A 
ATOM      5  C   UNL     1       9.898  -6.883  15.054  0.00  0.00    +0.048 A 
ATOM      6  C   UNL     1      11.171  -6.541  15.564  0.00  0.00    +0.116 A 
ATOM      7  N   UNL     1      11.315  -6.195  16.890  0.00  0.00    -0.223 NA
ATOM      8  C   UNL     1      10.227  -6.173  17.744  0.00  0.00    +0.220 A 
ATOM      9  N   UNL     1      10.350  -5.836  19.083  0.00  0.00    -0.283 N 
ATOM     36  H   UNL     1       9.522  -5.825  19.678  0.00  0.00    +0.155 HD
ATOM     37  N   UNL     1       9.001  -6.494  17.281  0.00  0.00    -0.214 NA
BRANCH   4   3
ATOM      1  C   UNL     1       5.615  -7.780  13.883  0.00  0.00    +0.020 A 
ATOM      2  C   UNL     1       6.986  -7.457  14.204  0.00  0.00    +0.013 A 
ATOM      3  C   UNL     1       7.386  -7.190  15.580  0.00  0.00    +0.019 A 
ATOM     38  C   UNL     1       6.366  -7.259  16.616  0.00  0.00    +0.120 A 
ATOM     39  N   UNL     1       5.054  -7.570  16.277  0.00  0.00    -0.263 NA
ATOM     40  C   UNL     1       4.657  -7.828  14.956  0.00  0.00    +0.111 A 
ENDBRANCH   4   3
ENDBRANCH  10   9
BRANCH  12  13
ATOM     13  N   UNL     1      13.539  -2.387  20.721  0.00  0.00    -0.281 N 
ATOM     14  C   UNL     1      13.062  -1.237  20.112  0.00  0.00    +0.248 C 
ATOM     30  O   UNL     1      12.407  -1.223  19.081  0.00  0.00    -0.270 OA
ATOM     31  H   UNL     1      14.230  -2.249  21.459  0.00  0.00    +0.155 HD
BRANCH  14  15
ATOM     15  C   UNL     1      13.369   0.088  20.731  0.00  0.00    +0.037 A 
ATOM     16  C   UNL     1      14.214   0.193  21.923  0.00  0.00    +0.013 A 
ATOM     17  C   UNL     1      14.481   1.483  22.509  0.00  0.00    +0.005 A 
ATOM     18  C   UNL     1      13.902   2.679  21.902  0.00  0.00    -0.033 A 
ATOM     28  C   UNL     1      13.071   2.546  20.717  0.00  0.00    +0.005 A 
ATOM     29  C   UNL     1      12.807   1.284  20.140  0.00  0.00    +0.013 A 
BRANCH  18  19
ATOM     19  C   UNL     1      14.115   4.093  22.473  0.00  0.00    +0.119 C 
BRANCH  19  20
ATOM     20  N   UNL     1      13.352   5.209  21.839  0.00  0.00    -0.302 NA
ATOM     21  C   UNL     1      14.246   6.414  21.532  0.00  0.00    +0.066 C 
ATOM     22  C   UNL     1      13.436   7.564  20.848  0.00  0.00    -0.064 C 
ATOM     23  N   UNL     1      12.270   7.969  21.751  0.00  0.00    +0.379 N 
ATOM     24  C   UNL     1      11.541   9.089  21.138  0.00  0.00    -0.096 C 
ATOM     25  H   UNL     1      12.698   8.332  22.714  0.00  0.00    -0.082 HD
ATOM     26  C   UNL     1      11.378   6.776  22.063  0.00  0.00    -0.064 C 
ATOM     27  C   UNL     1      12.198   5.628  22.716  0.00  0.00    +0.066 C 
ENDBRANCH  19  20
ENDBRANCH  18  19
ENDBRANCH  14  15
ENDBRANCH  12  13
TORSDOF 6
ENDMDL
MODEL 2
REMARK VINA RESULT:     -11.5      2.021     12.384
REMARK  Name = C:\Users\Docking\Desktop\test protocol\1iep_ligandH.pdb
REMARK  8 active torsions:
REMARK  status: ('A' for Active; 'I' for Inactive)
REMARK    1  A    between atoms: _5  and  _11
REMARK    2  A    between atoms: _19  and  _21
REMARK    3  A    between atoms: _22  and  _66
REMARK    4  A    between atoms: _27  and  _30
REMARK    5  A    between atoms: _32  and  _33
REMARK    6  A    between atoms: _38  and  _43
REMARK    7  A    between atoms: _43  and  _46
REMARK    8  A    between atoms: _53  and  _55
REMARK                            x       y       z     vdW  Elec       q    Type
REMARK                         _______ _______ _______ _____ _____    ______ ____
ROOT
ATOM     10  C   UNL     1      13.201   0.352  20.586  0.00  0.00    +0.038 A 
ATOM     11  C   UNL     1      12.615  -0.593  19.705  0.00  0.00    +0.047 A 
ATOM     12  C   UNL     1      12.917  -2.012  19.816  0.00  0.00    +0.035 A 
ATOM     32  C   UNL     1      13.817  -2.434  20.837  0.00  0.00    +0.024 A 
ATOM     33  C   UNL     1      14.422  -1.487  21.740  0.00  0.00    +0.007 A 
ATOM     34  C   UNL     1      14.130  -0.086  21.634  0.00  0.00    -0.029 A 
ATOM     35  C   UNL     1      14.813   0.886  22.625  0.00  0.00    +0.045 C 
ENDROOT
BRANCH  10   9
ATOM      4  C   UNL     1      10.756   4.284  21.849  0.00  0.00    +0.077 A 
ATOM      5  C   UNL     1      10.045   3.583  22.880  0.00  0.00    +0.048 A 
ATOM      6  C   UNL     1      10.333   2.210  23.048  0.00  0.00    +0.116 A 
ATOM      7  N   UNL     1      11.264   1.595  22.240  0.00  0.00    -0.223 NA
ATOM      8  C   UNL     1      11.930   2.299  21.254  0.00  0.00    +0.220 A 
ATOM      9  N   UNL     1      12.876   1.702  20.435  0.00  0.00    -0.283 N 
ATOM     36  H   UNL     1      13.340   2.254  19.714  0.00  0.00    +0.155 HD
ATOM     37  N   UNL     1      11.672   3.611  21.072  0.00  0.00    -0.214 NA
BRANCH   4   3
ATOM      1  C   UNL     1       9.563   7.636  20.224  0.00  0.00    +0.020 A 
ATOM      2  C   UNL     1       9.714   6.221  20.469  0.00  0.00    +0.013 A 
ATOM      3  C   UNL     1      10.564   5.739  21.551  0.00  0.00    +0.019 A 
ATOM     38  C   UNL     1      11.251   6.723  22.374  0.00  0.00    +0.120 A 
ATOM     39  N   UNL     1      11.087   8.080  22.113  0.00  0.00    -0.263 NA
ATOM     40  C   UNL     1      10.273   8.556  21.074  0.00  0.00    +0.111 A 
ENDBRANCH   4   3
ENDBRANCH  10   9
BRANCH  12  13
ATOM     13  N   UNL     1      12.359  -3.017  18.945  0.00  0.00    -0.281 N 
ATOM     14  C   UNL     1      11.839  -4.253  19.294  0.00  0.00    +0.248 C 
ATOM     30  O   UNL     1      11.970  -4.773  20.392  0.00  0.00    -0.270 OA
ATOM     31  H   UNL     1      12.346  -2.790  17.951  0.00  0.00    +0.155 HD
BRANCH  14  15
ATOM     15  C   UNL     1      11.074  -5.029  18.271  0.00  0.00    +0.037 A 
ATOM     16  C   UNL     1       9.819  -5.704  18.611  0.00  0.00    +0.013 A 
ATOM     17  C   UNL     1       9.110  -6.461  17.610  0.00  0.00    +0.005 A 
ATOM     18  C   UNL     1       9.656  -6.546  16.257  0.00  0.00    -0.033 A 
ATOM     28  C   UNL     1      10.901  -5.862  15.946  0.00  0.00    +0.005 A 
ATOM     29  C   UNL     1      11.598  -5.121  16.925  0.00  0.00    +0.013 A 
BRANCH  18  19
ATOM     19  C   UNL     1       8.978  -7.348  15.131  0.00  0.00    +0.119 C 
BRANCH  19  20
ATOM     20  N   UNL     1       7.499  -7.207  14.985  0.00  0.00    -0.302 NA
ATOM     21  C   UNL     1       6.748  -7.730  16.214  0.00  0.00    +0.066 C 
ATOM     22  C   UNL     1       5.203  -7.554  16.054  0.00  0.00    -0.064 C 
ATOM     23  N   UNL     1       4.739  -8.276  14.788  0.00  0.00    +0.379 N 
ATOM     24  C   UNL     1       3.278  -8.161  14.666  0.00  0.00    -0.096 C 
ATOM     25  H   UNL     1       4.985  -9.357  14.905  0.00  0.00    -0.082 HD
ATOM     26  C   UNL     1       5.482  -7.764  13.562  0.00  0.00    -0.064 C 
ATOM     27  C   UNL     1       7.018  -7.916  13.743  0.00  0.00    +0.066 C 
ENDBRANCH  19  20
ENDBRANCH  18  19
ENDBRANCH  14  15
ENDBRANCH  12  13
TORSDOF 6
ENDMDL
MODEL 3
REMARK VINA RESULT:     -11.3      1.934     12.628
REMARK  Name = C:\Users\Docking\Desktop\test protocol\1iep_ligandH.pdb
REMARK  8 active torsions:
REMARK  status: ('A' for Active; 'I' for Inactive)
REMARK    1  A    between atoms: _5  and  _11
REMARK    2  A    between atoms: _19  and  _21
REMARK    3  A    between atoms: _22  and  _66
REMARK    4  A    between atoms: _27  and  _30
REMARK    5  A    between atoms: _32  and  _33
REMARK    6  A    between atoms: _38  and  _43
REMARK    7  A    between atoms: _43  and  _46
REMARK    8  A    between atoms: _53  and  _55
REMARK                            x       y       z     vdW  Elec       q    Type
REMARK                         _______ _______ _______ _____ _____    ______ ____
ROOT
ATOM     10  C   UNL     1      13.271  -0.736  21.377  0.00  0.00    +0.038 A 
ATOM     11  C   UNL     1      12.672  -1.395  20.273  0.00  0.00    +0.047 A 
ATOM     12  C   UNL     1      12.226  -2.776  20.372  0.00  0.00    +0.035 A 
ATOM     32  C   UNL     1      12.404  -3.456  21.612  0.00  0.00    +0.024 A 
ATOM     33  C   UNL     1      13.012  -2.802  22.744  0.00  0.00    +0.007 A 
ATOM     34  C   UNL     1      13.456  -1.441  22.652  0.00  0.00    -0.029 A 
ATOM     35  C   UNL     1      14.107  -0.792  23.895  0.00  0.00    +0.045 C 
ENDROOT
BRANCH  10   9
ATOM      4  C   UNL     1      12.548   3.990  21.796  0.00  0.00    +0.077 A 
ATOM      5  C   UNL     1      11.232   3.800  22.336  0.00  0.00    +0.048 A 
ATOM      6  C   UNL     1      10.776   2.471  22.483  0.00  0.00    +0.116 A 
ATOM      7  N   UNL     1      11.585   1.418  22.115  0.00  0.00    -0.223 NA
ATOM      8  C   UNL     1      12.848   1.635  21.596  0.00  0.00    +0.220 A 
ATOM      9  N   UNL     1      13.680   0.590  21.226  0.00  0.00    -0.283 N 
ATOM     36  H   UNL     1      14.602   0.793  20.840  0.00  0.00    +0.155 HD
ATOM     37  N   UNL     1      13.305   2.895  21.444  0.00  0.00    -0.214 NA
BRANCH   4   3
ATOM      1  C   UNL     1      15.111   6.942  21.698  0.00  0.00    +0.020 A 
ATOM      2  C   UNL     1      14.558   5.627  21.924  0.00  0.00    +0.013 A 
ATOM      3  C   UNL     1      13.171   5.334  21.583  0.00  0.00    +0.019 A 
ATOM     38  C   UNL     1      12.366   6.402  21.008  0.00  0.00    +0.120 A 
ATOM     39  N   UNL     1      12.926   7.659  20.803  0.00  0.00    -0.263 NA
ATOM     40  C   UNL     1      14.259   7.953  21.129  0.00  0.00    +0.111 A 
ENDBRANCH   4   3
ENDBRANCH  10   9
BRANCH  12  13
ATOM     13  N   UNL     1      11.619  -3.499  19.282  0.00  0.00    -0.281 N 
ATOM     14  C   UNL     1      12.093  -4.633  18.643  0.00  0.00    +0.248 C 
ATOM     30  O   UNL     1      13.225  -5.076  18.772  0.00  0.00    -0.270 OA
ATOM     31  H   UNL     1      10.731  -3.131  18.941  0.00  0.00    +0.155 HD
BRANCH  14  15
ATOM     15  C   UNL     1      11.184  -5.374  17.717  0.00  0.00    +0.037 A 
ATOM     16  C   UNL     1       9.832  -5.761  18.128  0.00  0.00    +0.013 A 
ATOM     17  C   UNL     1       8.982  -6.490  17.220  0.00  0.00    +0.005 A 
ATOM     18  C   UNL     1       9.481  -6.835  15.891  0.00  0.00    -0.033 A 
ATOM     28  C   UNL     1      10.824  -6.433  15.508  0.00  0.00    +0.005 A 
ATOM     29  C   UNL     1      11.661  -5.719  16.395  0.00  0.00    +0.013 A 
BRANCH  18  19
ATOM     19  C   UNL     1       8.650  -7.629  14.866  0.00  0.00    +0.119 C 
BRANCH  19  20
ATOM     20  N   UNL     1       7.175  -7.395  14.852  0.00  0.00    -0.302 NA
ATOM     21  C   UNL     1       6.487  -7.999  16.079  0.00  0.00    +0.066 C 
ATOM     22  C   UNL     1       4.947  -7.725  16.060  0.00  0.00    -0.064 C 
ATOM     23  N   UNL     1       4.348  -8.289  14.770  0.00  0.00    +0.379 N 
ATOM     24  C   UNL     1       2.892  -8.085  14.776  0.00  0.00    -0.096 C 
ATOM     25  H   UNL     1       4.536  -9.388  14.762  0.00  0.00    -0.082 HD
ATOM     26  C   UNL     1       5.029  -7.695  13.545  0.00  0.00    -0.064 C 
ATOM     27  C   UNL     1       6.562  -7.947  13.589  0.00  0.00    +0.066 C 
ENDBRANCH  19  20
ENDBRANCH  18  19
ENDBRANCH  14  15
ENDBRANCH  12  13
TORSDOF 6
ENDMDL
MODEL 4
REMARK VINA RESULT:     -11.1      1.615      2.573
REMARK  Name = C:\Users\Docking\Desktop\test protocol\1iep_ligandH.pdb
REMARK  8 active torsions:
REMARK  status: ('A' for Active; 'I' for Inactive)
REMARK    1  A    between atoms: _5  and  _11
REMARK    2  A    between atoms: _19  and  _21
REMARK    3  A    between atoms: _22  and  _66
REMARK    4  A    between atoms: _27  and  _30
REMARK    5  A    between atoms: _32  and  _33
REMARK    6  A    between atoms: _38  and  _43
REMARK    7  A    between atoms: _43  and  _46
REMARK    8  A    between atoms: _53  and  _55
REMARK                            x       y       z     vdW  Elec       q    Type
REMARK                         _______ _______ _______ _____ _____    ______ ____
ROOT
ATOM     10  C   UNL     1      12.363  -3.557  20.517  0.00  0.00    +0.038 A 
ATOM     11  C   UNL     1      12.444  -2.142  20.479  0.00  0.00    +0.047 A 
ATOM     12  C   UNL     1      13.550  -1.434  21.105  0.00  0.00    +0.035 A 
ATOM     32  C   UNL     1      14.559  -2.201  21.759  0.00  0.00    +0.024 A 
ATOM     33  C   UNL     1      14.491  -3.640  21.809  0.00  0.00    +0.007 A 
ATOM     34  C   UNL     1      13.401  -4.343  21.195  0.00  0.00    -0.029 A 
ATOM     35  C   UNL     1      13.376  -5.887  21.285  0.00  0.00    +0.045 C 
ENDROOT
BRANCH  10   9
ATOM      4  C   UNL     1      10.363  -5.900  16.837  0.00  0.00    +0.077 A 
ATOM      5  C   UNL     1      11.572  -5.845  16.068  0.00  0.00    +0.048 A 
ATOM      6  C   UNL     1      12.685  -5.199  16.653  0.00  0.00    +0.116 A 
ATOM      7  N   UNL     1      12.583  -4.653  17.913  0.00  0.00    -0.223 NA
ATOM      8  C   UNL     1      11.401  -4.721  18.627  0.00  0.00    +0.220 A 
ATOM      9  N   UNL     1      11.278  -4.185  19.900  0.00  0.00    -0.283 N 
ATOM     36  H   UNL     1      10.387  -4.249  20.391  0.00  0.00    +0.155 HD
ATOM     37  N   UNL     1      10.324  -5.331  18.090  0.00  0.00    -0.214 NA
BRANCH   4   3
ATOM      1  C   UNL     1       7.722  -7.729  14.604  0.00  0.00    +0.020 A 
ATOM      2  C   UNL     1       8.960  -7.110  15.018  0.00  0.00    +0.013 A 
ATOM      3  C   UNL     1       9.103  -6.551  16.356  0.00  0.00    +0.019 A 
ATOM     38  C   UNL     1       7.965  -6.636  17.259  0.00  0.00    +0.120 A 
ATOM     39  N   UNL     1       6.785  -7.237  16.832  0.00  0.00    -0.263 NA
ATOM     40  C   UNL     1       6.635  -7.776  15.546  0.00  0.00    +0.111 A 
ENDBRANCH   4   3
ENDBRANCH  10   9
BRANCH  12  13
ATOM     13  N   UNL     1      13.682   0.001  21.105  0.00  0.00    -0.281 N 
ATOM     14  C   UNL     1      13.095   0.910  21.970  0.00  0.00    +0.248 C 
ATOM     30  O   UNL     1      12.192   0.640  22.748  0.00  0.00    -0.270 OA
ATOM     31  H   UNL     1      14.281   0.396  20.379  0.00  0.00    +0.155 HD
BRANCH  14  15
ATOM     15  C   UNL     1      13.569   2.328  21.959  0.00  0.00    +0.037 A 
ATOM     16  C   UNL     1      13.117   3.288  22.969  0.00  0.00    +0.013 A 
ATOM     17  C   UNL     1      13.577   4.654  22.926  0.00  0.00    +0.005 A 
ATOM     18  C   UNL     1      14.496   5.066  21.868  0.00  0.00    -0.033 A 
ATOM     28  C   UNL     1      14.933   4.092  20.882  0.00  0.00    +0.005 A 
ATOM     29  C   UNL     1      14.484   2.753  20.921  0.00  0.00    +0.013 A 
BRANCH  18  19
ATOM     19  C   UNL     1      15.021   6.508  21.732  0.00  0.00    +0.119 C 
BRANCH  19  20
ATOM     20  N   UNL     1      14.023   7.613  21.846  0.00  0.00    -0.302 NA
ATOM     21  C   UNL     1      12.740   7.311  21.067  0.00  0.00    +0.066 C 
ATOM     22  C   UNL     1      11.699   8.467  21.216  0.00  0.00    -0.064 C 
ATOM     23  N   UNL     1      12.325   9.779  20.740  0.00  0.00    +0.379 N 
ATOM     24  C   UNL     1      11.330  10.857  20.824  0.00  0.00    -0.096 C 
ATOM     25  H   UNL     1      12.598   9.653  19.666  0.00  0.00    -0.082 HD
ATOM     26  C   UNL     1      13.603  10.085  21.508  0.00  0.00    -0.064 C 
ATOM     27  C   UNL     1      14.620   8.917  21.378  0.00  0.00    +0.066 C 
ENDBRANCH  19  20
ENDBRANCH  18  19
ENDBRANCH  14  15
ENDBRANCH  12  13
TORSDOF 6
ENDMDL
MODEL 5
REMARK VINA RESULT:     -10.9      1.960     12.211
REMARK  Name = C:\Users\Docking\Desktop\test protocol\1iep_ligandH.pdb
REMARK  8 active torsions:
REMARK  status: ('A' for Active; 'I' for Inactive)
REMARK    1  A    between atoms: _5  and  _11
REMARK    2  A    between atoms: _19  and  _21
REMARK    3  A    between atoms: _22  and  _66
REMARK    4  A    between atoms: _27  and  _30
REMARK    5  A    between atoms: _32  and  _33
REMARK    6  A    between atoms: _38  and  _43
REMARK    7  A    between atoms: _43  and  _46
REMARK    8  A    between atoms: _53  and  _55
REMARK                            x       y       z     vdW  Elec       q    Type
REMARK                         _______ _______ _______ _____ _____    ______ ____
ROOT
ATOM     10  C   UNL     1      13.119  -2.866  22.410  0.00  0.00    +0.038 A 
ATOM     11  C   UNL     1      12.218  -3.227  21.376  0.00  0.00    +0.047 A 
ATOM     12  C   UNL     1      12.252  -4.552  20.777  0.00  0.00    +0.035 A 
ATOM     32  C   UNL     1      13.216  -5.486  21.257  0.00  0.00    +0.024 A 
ATOM     33  C   UNL     1      14.140  -5.136  22.307  0.00  0.00    +0.007 A 
ATOM     34  C   UNL     1      14.112  -3.829  22.900  0.00  0.00    -0.029 A 
ATOM     35  C   UNL     1      15.131  -3.506  24.018  0.00  0.00    +0.045 C 
ENDROOT
BRANCH  10   9
ATOM      4  C   UNL     1      12.840   1.904  21.958  0.00  0.00    +0.077 A 
ATOM      5  C   UNL     1      12.878   1.830  20.526  0.00  0.00    +0.048 A 
ATOM      6  C   UNL     1      12.977   0.545  19.945  0.00  0.00    +0.116 A 
ATOM      7  N   UNL     1      13.033  -0.574  20.746  0.00  0.00    -0.223 NA
ATOM      8  C   UNL     1      12.995  -0.467  22.124  0.00  0.00    +0.220 A 
ATOM      9  N   UNL     1      13.041  -1.580  22.950  0.00  0.00    -0.283 N 
ATOM     36  H   UNL     1      13.019  -1.459  23.962  0.00  0.00    +0.155 HD
ATOM     37  N   UNL     1      12.902   0.748  22.703  0.00  0.00    -0.214 NA
BRANCH   4   3
ATOM      1  C   UNL     1      12.225   4.517  24.803  0.00  0.00    +0.020 A 
ATOM      2  C   UNL     1      12.311   3.250  24.113  0.00  0.00    +0.013 A 
ATOM      3  C   UNL     1      12.733   3.188  22.719  0.00  0.00    +0.019 A 
ATOM     38  C   UNL     1      13.063   4.436  22.047  0.00  0.00    +0.120 A 
ATOM     39  N   UNL     1      12.970   5.641  22.737  0.00  0.00    -0.263 NA
ATOM     40  C   UNL     1      12.564   5.713  24.078  0.00  0.00    +0.111 A 
ENDBRANCH   4   3
ENDBRANCH  10   9
BRANCH  12  13
ATOM     13  N   UNL     1      11.368  -4.973  19.718  0.00  0.00    -0.281 N 
ATOM     14  C   UNL     1      11.558  -4.852  18.351  0.00  0.00    +0.248 C 
ATOM     30  O   UNL     1      12.426  -4.165  17.832  0.00  0.00    -0.270 OA
ATOM     31  H   UNL     1      10.497  -5.414  20.012  0.00  0.00    +0.155 HD
BRANCH  14  15
ATOM     15  C   UNL     1      10.642  -5.587  17.427  0.00  0.00    +0.037 A 
ATOM     16  C   UNL     1       9.323  -6.047  17.871  0.00  0.00    +0.013 A 
ATOM     17  C   UNL     1       8.467  -6.769  16.964  0.00  0.00    +0.005 A 
ATOM     18  C   UNL     1       8.926  -7.034  15.603  0.00  0.00    -0.033 A 
ATOM     28  C   UNL     1      10.236  -6.562  15.187  0.00  0.00    +0.005 A 
ATOM     29  C   UNL     1      11.079  -5.855  16.073  0.00  0.00    +0.013 A 
BRANCH  18  19
ATOM     19  C   UNL     1       8.087  -7.816  14.574  0.00  0.00    +0.119 C 
BRANCH  19  20
ATOM     20  N   UNL     1       6.615  -7.563  14.559  0.00  0.00    -0.302 NA
ATOM     21  C   UNL     1       5.911  -8.197  15.763  0.00  0.00    +0.066 C 
ATOM     22  C   UNL     1       4.376  -7.904  15.743  0.00  0.00    -0.064 C 
ATOM     23  N   UNL     1       3.778  -8.420  14.433  0.00  0.00    +0.379 N 
ATOM     24  C   UNL     1       2.324  -8.198  14.437  0.00  0.00    -0.096 C 
ATOM     25  H   UNL     1       3.952  -9.520  14.392  0.00  0.00    -0.082 HD
ATOM     26  C   UNL     1       4.473  -7.796  13.231  0.00  0.00    -0.064 C 
ATOM     27  C   UNL     1       6.003  -8.068  13.276  0.00  0.00    +0.066 C 
ENDBRANCH  19  20
ENDBRANCH  18  19
ENDBRANCH  14  15
ENDBRANCH  12  13
TORSDOF 6
ENDMDL
