MODEL 1
REMARK VINA RESULT:     -11.9      0.000      0.000
REMARK  Name = C:\Users\Docking\Desktop\test protocol\1iep_ligandH.pdb
REMARK  8 active torsions:
REMARK  status: ('A' for Active; 'I' for Inactive)
REMARK    1  A    between atoms: _5  and  _11
REMARK    2  A    between atoms: _19  and  _21
REMARK    3  A    between atoms: _22  and  _66
REMARK    4  A    between atoms: _27  and  _30
REMARK    5  A    between atoms: _32  and  _33
REMARK    6  A    between atoms: _38  and  _43
REMARK    7  A    between atoms: _43  and  _46
REMARK    8  A    between atoms: _53  and  _55
REMARK                            x       y       z     vdW  Elec       q    Type
REMARK                         _______ _______ _______ _____ _____    ______ ____
ROOT
ATOM     10  C   UNL     1      11.769  -5.270  19.901  0.00  0.00    +0.038 A 
ATOM     11  C   UNL     1      11.794  -3.886  20.210  0.00  0.00    +0.047 A 
ATOM     12  C   UNL     1      12.973  -3.266  20.795  0.00  0.00    +0.035 A 
ATOM     32  C   UNL     1      14.111  -4.086  21.050  0.00  0.00    +0.024 A 
ATOM     33  C   UNL     1      14.102  -5.495  20.743  0.00  0.00    +0.007 A 
ATOM     34  C   UNL     1      12.941  -6.112  20.169  0.00  0.00    -0.029 A 
ATOM     35  C   UNL     1      12.986  -7.628  19.867  0.00  0.00    +0.045 C 
ENDROOT
BRANCH  10   9
ATOM      4  C   UNL     1       9.096  -6.564  16.131  0.00  0.00    +0.077 A 
ATOM      5  C   UNL     1      10.080  -6.095  15.198  0.00  0.00    +0.048 A 
ATOM      6  C   UNL     1      11.257  -5.521  15.729  0.00  0.00    +0.116 A 
ATOM      7  N   UNL     1      11.427  -5.428  17.093  0.00  0.00    -0.223 NA
ATOM      8  C   UNL     1      10.457  -5.889  17.965  0.00  0.00    +0.220 A 
ATOM      9  N   UNL     1      10.610  -5.812  19.341  0.00  0.00    -0.283 N 
ATOM     36  H   UNL     1       9.869  -6.156  19.951  0.00  0.00    +0.155 HD
ATOM     37  N   UNL     1       9.324  -6.440  17.483  0.00  0.00    -0.214 NA
BRANCH   4   3
ATOM      1  C   UNL     1       6.345  -8.460  14.097  0.00  0.00    +0.020 A 
ATOM      2  C   UNL     1       7.615  -7.863  14.441  0.00  0.00    +0.013 A 
ATOM      3  C   UNL     1       7.802  -7.198  15.724  0.00  0.00    +0.019 A 
ATOM     38  C   UNL     1       6.676  -7.153  16.644  0.00  0.00    +0.120 A 
ATOM     39  N   UNL     1       5.464  -7.735  16.285  0.00  0.00    -0.263 NA
ATOM     40  C   UNL     1       5.271  -8.377  15.052  0.00  0.00    +0.111 A 
ENDBRANCH   4   3
ENDBRANCH  10   9
BRANCH  12  13
ATOM     13  N   UNL     1      13.054  -1.868  21.136  0.00  0.00    -0.281 N 
ATOM     14  C   UNL     1      12.792  -0.776  20.325  0.00  0.00    +0.248 C 
ATOM     30  O   UNL     1      12.653  -0.834  19.112  0.00  0.00    -0.270 OA
ATOM     31  H   UNL     1      13.340  -1.657  22.093  0.00  0.00    +0.155 HD
BRANCH  14  15
ATOM     15  C   UNL     1      12.682   0.577  20.948  0.00  0.00    +0.037 A 
ATOM     16  C   UNL     1      13.041   1.788  20.205  0.00  0.00    +0.013 A 
ATOM     17  C   UNL     1      12.942   3.080  20.836  0.00  0.00    +0.005 A 
ATOM     18  C   UNL     1      12.481   3.168  22.220  0.00  0.00    -0.033 A 
ATOM     28  C   UNL     1      12.126   1.952  22.932  0.00  0.00    +0.005 A 
ATOM     29  C   UNL     1      12.223   0.683  22.317  0.00  0.00    +0.013 A 
BRANCH  18  19
ATOM     19  C   UNL     1      12.364   4.503  22.979  0.00  0.00    +0.119 C 
BRANCH  19  20
ATOM     20  N   UNL     1      11.335   5.474  22.502  0.00  0.00    -0.302 NA
ATOM     21  C   UNL     1      10.075   4.770  21.991  0.00  0.00    +0.066 C 
ATOM     22  C   UNL     1       8.999   5.801  21.517  0.00  0.00    -0.064 C 
ATOM     23  N   UNL     1       9.599   6.696  20.431  0.00  0.00    +0.379 N 
ATOM     24  C   UNL     1       8.572   7.628  19.942  0.00  0.00    -0.096 C 
ATOM     25  H   UNL     1       9.894   6.041  19.578  0.00  0.00    -0.082 HD
ATOM     26  C   UNL     1      10.854   7.397  20.930  0.00  0.00    -0.064 C 
ATOM     27  C   UNL     1      11.904   6.365  21.426  0.00  0.00    +0.066 C 
ENDBRANCH  19  20
ENDBRANCH  18  19
ENDBRANCH  14  15
ENDBRANCH  12  13
TORSDOF 6
ENDMDL
MODEL 2
REMARK VINA RESULT:     -11.4      1.886     11.908
REMARK  Name = C:\Users\Docking\Desktop\test protocol\1iep_ligandH.pdb
REMARK  8 active torsions:
REMARK  status: ('A' for Active; 'I' for Inactive)
REMARK    1  A    between atoms: _5  and  _11
REMARK    2  A    between atoms: _19  and  _21
REMARK    3  A    between atoms: _22  and  _66
REMARK    4  A    between atoms: _27  and  _30
REMARK    5  A    between atoms: _32  and  _33
REMARK    6  A    between atoms: _38  and  _43
REMARK    7  A    between atoms: _43  and  _46
REMARK    8  A    between atoms: _53  and  _55
REMARK                            x       y       z     vdW  Elec       q    Type
REMARK                         _______ _______ _______ _____ _____    ______ ____
ROOT
ATOM     10  C   UNL     1      13.198   0.453  20.575  0.00  0.00    +0.038 A 
ATOM     11  C   UNL     1      12.618  -0.489  19.687  0.00  0.00    +0.047 A 
ATOM     12  C   UNL     1      12.906  -1.910  19.804  0.00  0.00    +0.035 A 
ATOM     32  C   UNL     1      13.788  -2.337  20.838  0.00  0.00    +0.024 A 
ATOM     33  C   UNL     1      14.388  -1.394  21.748  0.00  0.00    +0.007 A 
ATOM     34  C   UNL     1      14.110   0.010  21.637  0.00  0.00    -0.029 A 
ATOM     35  C   UNL     1      14.786   0.977  22.636  0.00  0.00    +0.045 C 
ENDROOT
BRANCH  10   9
ATOM      4  C   UNL     1      10.751   4.402  21.783  0.00  0.00    +0.077 A 
ATOM      5  C   UNL     1      10.012   3.705  22.796  0.00  0.00    +0.048 A 
ATOM      6  C   UNL     1      10.286   2.330  22.969  0.00  0.00    +0.116 A 
ATOM      7  N   UNL     1      11.232   1.708  22.183  0.00  0.00    -0.223 NA
ATOM      8  C   UNL     1      11.926   2.409  21.214  0.00  0.00    +0.220 A 
ATOM      9  N   UNL     1      12.887   1.806  20.417  0.00  0.00    -0.283 N 
ATOM     36  H   UNL     1      13.372   2.355  19.708  0.00  0.00    +0.155 HD
ATOM     37  N   UNL     1      11.681   3.723  21.028  0.00  0.00    -0.214 NA
BRANCH   4   3
ATOM      1  C   UNL     1      11.438   8.222  21.299  0.00  0.00    +0.020 A 
ATOM      2  C   UNL     1      11.659   6.827  21.603  0.00  0.00    +0.013 A 
ATOM      3  C   UNL     1      10.577   5.858  21.482  0.00  0.00    +0.019 A 
ATOM     38  C   UNL     1       9.273   6.337  21.048  0.00  0.00    +0.120 A 
ATOM     39  N   UNL     1       9.090   7.686  20.764  0.00  0.00    -0.263 NA
ATOM     40  C   UNL     1      10.123   8.628  20.878  0.00  0.00    +0.111 A 
ENDBRANCH   4   3
ENDBRANCH  10   9
BRANCH  12  13
ATOM     13  N   UNL     1      12.352  -2.911  18.927  0.00  0.00    -0.281 N 
ATOM     14  C   UNL     1      11.941  -4.194  19.251  0.00  0.00    +0.248 C 
ATOM     30  O   UNL     1      12.188  -4.751  20.310  0.00  0.00    -0.270 OA
ATOM     31  H   UNL     1      12.250  -2.642  17.948  0.00  0.00    +0.155 HD
BRANCH  14  15
ATOM     15  C   UNL     1      11.156  -4.976  18.248  0.00  0.00    +0.037 A 
ATOM     16  C   UNL     1       9.941  -5.699  18.631  0.00  0.00    +0.013 A 
ATOM     17  C   UNL     1       9.211  -6.459  17.648  0.00  0.00    +0.005 A 
ATOM     18  C   UNL     1       9.695  -6.499  16.270  0.00  0.00    -0.033 A 
ATOM     28  C   UNL     1      10.901  -5.768  15.916  0.00  0.00    +0.005 A 
ATOM     29  C   UNL     1      11.619  -5.022  16.878  0.00  0.00    +0.013 A 
BRANCH  18  19
ATOM     19  C   UNL     1       8.992  -7.302  15.159  0.00  0.00    +0.119 C 
BRANCH  19  20
ATOM     20  N   UNL     1       7.511  -7.154  15.042  0.00  0.00    -0.302 NA
ATOM     21  C   UNL     1       6.779  -7.722  16.261  0.00  0.00    +0.066 C 
ATOM     22  C   UNL     1       5.231  -7.539  16.132  0.00  0.00    -0.064 C 
ATOM     23  N   UNL     1       4.746  -8.213  14.847  0.00  0.00    +0.379 N 
ATOM     24  C   UNL     1       3.284  -8.093  14.753  0.00  0.00    -0.096 C 
ATOM     25  H   UNL     1       4.993  -9.297  14.920  0.00  0.00    -0.082 HD
ATOM     26  C   UNL     1       5.471  -7.655  13.630  0.00  0.00    -0.064 C 
ATOM     27  C   UNL     1       7.010  -7.816  13.782  0.00  0.00    +0.066 C 
ENDBRANCH  19  20
ENDBRANCH  18  19
ENDBRANCH  14  15
ENDBRANCH  12  13
TORSDOF 6
ENDMDL
MODEL 3
REMARK VINA RESULT:     -10.7      2.163     11.676
REMARK  Name = C:\Users\Docking\Desktop\test protocol\1iep_ligandH.pdb
REMARK  8 active torsions:
REMARK  status: ('A' for Active; 'I' for Inactive)
REMARK    1  A    between atoms: _5  and  _11
REMARK    2  A    between atoms: _19  and  _21
REMARK    3  A    between atoms: _22  and  _66
REMARK    4  A    between atoms: _27  and  _30
REMARK    5  A    between atoms: _32  and  _33
REMARK    6  A    between atoms: _38  and  _43
REMARK    7  A    between atoms: _43  and  _46
REMARK    8  A    between atoms: _53  and  _55
REMARK                            x       y       z     vdW  Elec       q    Type
REMARK                         _______ _______ _______ _____ _____    ______ ____
ROOT
ATOM     10  C   UNL     1      13.064  -2.903  22.446  0.00  0.00    +0.038 A 
ATOM     11  C   UNL     1      12.170  -3.253  21.402  0.00  0.00    +0.047 A 
ATOM     12  C   UNL     1      12.211  -4.570  20.787  0.00  0.00    +0.035 A 
ATOM     32  C   UNL     1      13.174  -5.508  21.261  0.00  0.00    +0.024 A 
ATOM     33  C   UNL     1      14.092  -5.168  22.320  0.00  0.00    +0.007 A 
ATOM     34  C   UNL     1      14.057  -3.869  22.929  0.00  0.00    -0.029 A 
ATOM     35  C   UNL     1      15.069  -3.558  24.056  0.00  0.00    +0.045 C 
ENDROOT
BRANCH  10   9
ATOM      4  C   UNL     1      12.817   1.874  22.052  0.00  0.00    +0.077 A 
ATOM      5  C   UNL     1      12.888   1.819  20.621  0.00  0.00    +0.048 A 
ATOM      6  C   UNL     1      12.994   0.543  20.025  0.00  0.00    +0.116 A 
ATOM      7  N   UNL     1      13.026  -0.588  20.812  0.00  0.00    -0.223 NA
ATOM      8  C   UNL     1      12.958  -0.500  22.190  0.00  0.00    +0.220 A 
ATOM      9  N   UNL     1      12.980  -1.624  23.001  0.00  0.00    -0.283 N 
ATOM     36  H   UNL     1      12.935  -1.516  24.014  0.00  0.00    +0.155 HD
ATOM     37  N   UNL     1      12.857   0.708  22.783  0.00  0.00    -0.214 NA
BRANCH   4   3
ATOM      1  C   UNL     1      11.661   5.403  23.283  0.00  0.00    +0.020 A 
ATOM      2  C   UNL     1      11.734   4.190  22.500  0.00  0.00    +0.013 A 
ATOM      3  C   UNL     1      12.699   3.149  22.829  0.00  0.00    +0.019 A 
ATOM     38  C   UNL     1      13.582   3.367  23.965  0.00  0.00    +0.120 A 
ATOM     39  N   UNL     1      13.490   4.545  24.699  0.00  0.00    -0.263 NA
ATOM     40  C   UNL     1      12.566   5.555  24.391  0.00  0.00    +0.111 A 
ENDBRANCH   4   3
ENDBRANCH  10   9
BRANCH  12  13
ATOM     13  N   UNL     1      11.333  -4.980  19.718  0.00  0.00    -0.281 N 
ATOM     14  C   UNL     1      11.556  -4.895  18.354  0.00  0.00    +0.248 C 
ATOM     30  O   UNL     1      12.460  -4.253  17.840  0.00  0.00    -0.270 OA
ATOM     31  H   UNL     1      10.440  -5.382  20.002  0.00  0.00    +0.155 HD
BRANCH  14  15
ATOM     15  C   UNL     1      10.632  -5.615  17.425  0.00  0.00    +0.037 A 
ATOM     16  C   UNL     1       9.314  -6.074  17.869  0.00  0.00    +0.013 A 
ATOM     17  C   UNL     1       8.449  -6.781  16.958  0.00  0.00    +0.005 A 
ATOM     18  C   UNL     1       8.901  -7.032  15.592  0.00  0.00    -0.033 A 
ATOM     28  C   UNL     1      10.211  -6.560  15.175  0.00  0.00    +0.005 A 
ATOM     29  C   UNL     1      11.062  -5.868  16.066  0.00  0.00    +0.013 A 
BRANCH  18  19
ATOM     19  C   UNL     1       8.053  -7.797  14.558  0.00  0.00    +0.119 C 
BRANCH  19  20
ATOM     20  N   UNL     1       6.580  -7.550  14.564  0.00  0.00    -0.302 NA
ATOM     21  C   UNL     1       5.881  -8.274  15.718  0.00  0.00    +0.066 C 
ATOM     22  C   UNL     1       4.344  -7.986  15.723  0.00  0.00    -0.064 C 
ATOM     23  N   UNL     1       3.746  -8.405  14.379  0.00  0.00    +0.379 N 
ATOM     24  C   UNL     1       2.292  -8.190  14.401  0.00  0.00    -0.096 C 
ATOM     25  H   UNL     1       3.924  -9.499  14.256  0.00  0.00    -0.082 HD
ATOM     26  C   UNL     1       4.437  -7.692  13.226  0.00  0.00    -0.064 C 
ATOM     27  C   UNL     1       5.968  -7.961  13.248  0.00  0.00    +0.066 C 
ENDBRANCH  19  20
ENDBRANCH  18  19
ENDBRANCH  14  15
ENDBRANCH  12  13
TORSDOF 6
ENDMDL
MODEL 4
REMARK VINA RESULT:     -10.7      1.740      2.202
REMARK  Name = C:\Users\Docking\Desktop\test protocol\1iep_ligandH.pdb
REMARK  8 active torsions:
REMARK  status: ('A' for Active; 'I' for Inactive)
REMARK    1  A    between atoms: _5  and  _11
REMARK    2  A    between atoms: _19  and  _21
REMARK    3  A    between atoms: _22  and  _66
REMARK    4  A    between atoms: _27  and  _30
REMARK    5  A    between atoms: _32  and  _33
REMARK    6  A    between atoms: _38  and  _43
REMARK    7  A    between atoms: _43  and  _46
REMARK    8  A    between atoms: _53  and  _55
REMARK                            x       y       z     vdW  Elec       q    Type
REMARK                         _______ _______ _______ _____ _____    ______ ____
ROOT
ATOM     10  C   UNL     1      12.050  -4.868  20.292  0.00  0.00    +0.038 A 
ATOM     11  C   UNL     1      12.083  -3.498  20.656  0.00  0.00    +0.047 A 
ATOM     12  C   UNL     1      13.257  -2.915  21.286  0.00  0.00    +0.035 A 
ATOM     32  C   UNL     1      14.381  -3.757  21.529  0.00  0.00    +0.024 A 
ATOM     33  C   UNL     1      14.364  -5.152  21.166  0.00  0.00    +0.007 A 
ATOM     34  C   UNL     1      13.208  -5.733  20.546  0.00  0.00    -0.029 A 
ATOM     35  C   UNL     1      13.243  -7.236  20.184  0.00  0.00    +0.045 C 
ENDROOT
BRANCH  10   9
ATOM      4  C   UNL     1       9.564  -6.298  16.443  0.00  0.00    +0.077 A 
ATOM      5  C   UNL     1      10.645  -5.982  15.554  0.00  0.00    +0.048 A 
ATOM      6  C   UNL     1      11.821  -5.448  16.126  0.00  0.00    +0.116 A 
ATOM      7  N   UNL     1      11.899  -5.248  17.488  0.00  0.00    -0.223 NA
ATOM      8  C   UNL     1      10.837  -5.561  18.316  0.00  0.00    +0.220 A 
ATOM      9  N   UNL     1      10.896  -5.375  19.689  0.00  0.00    -0.283 N 
ATOM     36  H   UNL     1      10.089  -5.612  20.265  0.00  0.00    +0.155 HD
ATOM     37  N   UNL     1       9.702  -6.071  17.794  0.00  0.00    -0.214 NA
BRANCH   4   3
ATOM      1  C   UNL     1       5.844  -7.505  16.360  0.00  0.00    +0.020 A 
ATOM      2  C   UNL     1       7.082  -6.940  16.847  0.00  0.00    +0.013 A 
ATOM      3  C   UNL     1       8.258  -6.873  15.989  0.00  0.00    +0.019 A 
ATOM     38  C   UNL     1       8.147  -7.388  14.633  0.00  0.00    +0.120 A 
ATOM     39  N   UNL     1       6.943  -7.928  14.192  0.00  0.00    -0.263 NA
ATOM     40  C   UNL     1       5.805  -7.999  15.009  0.00  0.00    +0.111 A 
ENDBRANCH   4   3
ENDBRANCH  10   9
BRANCH  12  13
ATOM     13  N   UNL     1      13.346  -1.532  21.685  0.00  0.00    -0.281 N 
ATOM     14  C   UNL     1      13.044  -0.408  20.934  0.00  0.00    +0.248 C 
ATOM     30  O   UNL     1      12.855  -0.414  19.726  0.00  0.00    -0.270 OA
ATOM     31  H   UNL     1      13.670  -1.361  22.637  0.00  0.00    +0.155 HD
BRANCH  14  15
ATOM     15  C   UNL     1      12.954   0.917  21.620  0.00  0.00    +0.037 A 
ATOM     16  C   UNL     1      11.723   1.710  21.583  0.00  0.00    +0.013 A 
ATOM     17  C   UNL     1      11.668   2.992  22.240  0.00  0.00    +0.005 A 
ATOM     18  C   UNL     1      12.850   3.488  22.940  0.00  0.00    -0.033 A 
ATOM     28  C   UNL     1      14.057   2.679  22.966  0.00  0.00    +0.005 A 
ATOM     29  C   UNL     1      14.115   1.422  22.323  0.00  0.00    +0.013 A 
BRANCH  18  19
ATOM     19  C   UNL     1      12.889   4.855  23.650  0.00  0.00    +0.119 C 
BRANCH  19  20
ATOM     20  N   UNL     1      12.925   6.073  22.787  0.00  0.00    -0.302 NA
ATOM     21  C   UNL     1      13.881   5.909  21.602  0.00  0.00    +0.066 C 
ATOM     22  C   UNL     1      13.889   7.184  20.697  0.00  0.00    -0.064 C 
ATOM     23  N   UNL     1      14.274   8.401  21.540  0.00  0.00    +0.379 N 
ATOM     24  C   UNL     1      14.339   9.592  20.680  0.00  0.00    -0.096 C 
ATOM     25  H   UNL     1      15.297   8.221  21.946  0.00  0.00    -0.082 HD
ATOM     26  C   UNL     1      13.331   8.570  22.722  0.00  0.00    -0.064 C 
ATOM     27  C   UNL     1      13.308   7.286  23.598  0.00  0.00    +0.066 C 
ENDBRANCH  19  20
ENDBRANCH  18  19
ENDBRANCH  14  15
ENDBRANCH  12  13
TORSDOF 6
ENDMDL
MODEL 5
REMARK VINA RESULT:     -10.2      2.264      3.192
REMARK  Name = C:\Users\Docking\Desktop\test protocol\1iep_ligandH.pdb
REMARK  8 active torsions:
REMARK  status: ('A' for Active; 'I' for Inactive)
REMARK    1  A    between atoms: _5  and  _11
REMARK    2  A    between atoms: _19  and  _21
REMARK    3  A    between atoms: _22  and  _66
REMARK    4  A    between atoms: _27  and  _30
REMARK    5  A    between atoms: _32  and  _33
REMARK    6  A    between atoms: _38  and  _43
REMARK    7  A    between atoms: _43  and  _46
REMARK    8  A    between atoms: _53  and  _55
REMARK                            x       y       z     vdW  Elec       q    Type
REMARK                         _______ _______ _______ _____ _____    ______ ____
ROOT
ATOM     10  C   UNL     1      12.509  -3.168  21.226  0.00  0.00    +0.038 A 
ATOM     11  C   UNL     1      12.749  -1.774  21.111  0.00  0.00    +0.047 A 
ATOM     12  C   UNL     1      13.796  -1.125  21.885  0.00  0.00    +0.035 A 
ATOM     32  C   UNL     1      14.582  -1.926  22.763  0.00  0.00    +0.024 A 
ATOM     33  C   UNL     1      14.351  -3.344  22.893  0.00  0.00    +0.007 A 
ATOM     34  C   UNL     1      13.318  -3.989  22.134  0.00  0.00    -0.029 A 
ATOM     35  C   UNL     1      13.111  -5.511  22.318  0.00  0.00    +0.045 C 
ENDROOT
BRANCH  10   9
ATOM      4  C   UNL     1      10.966  -5.734  17.475  0.00  0.00    +0.077 A 
ATOM      5  C   UNL     1      12.300  -5.931  16.985  0.00  0.00    +0.048 A 
ATOM      6  C   UNL     1      13.355  -5.350  17.724  0.00  0.00    +0.116 A 
ATOM      7  N   UNL     1      13.084  -4.627  18.866  0.00  0.00    -0.223 NA
ATOM      8  C   UNL     1      11.786  -4.455  19.309  0.00  0.00    +0.220 A 
ATOM      9  N   UNL     1      11.491  -3.739  20.459  0.00  0.00    -0.283 N 
ATOM     36  H   UNL     1      10.519  -3.628  20.749  0.00  0.00    +0.155 HD
ATOM     37  N   UNL     1      10.761  -4.999  18.621  0.00  0.00    -0.214 NA
BRANCH   4   3
ATOM      1  C   UNL     1       8.524  -7.229  14.810  0.00  0.00    +0.020 A 
ATOM      2  C   UNL     1       9.728  -6.699  15.408  0.00  0.00    +0.013 A 
ATOM      3  C   UNL     1       9.747  -6.289  16.806  0.00  0.00    +0.019 A 
ATOM     38  C   UNL     1       8.522  -6.430  17.579  0.00  0.00    +0.120 A 
ATOM     39  N   UNL     1       7.377  -6.943  16.976  0.00  0.00    -0.263 NA
ATOM     40  C   UNL     1       7.346  -7.339  15.631  0.00  0.00    +0.111 A 
ENDBRANCH   4   3
ENDBRANCH  10   9
BRANCH  12  13
ATOM     13  N   UNL     1      14.081   0.287  21.817  0.00  0.00    -0.281 N 
ATOM     14  C   UNL     1      13.575   1.215  20.921  0.00  0.00    +0.248 C 
ATOM     30  O   UNL     1      12.962   0.930  19.903  0.00  0.00    -0.270 OA
ATOM     31  H   UNL     1      14.734   0.645  22.513  0.00  0.00    +0.155 HD
BRANCH  14  15
ATOM     15  C   UNL     1      13.795   2.669  21.188  0.00  0.00    +0.037 A 
ATOM     16  C   UNL     1      12.829   3.455  21.960  0.00  0.00    +0.013 A 
ATOM     17  C   UNL     1      13.057   4.860  22.188  0.00  0.00    +0.005 A 
ATOM     18  C   UNL     1      14.258   5.488  21.643  0.00  0.00    -0.033 A 
ATOM     28  C   UNL     1      15.202   4.684  20.885  0.00  0.00    +0.005 A 
ATOM     29  C   UNL     1      14.982   3.307  20.659  0.00  0.00    +0.013 A 
BRANCH  18  19
ATOM     19  C   UNL     1      14.572   6.986  21.819  0.00  0.00    +0.119 C 
BRANCH  19  20
ATOM     20  N   UNL     1      13.696   7.957  21.098  0.00  0.00    -0.302 NA
ATOM     21  C   UNL     1      14.424   9.269  20.793  0.00  0.00    +0.066 C 
ATOM     22  C   UNL     1      13.501  10.265  20.018  0.00  0.00    -0.064 C 
ATOM     23  N   UNL     1      12.235  10.525  20.837  0.00  0.00    +0.379 N 
ATOM     24  C   UNL     1      11.391  11.506  20.138  0.00  0.00    -0.096 C 
ATOM     25  H   UNL     1      12.547  10.977  21.807  0.00  0.00    -0.082 HD
ATOM     26  C   UNL     1      11.507   9.225  21.147  0.00  0.00    -0.064 C 
ATOM     27  C   UNL     1      12.442   8.231  21.890  0.00  0.00    +0.066 C 
ENDBRANCH  19  20
ENDBRANCH  18  19
ENDBRANCH  14  15
ENDBRANCH  12  13
TORSDOF 6
ENDMDL
