MODEL 1
REMARK VINA RESULT:      -8.0      0.000      0.000
REMARK  Name = C:\Users\Docking\Desktop\test protocol\1iep_ligandH.pdb
REMARK  8 active torsions:
REMARK  status: ('A' for Active; 'I' for Inactive)
REMARK    1  A    between atoms: _5  and  _11
REMARK    2  A    between atoms: _19  and  _21
REMARK    3  A    between atoms: _22  and  _66
REMARK    4  A    between atoms: _27  and  _30
REMARK    5  A    between atoms: _32  and  _33
REMARK    6  A    between atoms: _38  and  _43
REMARK    7  A    between atoms: _43  and  _46
REMARK    8  A    between atoms: _53  and  _55
REMARK                            x       y       z     vdW  Elec       q    Type
REMARK                         _______ _______ _______ _____ _____    ______ ____
ROOT
ATOM     10  C   UNL     1      48.285  20.837  23.989  0.00  0.00    +0.038 A 
ATOM     11  C   UNL     1      47.679  21.110  22.736  0.00  0.00    +0.047 A 
ATOM     12  C   UNL     1      46.500  21.956  22.639  0.00  0.00    +0.035 A 
ATOM     32  C   UNL     1      45.966  22.510  23.839  0.00  0.00    +0.024 A 
ATOM     33  C   UNL     1      46.568  22.242  25.121  0.00  0.00    +0.007 A 
ATOM     34  C   UNL     1      47.730  21.406  25.223  0.00  0.00    -0.029 A 
ATOM     35  C   UNL     1      48.331  21.148  26.624  0.00  0.00    +0.045 C 
ENDROOT
BRANCH  10   9
ATOM      4  C   UNL     1      53.030  20.158  23.725  0.00  0.00    +0.077 A 
ATOM      5  C   UNL     1      53.274  21.549  23.470  0.00  0.00    +0.048 A 
ATOM      6  C   UNL     1      52.151  22.404  23.407  0.00  0.00    +0.116 A 
ATOM      7  N   UNL     1      50.883  21.896  23.588  0.00  0.00    -0.223 NA
ATOM      8  C   UNL     1      50.682  20.549  23.831  0.00  0.00    +0.220 A 
ATOM      9  N   UNL     1      49.416  20.018  24.024  0.00  0.00    -0.283 N 
ATOM     36  H   UNL     1      49.309  19.018  24.193  0.00  0.00    +0.155 HD
ATOM     37  N   UNL     1      51.738  19.712  23.894  0.00  0.00    -0.214 NA
BRANCH   4   3
ATOM      1  C   UNL     1      56.358  18.178  23.177  0.00  0.00    +0.020 A 
ATOM      2  C   UNL     1      55.342  19.197  23.044  0.00  0.00    +0.013 A 
ATOM      3  C   UNL     1      54.113  19.130  23.824  0.00  0.00    +0.019 A 
ATOM     38  C   UNL     1      53.941  18.010  24.737  0.00  0.00    +0.120 A 
ATOM     39  N   UNL     1      54.936  17.043  24.843  0.00  0.00    -0.263 NA
ATOM     40  C   UNL     1      56.122  17.096  24.096  0.00  0.00    +0.111 A 
ENDBRANCH   4   3
ENDBRANCH  10   9
BRANCH  12  13
ATOM     13  N   UNL     1      45.837  22.262  21.396  0.00  0.00    -0.281 N 
ATOM     14  C   UNL     1      44.734  21.633  20.842  0.00  0.00    +0.248 C 
ATOM     30  O   UNL     1      44.278  20.568  21.230  0.00  0.00    -0.270 OA
ATOM     31  H   UNL     1      46.228  23.037  20.859  0.00  0.00    +0.155 HD
BRANCH  14  15
ATOM     15  C   UNL     1      44.047  22.272  19.678  0.00  0.00    +0.037 A 
ATOM     16  C   UNL     1      42.596  22.170  19.502  0.00  0.00    +0.013 A 
ATOM     17  C   UNL     1      41.961  22.781  18.362  0.00  0.00    +0.005 A 
ATOM     18  C   UNL     1      42.777  23.503  17.389  0.00  0.00    -0.033 A 
ATOM     28  C   UNL     1      44.214  23.594  17.591  0.00  0.00    +0.005 A 
ATOM     29  C   UNL     1      44.840  22.995  18.706  0.00  0.00    +0.013 A 
BRANCH  18  19
ATOM     19  C   UNL     1      42.187  24.168  16.131  0.00  0.00    +0.119 C 
BRANCH  19  20
ATOM     20  N   UNL     1      40.704  24.335  16.078  0.00  0.00    -0.302 NA
ATOM     21  C   UNL     1      40.117  23.838  14.754  0.00  0.00    +0.066 C 
ATOM     22  C   UNL     1      38.562  24.000  14.725  0.00  0.00    -0.064 C 
ATOM     23  N   UNL     1      38.200  25.467  14.961  0.00  0.00    +0.379 N 
ATOM     24  C   UNL     1      36.742  25.633  14.877  0.00  0.00    -0.096 C 
ATOM     25  H   UNL     1      38.657  26.065  14.138  0.00  0.00    -0.082 HD
ATOM     26  C   UNL     1      38.782  25.970  16.275  0.00  0.00    -0.064 C 
ATOM     27  C   UNL     1      40.324  25.778  16.305  0.00  0.00    +0.066 C 
ENDBRANCH  19  20
ENDBRANCH  18  19
ENDBRANCH  14  15
ENDBRANCH  12  13
TORSDOF 6
ENDMDL
MODEL 2
REMARK VINA RESULT:      -7.9      6.933      8.149
REMARK  Name = C:\Users\Docking\Desktop\test protocol\1iep_ligandH.pdb
REMARK  8 active torsions:
REMARK  status: ('A' for Active; 'I' for Inactive)
REMARK    1  A    between atoms: _5  and  _11
REMARK    2  A    between atoms: _19  and  _21
REMARK    3  A    between atoms: _22  and  _66
REMARK    4  A    between atoms: _27  and  _30
REMARK    5  A    between atoms: _32  and  _33
REMARK    6  A    between atoms: _38  and  _43
REMARK    7  A    between atoms: _43  and  _46
REMARK    8  A    between atoms: _53  and  _55
REMARK                            x       y       z     vdW  Elec       q    Type
REMARK                         _______ _______ _______ _____ _____    ______ ____
ROOT
ATOM     10  C   UNL     1      50.288  25.174  17.302  0.00  0.00    +0.038 A 
ATOM     11  C   UNL     1      48.995  24.839  16.827  0.00  0.00    +0.047 A 
ATOM     12  C   UNL     1      47.808  25.099  17.626  0.00  0.00    +0.035 A 
ATOM     32  C   UNL     1      47.975  25.704  18.906  0.00  0.00    +0.024 A 
ATOM     33  C   UNL     1      49.282  26.050  19.406  0.00  0.00    +0.007 A 
ATOM     34  C   UNL     1      50.457  25.794  18.622  0.00  0.00    -0.029 A 
ATOM     35  C   UNL     1      51.833  26.181  19.211  0.00  0.00    +0.045 C 
ENDROOT
BRANCH  10   9
ATOM      4  C   UNL     1      53.753  26.538  14.274  0.00  0.00    +0.077 A 
ATOM      5  C   UNL     1      53.308  27.901  14.286  0.00  0.00    +0.048 A 
ATOM      6  C   UNL     1      52.180  28.209  15.078  0.00  0.00    +0.116 A 
ATOM      7  N   UNL     1      51.551  27.219  15.801  0.00  0.00    -0.223 NA
ATOM      8  C   UNL     1      52.005  25.913  15.767  0.00  0.00    +0.220 A 
ATOM      9  N   UNL     1      51.393  24.903  16.493  0.00  0.00    -0.283 N 
ATOM     36  H   UNL     1      51.754  23.951  16.435  0.00  0.00    +0.155 HD
ATOM     37  N   UNL     1      53.080  25.593  15.017  0.00  0.00    -0.214 NA
BRANCH   4   3
ATOM      1  C   UNL     1      56.205  25.738  11.333  0.00  0.00    +0.020 A 
ATOM      2  C   UNL     1      55.044  26.221  12.045  0.00  0.00    +0.013 A 
ATOM      3  C   UNL     1      54.933  26.056  13.489  0.00  0.00    +0.019 A 
ATOM     38  C   UNL     1      56.024  25.395  14.189  0.00  0.00    +0.120 A 
ATOM     39  N   UNL     1      57.130  24.940  13.477  0.00  0.00    -0.263 NA
ATOM     40  C   UNL     1      57.247  25.091  12.087  0.00  0.00    +0.111 A 
ENDBRANCH   4   3
ENDBRANCH  10   9
BRANCH  12  13
ATOM     13  N   UNL     1      46.470  24.773  17.199  0.00  0.00    -0.281 N 
ATOM     14  C   UNL     1      45.662  23.739  17.644  0.00  0.00    +0.248 C 
ATOM     30  O   UNL     1      46.049  22.804  18.329  0.00  0.00    -0.270 OA
ATOM     31  H   UNL     1      46.070  25.377  16.481  0.00  0.00    +0.155 HD
BRANCH  14  15
ATOM     15  C   UNL     1      44.217  23.737  17.262  0.00  0.00    +0.037 A 
ATOM     16  C   UNL     1      43.210  23.081  18.100  0.00  0.00    +0.013 A 
ATOM     17  C   UNL     1      41.825  23.078  17.699  0.00  0.00    +0.005 A 
ATOM     18  C   UNL     1      41.439  23.736  16.453  0.00  0.00    -0.033 A 
ATOM     28  C   UNL     1      42.458  24.383  15.643  0.00  0.00    +0.005 A 
ATOM     29  C   UNL     1      43.816  24.387  16.033  0.00  0.00    +0.013 A 
BRANCH  18  19
ATOM     19  C   UNL     1      39.989  23.764  15.937  0.00  0.00    +0.119 C 
BRANCH  19  20
ATOM     20  N   UNL     1      39.764  23.391  14.508  0.00  0.00    -0.302 NA
ATOM     21  C   UNL     1      38.698  24.269  13.846  0.00  0.00    +0.066 C 
ATOM     22  C   UNL     1      38.492  23.880  12.346  0.00  0.00    -0.064 C 
ATOM     23  N   UNL     1      38.110  22.402  12.253  0.00  0.00    +0.379 N 
ATOM     24  C   UNL     1      37.858  22.048  10.849  0.00  0.00    -0.096 C 
ATOM     25  H   UNL     1      37.156  22.264  12.813  0.00  0.00    -0.082 HD
ATOM     26  C   UNL     1      39.162  21.522  12.912  0.00  0.00    -0.064 C 
ATOM     27  C   UNL     1      39.381  21.936  14.394  0.00  0.00    +0.066 C 
ENDBRANCH  19  20
ENDBRANCH  18  19
ENDBRANCH  14  15
ENDBRANCH  12  13
TORSDOF 6
ENDMDL
MODEL 3
REMARK VINA RESULT:      -7.8     23.619     28.152
REMARK  Name = C:\Users\Docking\Desktop\test protocol\1iep_ligandH.pdb
REMARK  8 active torsions:
REMARK  status: ('A' for Active; 'I' for Inactive)
REMARK    1  A    between atoms: _5  and  _11
REMARK    2  A    between atoms: _19  and  _21
REMARK    3  A    between atoms: _22  and  _66
REMARK    4  A    between atoms: _27  and  _30
REMARK    5  A    between atoms: _32  and  _33
REMARK    6  A    between atoms: _38  and  _43
REMARK    7  A    between atoms: _43  and  _46
REMARK    8  A    between atoms: _53  and  _55
REMARK                            x       y       z     vdW  Elec       q    Type
REMARK                         _______ _______ _______ _____ _____    ______ ____
ROOT
ATOM     10  C   UNL     1      29.345  19.604   4.438  0.00  0.00    +0.038 A 
ATOM     11  C   UNL     1      29.765  18.891   3.287  0.00  0.00    +0.047 A 
ATOM     12  C   UNL     1      30.908  17.992   3.335  0.00  0.00    +0.035 A 
ATOM     32  C   UNL     1      31.598  17.842   4.573  0.00  0.00    +0.024 A 
ATOM     33  C   UNL     1      31.184  18.560   5.753  0.00  0.00    +0.007 A 
ATOM     34  C   UNL     1      30.059  19.450   5.711  0.00  0.00    -0.029 A 
ATOM     35  C   UNL     1      29.665  20.199   7.005  0.00  0.00    +0.045 C 
ENDROOT
BRANCH  10   9
ATOM      4  C   UNL     1      27.383  23.933   3.764  0.00  0.00    +0.077 A 
ATOM      5  C   UNL     1      28.667  24.559   3.631  0.00  0.00    +0.048 A 
ATOM      6  C   UNL     1      29.807  23.733   3.750  0.00  0.00    +0.116 A 
ATOM      7  N   UNL     1      29.663  22.383   3.984  0.00  0.00    -0.223 NA
ATOM      8  C   UNL     1      28.410  21.811   4.108  0.00  0.00    +0.220 A 
ATOM      9  N   UNL     1      28.241  20.454   4.336  0.00  0.00    -0.283 N 
ATOM     36  H   UNL     1      27.300  20.072   4.429  0.00  0.00    +0.155 HD
ATOM     37  N   UNL     1      27.305  22.578   4.000  0.00  0.00    -0.214 NA
BRANCH   4   3
ATOM      1  C   UNL     1      24.552  26.357   2.576  0.00  0.00    +0.020 A 
ATOM      2  C   UNL     1      25.823  25.672   2.633  0.00  0.00    +0.013 A 
ATOM      3  C   UNL     1      26.085  24.671   3.659  0.00  0.00    +0.019 A 
ATOM     38  C   UNL     1      25.031  24.383   4.620  0.00  0.00    +0.120 A 
ATOM     39  N   UNL     1      23.817  25.058   4.541  0.00  0.00    -0.263 NA
ATOM     40  C   UNL     1      23.554  26.025   3.559  0.00  0.00    +0.111 A 
ENDBRANCH   4   3
ENDBRANCH  10   9
BRANCH  12  13
ATOM     13  N   UNL     1      31.386  17.247   2.197  0.00  0.00    -0.281 N 
ATOM     14  C   UNL     1      32.322  17.641   1.254  0.00  0.00    +0.248 C 
ATOM     30  O   UNL     1      32.734  18.784   1.124  0.00  0.00    -0.270 OA
ATOM     31  H   UNL     1      30.987  16.317   2.071  0.00  0.00    +0.155 HD
BRANCH  14  15
ATOM     15  C   UNL     1      32.867  16.620   0.308  0.00  0.00    +0.037 A 
ATOM     16  C   UNL     1      33.369  17.000  -1.015  0.00  0.00    +0.013 A 
ATOM     17  C   UNL     1      33.874  15.993  -1.914  0.00  0.00    +0.005 A 
ATOM     18  C   UNL     1      33.881  14.595  -1.492  0.00  0.00    -0.033 A 
ATOM     28  C   UNL     1      33.382  14.246  -0.172  0.00  0.00    +0.005 A 
ATOM     29  C   UNL     1      32.885  15.230   0.712  0.00  0.00    +0.013 A 
BRANCH  18  19
ATOM     19  C   UNL     1      34.382  13.452  -2.394  0.00  0.00    +0.119 C 
BRANCH  19  20
ATOM     20  N   UNL     1      33.621  13.191  -3.653  0.00  0.00    -0.302 NA
ATOM     21  C   UNL     1      33.794  11.749  -4.140  0.00  0.00    +0.066 C 
ATOM     22  C   UNL     1      32.974  11.487  -5.445  0.00  0.00    -0.064 C 
ATOM     23  N   UNL     1      33.409  12.480  -6.525  0.00  0.00    +0.379 N 
ATOM     24  C   UNL     1      32.681  12.199  -7.771  0.00  0.00    -0.096 C 
ATOM     25  H   UNL     1      34.493  12.312  -6.721  0.00  0.00    -0.082 HD
ATOM     26  C   UNL     1      33.243  13.916  -6.048  0.00  0.00    -0.064 C 
ATOM     27  C   UNL     1      34.038  14.157  -4.734  0.00  0.00    +0.066 C 
ENDBRANCH  19  20
ENDBRANCH  18  19
ENDBRANCH  14  15
ENDBRANCH  12  13
TORSDOF 6
ENDMDL
MODEL 4
REMARK VINA RESULT:      -7.8     45.718     49.543
REMARK  Name = C:\Users\Docking\Desktop\test protocol\1iep_ligandH.pdb
REMARK  8 active torsions:
REMARK  status: ('A' for Active; 'I' for Inactive)
REMARK    1  A    between atoms: _5  and  _11
REMARK    2  A    between atoms: _19  and  _21
REMARK    3  A    between atoms: _22  and  _66
REMARK    4  A    between atoms: _27  and  _30
REMARK    5  A    between atoms: _32  and  _33
REMARK    6  A    between atoms: _38  and  _43
REMARK    7  A    between atoms: _43  and  _46
REMARK    8  A    between atoms: _53  and  _55
REMARK                            x       y       z     vdW  Elec       q    Type
REMARK                         _______ _______ _______ _____ _____    ______ ____
ROOT
ATOM     10  C   UNL     1       2.271  20.610   0.731  0.00  0.00    +0.038 A 
ATOM     11  C   UNL     1       2.752  20.895  -0.573  0.00  0.00    +0.047 A 
ATOM     12  C   UNL     1       2.827  19.858  -1.590  0.00  0.00    +0.035 A 
ATOM     32  C   UNL     1       2.402  18.542  -1.246  0.00  0.00    +0.024 A 
ATOM     33  C   UNL     1       1.911  18.235   0.075  0.00  0.00    +0.007 A 
ATOM     34  C   UNL     1       1.837  19.253   1.083  0.00  0.00    -0.029 A 
ATOM     35  C   UNL     1       1.310  18.865   2.484  0.00  0.00    +0.045 C 
ENDROOT
BRANCH  10   9
ATOM      4  C   UNL     1       4.377  23.875   3.550  0.00  0.00    +0.077 A 
ATOM      5  C   UNL     1       5.690  23.469   3.140  0.00  0.00    +0.048 A 
ATOM      6  C   UNL     1       5.780  22.411   2.207  0.00  0.00    +0.116 A 
ATOM      7  N   UNL     1       4.636  21.812   1.727  0.00  0.00    -0.223 NA
ATOM      8  C   UNL     1       3.385  22.227   2.144  0.00  0.00    +0.220 A 
ATOM      9  N   UNL     1       2.220  21.644   1.669  0.00  0.00    -0.283 N 
ATOM     36  H   UNL     1       1.317  21.974   2.007  0.00  0.00    +0.155 HD
ATOM     37  N   UNL     1       3.272  23.234   3.035  0.00  0.00    -0.214 NA
BRANCH   4   3
ATOM      1  C   UNL     1       3.990  27.418   5.162  0.00  0.00    +0.020 A 
ATOM      2  C   UNL     1       4.253  26.390   4.182  0.00  0.00    +0.013 A 
ATOM      3  C   UNL     1       4.117  24.980   4.526  0.00  0.00    +0.019 A 
ATOM     38  C   UNL     1       3.709  24.642   5.881  0.00  0.00    +0.120 A 
ATOM     39  N   UNL     1       3.463  25.654   6.804  0.00  0.00    -0.263 NA
ATOM     40  C   UNL     1       3.593  27.014   6.485  0.00  0.00    +0.111 A 
ENDBRANCH   4   3
ENDBRANCH  10   9
BRANCH  12  13
ATOM     13  N   UNL     1       3.314  20.086  -2.928  0.00  0.00    -0.281 N 
ATOM     14  C   UNL     1       4.627  20.089  -3.367  0.00  0.00    +0.248 C 
ATOM     30  O   UNL     1       5.602  20.107  -2.631  0.00  0.00    -0.270 OA
ATOM     31  H   UNL     1       2.603  20.267  -3.637  0.00  0.00    +0.155 HD
BRANCH  14  15
ATOM     15  C   UNL     1       4.897  20.086  -4.838  0.00  0.00    +0.037 A 
ATOM     16  C   UNL     1       6.048  20.795  -5.401  0.00  0.00    +0.013 A 
ATOM     17  C   UNL     1       6.276  20.790  -6.824  0.00  0.00    +0.005 A 
ATOM     18  C   UNL     1       5.349  20.071  -7.695  0.00  0.00    -0.033 A 
ATOM     28  C   UNL     1       4.218  19.371  -7.109  0.00  0.00    +0.005 A 
ATOM     29  C   UNL     1       3.991  19.374  -5.715  0.00  0.00    +0.013 A 
BRANCH  18  19
ATOM     19  C   UNL     1       5.502  20.030  -9.227  0.00  0.00    +0.119 C 
BRANCH  19  20
ATOM     20  N   UNL     1       4.527  19.194  -9.989  0.00  0.00    -0.302 NA
ATOM     21  C   UNL     1       5.062  17.783 -10.251  0.00  0.00    +0.066 C 
ATOM     22  C   UNL     1       4.020  16.915 -11.029  0.00  0.00    -0.064 C 
ATOM     23  N   UNL     1       3.662  17.611 -12.344  0.00  0.00    +0.379 N 
ATOM     24  C   UNL     1       2.727  16.769 -13.105  0.00  0.00    -0.096 C 
ATOM     25  H   UNL     1       4.597  17.704 -12.943  0.00  0.00    -0.082 HD
ATOM     26  C   UNL     1       3.132  19.015 -12.093  0.00  0.00    -0.064 C 
ATOM     27  C   UNL     1       4.163  19.860 -11.293  0.00  0.00    +0.066 C 
ENDBRANCH  19  20
ENDBRANCH  18  19
ENDBRANCH  14  15
ENDBRANCH  12  13
TORSDOF 6
ENDMDL
MODEL 5
REMARK VINA RESULT:      -7.7      4.186     15.010
REMARK  Name = C:\Users\Docking\Desktop\test protocol\1iep_ligandH.pdb
REMARK  8 active torsions:
REMARK  status: ('A' for Active; 'I' for Inactive)
REMARK    1  A    between atoms: _5  and  _11
REMARK    2  A    between atoms: _19  and  _21
REMARK    3  A    between atoms: _22  and  _66
REMARK    4  A    between atoms: _27  and  _30
REMARK    5  A    between atoms: _32  and  _33
REMARK    6  A    between atoms: _38  and  _43
REMARK    7  A    between atoms: _43  and  _46
REMARK    8  A    between atoms: _53  and  _55
REMARK                            x       y       z     vdW  Elec       q    Type
REMARK                         _______ _______ _______ _____ _____    ______ ____
ROOT
ATOM     10  C   UNL     1      39.123  24.516  13.885  0.00  0.00    +0.038 A 
ATOM     11  C   UNL     1      40.194  23.945  14.617  0.00  0.00    +0.047 A 
ATOM     12  C   UNL     1      40.134  23.819  16.065  0.00  0.00    +0.035 A 
ATOM     32  C   UNL     1      38.964  24.284  16.735  0.00  0.00    +0.024 A 
ATOM     33  C   UNL     1      37.866  24.868  16.006  0.00  0.00    +0.007 A 
ATOM     34  C   UNL     1      37.921  24.996  14.578  0.00  0.00    -0.029 A 
ATOM     35  C   UNL     1      36.717  25.636  13.849  0.00  0.00    +0.045 C 
ENDROOT
BRANCH  10   9
ATOM      4  C   UNL     1      38.879  22.627   9.479  0.00  0.00    +0.077 A 
ATOM      5  C   UNL     1      38.526  21.333   9.989  0.00  0.00    +0.048 A 
ATOM      6  C   UNL     1      38.424  21.194  11.391  0.00  0.00    +0.116 A 
ATOM      7  N   UNL     1      38.660  22.275  12.213  0.00  0.00    -0.223 NA
ATOM      8  C   UNL     1      39.000  23.509  11.688  0.00  0.00    +0.220 A 
ATOM      9  N   UNL     1      39.234  24.611  12.496  0.00  0.00    -0.283 N 
ATOM     36  H   UNL     1      39.490  25.502  12.071  0.00  0.00    +0.155 HD
ATOM     37  N   UNL     1      39.105  23.667  10.353  0.00  0.00    -0.214 NA
BRANCH   4   3
ATOM      1  C   UNL     1      39.549  22.283   5.640  0.00  0.00    +0.020 A 
ATOM      2  C   UNL     1      39.426  21.936   7.037  0.00  0.00    +0.013 A 
ATOM      3  C   UNL     1      39.022  22.933   8.020  0.00  0.00    +0.019 A 
ATOM     38  C   UNL     1      38.747  24.283   7.553  0.00  0.00    +0.120 A 
ATOM     39  N   UNL     1      38.875  24.589   6.202  0.00  0.00    -0.263 NA
ATOM     40  C   UNL     1      39.265  23.638   5.247  0.00  0.00    +0.111 A 
ENDBRANCH   4   3
ENDBRANCH  10   9
BRANCH  12  13
ATOM     13  N   UNL     1      41.194  23.256  16.863  0.00  0.00    -0.281 N 
ATOM     14  C   UNL     1      42.488  23.727  17.015  0.00  0.00    +0.248 C 
ATOM     30  O   UNL     1      42.996  24.591  16.315  0.00  0.00    -0.270 OA
ATOM     31  H   UNL     1      40.963  22.406  17.378  0.00  0.00    +0.155 HD
BRANCH  14  15
ATOM     15  C   UNL     1      43.347  23.144  18.090  0.00  0.00    +0.037 A 
ATOM     16  C   UNL     1      44.802  23.321  18.081  0.00  0.00    +0.013 A 
ATOM     17  C   UNL     1      45.609  22.734  19.121  0.00  0.00    +0.005 A 
ATOM     18  C   UNL     1      44.962  21.964  20.181  0.00  0.00    -0.033 A 
ATOM     28  C   UNL     1      43.516  21.808  20.168  0.00  0.00    +0.005 A 
ATOM     29  C   UNL     1      42.722  22.381  19.150  0.00  0.00    +0.013 A 
BRANCH  18  19
ATOM     19  C   UNL     1      45.746  21.284  21.319  0.00  0.00    +0.119 C 
BRANCH  19  20
ATOM     20  N   UNL     1      46.459  22.173  22.284  0.00  0.00    -0.302 NA
ATOM     21  C   UNL     1      47.544  21.424  23.062  0.00  0.00    +0.066 C 
ATOM     22  C   UNL     1      48.295  22.374  24.050  0.00  0.00    -0.064 C 
ATOM     23  N   UNL     1      47.285  23.011  25.007  0.00  0.00    +0.379 N 
ATOM     24  C   UNL     1      47.995  23.860  25.975  0.00  0.00    -0.096 C 
ATOM     25  H   UNL     1      46.793  22.188  25.575  0.00  0.00    -0.082 HD
ATOM     26  C   UNL     1      46.201  23.756  24.241  0.00  0.00    -0.064 C 
ATOM     27  C   UNL     1      45.481  22.810  23.240  0.00  0.00    +0.066 C 
ENDBRANCH  19  20
ENDBRANCH  18  19
ENDBRANCH  14  15
ENDBRANCH  12  13
TORSDOF 6
ENDMDL
