MODEL 1
REMARK VINA RESULT:      -9.8      0.000      0.000
REMARK  Name = C:\Users\Docking\Desktop\test protocol\1iep_ligandH.pdb
REMARK  8 active torsions:
REMARK  status: ('A' for Active; 'I' for Inactive)
REMARK    1  A    between atoms: _5  and  _11
REMARK    2  A    between atoms: _19  and  _21
REMARK    3  A    between atoms: _22  and  _66
REMARK    4  A    between atoms: _27  and  _30
REMARK    5  A    between atoms: _32  and  _33
REMARK    6  A    between atoms: _38  and  _43
REMARK    7  A    between atoms: _43  and  _46
REMARK    8  A    between atoms: _53  and  _55
REMARK                            x       y       z     vdW  Elec       q    Type
REMARK                         _______ _______ _______ _____ _____    ______ ____
ROOT
ATOM     10  C   UNL     1      25.695  25.413   4.153  0.00  0.00    +0.038 A 
ATOM     11  C   UNL     1      27.084  25.201   4.344  0.00  0.00    +0.047 A 
ATOM     12  C   UNL     1      28.046  25.530   3.303  0.00  0.00    +0.035 A 
ATOM     32  C   UNL     1      27.557  26.077   2.081  0.00  0.00    +0.024 A 
ATOM     33  C   UNL     1      26.149  26.299   1.869  0.00  0.00    +0.007 A 
ATOM     34  C   UNL     1      25.195  25.973   2.891  0.00  0.00    -0.029 A 
ATOM     35  C   UNL     1      23.696  26.226   2.607  0.00  0.00    +0.045 C 
ENDROOT
BRANCH  10   9
ATOM      4  C   UNL     1      23.072  22.237   6.617  0.00  0.00    +0.077 A 
ATOM      5  C   UNL     1      23.465  21.157   5.758  0.00  0.00    +0.048 A 
ATOM      6  C   UNL     1      24.338  21.462   4.689  0.00  0.00    +0.116 A 
ATOM      7  N   UNL     1      24.778  22.755   4.503  0.00  0.00    -0.223 NA
ATOM      8  C   UNL     1      24.379  23.773   5.349  0.00  0.00    +0.220 A 
ATOM      9  N   UNL     1      24.816  25.079   5.185  0.00  0.00    -0.283 N 
ATOM     36  H   UNL     1      24.492  25.803   5.826  0.00  0.00    +0.155 HD
ATOM     37  N   UNL     1      23.545  23.507   6.376  0.00  0.00    -0.214 NA
BRANCH   4   3
ATOM      1  C   UNL     1      21.607  22.287  10.243  0.00  0.00    +0.020 A 
ATOM      2  C   UNL     1      22.528  22.467   9.144  0.00  0.00    +0.013 A 
ATOM      3  C   UNL     1      22.158  22.072   7.791  0.00  0.00    +0.019 A 
ATOM     38  C   UNL     1      20.839  21.495   7.582  0.00  0.00    +0.120 A 
ATOM     39  N   UNL     1      19.974  21.332   8.659  0.00  0.00    -0.263 NA
ATOM     40  C   UNL     1      20.319  21.707   9.966  0.00  0.00    +0.111 A 
ENDBRANCH   4   3
ENDBRANCH  10   9
BRANCH  12  13
ATOM     13  N   UNL     1      29.467  25.329   3.437  0.00  0.00    -0.281 N 
ATOM     14  C   UNL     1      30.186  24.165   3.222  0.00  0.00    +0.248 C 
ATOM     30  O   UNL     1      29.686  23.058   3.088  0.00  0.00    -0.270 OA
ATOM     31  H   UNL     1      30.009  26.144   3.725  0.00  0.00    +0.155 HD
BRANCH  14  15
ATOM     15  C   UNL     1      31.678  24.238   3.162  0.00  0.00    +0.037 A 
ATOM     16  C   UNL     1      32.468  23.166   2.551  0.00  0.00    +0.013 A 
ATOM     17  C   UNL     1      33.906  23.254   2.522  0.00  0.00    +0.005 A 
ATOM     18  C   UNL     1      34.564  24.421   3.104  0.00  0.00    -0.033 A 
ATOM     28  C   UNL     1      33.756  25.473   3.699  0.00  0.00    +0.005 A 
ATOM     29  C   UNL     1      32.346  25.389   3.731  0.00  0.00    +0.013 A 
BRANCH  18  19
ATOM     19  C   UNL     1      36.095  24.589   3.136  0.00  0.00    +0.119 C 
BRANCH  19  20
ATOM     20  N   UNL     1      36.638  25.957   2.883  0.00  0.00    -0.302 NA
ATOM     21  C   UNL     1      37.027  26.158   1.416  0.00  0.00    +0.066 C 
ATOM     22  C   UNL     1      37.573  27.602   1.165  0.00  0.00    -0.064 C 
ATOM     23  N   UNL     1      38.769  27.859   2.083  0.00  0.00    +0.379 N 
ATOM     24  C   UNL     1      39.320  29.194   1.808  0.00  0.00    -0.096 C 
ATOM     25  H   UNL     1      39.555  27.110   1.831  0.00  0.00    -0.082 HD
ATOM     26  C   UNL     1      38.392  27.658   3.544  0.00  0.00    -0.064 C 
ATOM     27  C   UNL     1      37.824  26.230   3.776  0.00  0.00    +0.066 C 
ENDBRANCH  19  20
ENDBRANCH  18  19
ENDBRANCH  14  15
ENDBRANCH  12  13
TORSDOF 6
ENDMDL
MODEL 2
REMARK VINA RESULT:      -9.5      2.419      3.385
REMARK  Name = C:\Users\Docking\Desktop\test protocol\1iep_ligandH.pdb
REMARK  8 active torsions:
REMARK  status: ('A' for Active; 'I' for Inactive)
REMARK    1  A    between atoms: _5  and  _11
REMARK    2  A    between atoms: _19  and  _21
REMARK    3  A    between atoms: _22  and  _66
REMARK    4  A    between atoms: _27  and  _30
REMARK    5  A    between atoms: _32  and  _33
REMARK    6  A    between atoms: _38  and  _43
REMARK    7  A    between atoms: _43  and  _46
REMARK    8  A    between atoms: _53  and  _55
REMARK                            x       y       z     vdW  Elec       q    Type
REMARK                         _______ _______ _______ _____ _____    ______ ____
ROOT
ATOM     10  C   UNL     1      26.087  25.223   3.899  0.00  0.00    +0.038 A 
ATOM     11  C   UNL     1      27.443  24.807   3.918  0.00  0.00    +0.047 A 
ATOM     12  C   UNL     1      28.322  25.054   2.785  0.00  0.00    +0.035 A 
ATOM     32  C   UNL     1      27.786  25.730   1.649  0.00  0.00    +0.024 A 
ATOM     33  C   UNL     1      26.410  26.157   1.613  0.00  0.00    +0.007 A 
ATOM     34  C   UNL     1      25.538  25.914   2.726  0.00  0.00    -0.029 A 
ATOM     35  C   UNL     1      24.070  26.390   2.629  0.00  0.00    +0.045 C 
ENDROOT
BRANCH  10   9
ATOM      4  C   UNL     1      23.552  22.246   6.682  0.00  0.00    +0.077 A 
ATOM      5  C   UNL     1      23.819  21.125   5.828  0.00  0.00    +0.048 A 
ATOM      6  C   UNL     1      24.607  21.358   4.679  0.00  0.00    +0.116 A 
ATOM      7  N   UNL     1      25.087  22.622   4.413  0.00  0.00    -0.223 NA
ATOM      8  C   UNL     1      24.810  23.682   5.257  0.00  0.00    +0.220 A 
ATOM      9  N   UNL     1      25.289  24.960   5.014  0.00  0.00    -0.283 N 
ATOM     36  H   UNL     1      25.056  25.716   5.657  0.00  0.00    +0.155 HD
ATOM     37  N   UNL     1      24.058  23.485   6.361  0.00  0.00    -0.214 NA
BRANCH   4   3
ATOM      1  C   UNL     1      22.458  22.337  10.437  0.00  0.00    +0.020 A 
ATOM      2  C   UNL     1      23.287  22.435   9.258  0.00  0.00    +0.013 A 
ATOM      3  C   UNL     1      22.738  22.158   7.936  0.00  0.00    +0.019 A 
ATOM     38  C   UNL     1      21.336  21.782   7.841  0.00  0.00    +0.120 A 
ATOM     39  N   UNL     1      20.562  21.694   8.994  0.00  0.00    -0.263 NA
ATOM     40  C   UNL     1      21.079  21.957  10.271  0.00  0.00    +0.111 A 
ENDBRANCH   4   3
ENDBRANCH  10   9
BRANCH  12  13
ATOM     13  N   UNL     1      29.705  24.649   2.744  0.00  0.00    -0.281 N 
ATOM     14  C   UNL     1      30.828  25.429   2.963  0.00  0.00    +0.248 C 
ATOM     30  O   UNL     1      30.821  26.650   3.019  0.00  0.00    -0.270 OA
ATOM     31  H   UNL     1      29.877  23.667   2.526  0.00  0.00    +0.155 HD
BRANCH  14  15
ATOM     15  C   UNL     1      32.153  24.758   3.131  0.00  0.00    +0.037 A 
ATOM     16  C   UNL     1      33.248  25.407   3.856  0.00  0.00    +0.013 A 
ATOM     17  C   UNL     1      34.521  24.744   3.988  0.00  0.00    +0.005 A 
ATOM     18  C   UNL     1      34.705  23.422   3.395  0.00  0.00    -0.033 A 
ATOM     28  C   UNL     1      33.600  22.798   2.686  0.00  0.00    +0.005 A 
ATOM     29  C   UNL     1      32.351  23.446   2.553  0.00  0.00    +0.013 A 
BRANCH  18  19
ATOM     19  C   UNL     1      36.035  22.650   3.469  0.00  0.00    +0.119 C 
BRANCH  19  20
ATOM     20  N   UNL     1      36.490  22.198   4.818  0.00  0.00    -0.302 NA
ATOM     21  C   UNL     1      37.550  23.131   5.409  0.00  0.00    +0.066 C 
ATOM     22  C   UNL     1      37.998  22.656   6.830  0.00  0.00    -0.064 C 
ATOM     23  N   UNL     1      38.526  21.223   6.743  0.00  0.00    +0.379 N 
ATOM     24  C   UNL     1      39.001  20.794   8.066  0.00  0.00    -0.096 C 
ATOM     25  H   UNL     1      39.402  21.227   6.053  0.00  0.00    -0.082 HD
ATOM     26  C   UNL     1      37.478  20.289   6.153  0.00  0.00    -0.064 C 
ATOM     27  C   UNL     1      37.019  20.786   4.754  0.00  0.00    +0.066 C 
ENDBRANCH  19  20
ENDBRANCH  18  19
ENDBRANCH  14  15
ENDBRANCH  12  13
TORSDOF 6
ENDMDL
MODEL 3
REMARK VINA RESULT:      -8.9      6.303      8.252
REMARK  Name = C:\Users\Docking\Desktop\test protocol\1iep_ligandH.pdb
REMARK  8 active torsions:
REMARK  status: ('A' for Active; 'I' for Inactive)
REMARK    1  A    between atoms: _5  and  _11
REMARK    2  A    between atoms: _19  and  _21
REMARK    3  A    between atoms: _22  and  _66
REMARK    4  A    between atoms: _27  and  _30
REMARK    5  A    between atoms: _32  and  _33
REMARK    6  A    between atoms: _38  and  _43
REMARK    7  A    between atoms: _43  and  _46
REMARK    8  A    between atoms: _53  and  _55
REMARK                            x       y       z     vdW  Elec       q    Type
REMARK                         _______ _______ _______ _____ _____    ______ ____
ROOT
ATOM     10  C   UNL     1      25.733  22.595   4.616  0.00  0.00    +0.038 A 
ATOM     11  C   UNL     1      26.502  21.410   4.500  0.00  0.00    +0.047 A 
ATOM     12  C   UNL     1      27.794  21.413   3.832  0.00  0.00    +0.035 A 
ATOM     32  C   UNL     1      28.274  22.644   3.295  0.00  0.00    +0.024 A 
ATOM     33  C   UNL     1      27.504  23.858   3.402  0.00  0.00    +0.007 A 
ATOM     34  C   UNL     1      26.228  23.860   4.058  0.00  0.00    -0.029 A 
ATOM     35  C   UNL     1      25.443  25.190   4.139  0.00  0.00    +0.045 C 
ENDROOT
BRANCH  10   9
ATOM      4  C   UNL     1      23.005  21.556   8.426  0.00  0.00    +0.077 A 
ATOM      5  C   UNL     1      24.130  21.068   9.172  0.00  0.00    +0.048 A 
ATOM      6  C   UNL     1      25.391  21.095   8.536  0.00  0.00    +0.116 A 
ATOM      7  N   UNL     1      25.508  21.577   7.250  0.00  0.00    -0.223 NA
ATOM      8  C   UNL     1      24.403  22.038   6.558  0.00  0.00    +0.220 A 
ATOM      9  N   UNL     1      24.499  22.534   5.267  0.00  0.00    -0.283 N 
ATOM     36  H   UNL     1      23.659  22.859   4.788  0.00  0.00    +0.155 HD
ATOM     37  N   UNL     1      23.187  22.022   7.143  0.00  0.00    -0.214 NA
BRANCH   4   3
ATOM      1  C   UNL     1      19.900  22.223  10.709  0.00  0.00    +0.020 A 
ATOM      2  C   UNL     1      21.266  22.212  10.237  0.00  0.00    +0.013 A 
ATOM      3  C   UNL     1      21.608  21.595   8.962  0.00  0.00    +0.019 A 
ATOM     38  C   UNL     1      20.537  20.994   8.182  0.00  0.00    +0.120 A 
ATOM     39  N   UNL     1      19.231  21.019   8.662  0.00  0.00    -0.263 NA
ATOM     40  C   UNL     1      18.890  21.608   9.889  0.00  0.00    +0.111 A 
ENDBRANCH   4   3
ENDBRANCH  10   9
BRANCH  12  13
ATOM     13  N   UNL     1      28.617  20.239   3.677  0.00  0.00    -0.281 N 
ATOM     14  C   UNL     1      29.781  19.919   4.356  0.00  0.00    +0.248 C 
ATOM     30  O   UNL     1      30.411  20.700   5.053  0.00  0.00    -0.270 OA
ATOM     31  H   UNL     1      28.302  19.561   2.983  0.00  0.00    +0.155 HD
BRANCH  14  15
ATOM     15  C   UNL     1      30.333  18.536   4.232  0.00  0.00    +0.037 A 
ATOM     16  C   UNL     1      30.734  17.992   2.932  0.00  0.00    +0.013 A 
ATOM     17  C   UNL     1      31.247  16.648   2.837  0.00  0.00    +0.005 A 
ATOM     18  C   UNL     1      31.363  15.839   4.048  0.00  0.00    -0.033 A 
ATOM     28  C   UNL     1      30.962  16.405   5.325  0.00  0.00    +0.005 A 
ATOM     29  C   UNL     1      30.458  17.721   5.422  0.00  0.00    +0.013 A 
BRANCH  18  19
ATOM     19  C   UNL     1      31.880  14.388   4.038  0.00  0.00    +0.119 C 
BRANCH  19  20
ATOM     20  N   UNL     1      32.510  13.878   5.292  0.00  0.00    -0.302 NA
ATOM     21  C   UNL     1      33.758  13.038   5.008  0.00  0.00    +0.066 C 
ATOM     22  C   UNL     1      34.418  12.532   6.332  0.00  0.00    -0.064 C 
ATOM     23  N   UNL     1      33.393  11.726   7.133  0.00  0.00    +0.379 N 
ATOM     24  C   UNL     1      34.027  11.199   8.350  0.00  0.00    -0.096 C 
ATOM     25  H   UNL     1      33.085  10.855   6.508  0.00  0.00    -0.082 HD
ATOM     26  C   UNL     1      32.148  12.553   7.418  0.00  0.00    -0.064 C 
ATOM     27  C   UNL     1      31.517  13.076   6.097  0.00  0.00    +0.066 C 
ENDBRANCH  19  20
ENDBRANCH  18  19
ENDBRANCH  14  15
ENDBRANCH  12  13
TORSDOF 6
ENDMDL
MODEL 4
REMARK VINA RESULT:      -8.2      6.090      7.785
REMARK  Name = C:\Users\Docking\Desktop\test protocol\1iep_ligandH.pdb
REMARK  8 active torsions:
REMARK  status: ('A' for Active; 'I' for Inactive)
REMARK    1  A    between atoms: _5  and  _11
REMARK    2  A    between atoms: _19  and  _21
REMARK    3  A    between atoms: _22  and  _66
REMARK    4  A    between atoms: _27  and  _30
REMARK    5  A    between atoms: _32  and  _33
REMARK    6  A    between atoms: _38  and  _43
REMARK    7  A    between atoms: _43  and  _46
REMARK    8  A    between atoms: _53  and  _55
REMARK                            x       y       z     vdW  Elec       q    Type
REMARK                         _______ _______ _______ _____ _____    ______ ____
ROOT
ATOM     10  C   UNL     1      27.274  22.568   3.565  0.00  0.00    +0.038 A 
ATOM     11  C   UNL     1      27.951  21.406   3.115  0.00  0.00    +0.047 A 
ATOM     12  C   UNL     1      29.332  21.469   2.660  0.00  0.00    +0.035 A 
ATOM     32  C   UNL     1      29.992  22.732   2.679  0.00  0.00    +0.024 A 
ATOM     33  C   UNL     1      29.318  23.923   3.133  0.00  0.00    +0.007 A 
ATOM     34  C   UNL     1      27.956  23.868   3.580  0.00  0.00    -0.029 A 
ATOM     35  C   UNL     1      27.281  25.178   4.049  0.00  0.00    +0.045 C 
ENDROOT
BRANCH  10   9
ATOM      4  C   UNL     1      23.966  21.310   6.808  0.00  0.00    +0.077 A 
ATOM      5  C   UNL     1      24.960  20.822   7.720  0.00  0.00    +0.048 A 
ATOM      6  C   UNL     1      26.311  20.907   7.313  0.00  0.00    +0.116 A 
ATOM      7  N   UNL     1      26.632  21.441   6.084  0.00  0.00    -0.223 NA
ATOM      8  C   UNL     1      25.648  21.901   5.228  0.00  0.00    +0.220 A 
ATOM      9  N   UNL     1      25.949  22.450   3.991  0.00  0.00    -0.283 N 
ATOM     36  H   UNL     1      25.194  22.771   3.385  0.00  0.00    +0.155 HD
ATOM     37  N   UNL     1      24.351  21.831   5.592  0.00  0.00    -0.214 NA
BRANCH   4   3
ATOM      1  C   UNL     1      20.078  21.370   6.382  0.00  0.00    +0.020 A 
ATOM      2  C   UNL     1      21.484  21.392   6.051  0.00  0.00    +0.013 A 
ATOM      3  C   UNL     1      22.497  21.293   7.095  0.00  0.00    +0.019 A 
ATOM     38  C   UNL     1      22.049  21.169   8.474  0.00  0.00    +0.120 A 
ATOM     39  N   UNL     1      20.688  21.152   8.762  0.00  0.00    -0.263 NA
ATOM     40  C   UNL     1      19.705  21.249   7.766  0.00  0.00    +0.111 A 
ENDBRANCH   4   3
ENDBRANCH  10   9
BRANCH  12  13
ATOM     13  N   UNL     1      30.069  20.325   2.184  0.00  0.00    -0.281 N 
ATOM     14  C   UNL     1      31.140  19.690   2.790  0.00  0.00    +0.248 C 
ATOM     30  O   UNL     1      31.768  20.144   3.736  0.00  0.00    -0.270 OA
ATOM     31  H   UNL     1      29.763  19.936   1.292  0.00  0.00    +0.155 HD
BRANCH  14  15
ATOM     15  C   UNL     1      31.589  18.367   2.261  0.00  0.00    +0.037 A 
ATOM     16  C   UNL     1      31.557  17.163   3.096  0.00  0.00    +0.013 A 
ATOM     17  C   UNL     1      32.012  15.902   2.566  0.00  0.00    +0.005 A 
ATOM     18  C   UNL     1      32.502  15.839   1.191  0.00  0.00    -0.033 A 
ATOM     28  C   UNL     1      32.519  17.047   0.383  0.00  0.00    +0.005 A 
ATOM     29  C   UNL     1      32.074  18.285   0.900  0.00  0.00    +0.013 A 
BRANCH  18  19
ATOM     19  C   UNL     1      33.027  14.540   0.549  0.00  0.00    +0.119 C 
BRANCH  19  20
ATOM     20  N   UNL     1      33.502  14.620  -0.864  0.00  0.00    -0.302 NA
ATOM     21  C   UNL     1      32.712  13.689  -1.789  0.00  0.00    +0.066 C 
ATOM     22  C   UNL     1      33.207  13.802  -3.268  0.00  0.00    -0.064 C 
ATOM     23  N   UNL     1      34.702  13.483  -3.327  0.00  0.00    +0.379 N 
ATOM     24  C   UNL     1      35.158  13.531  -4.724  0.00  0.00    -0.096 C 
ATOM     25  H   UNL     1      34.839  12.439  -2.962  0.00  0.00    -0.082 HD
ATOM     26  C   UNL     1      35.494  14.402  -2.409  0.00  0.00    -0.064 C 
ATOM     27  C   UNL     1      34.975  14.305  -0.947  0.00  0.00    +0.066 C 
ENDBRANCH  19  20
ENDBRANCH  18  19
ENDBRANCH  14  15
ENDBRANCH  12  13
TORSDOF 6
ENDMDL
MODEL 5
REMARK VINA RESULT:      -8.0      6.648     13.426
REMARK  Name = C:\Users\Docking\Desktop\test protocol\1iep_ligandH.pdb
REMARK  8 active torsions:
REMARK  status: ('A' for Active; 'I' for Inactive)
REMARK    1  A    between atoms: _5  and  _11
REMARK    2  A    between atoms: _19  and  _21
REMARK    3  A    between atoms: _22  and  _66
REMARK    4  A    between atoms: _27  and  _30
REMARK    5  A    between atoms: _32  and  _33
REMARK    6  A    between atoms: _38  and  _43
REMARK    7  A    between atoms: _43  and  _46
REMARK    8  A    between atoms: _53  and  _55
REMARK                            x       y       z     vdW  Elec       q    Type
REMARK                         _______ _______ _______ _____ _____    ______ ____
ROOT
ATOM     10  C   UNL     1      31.577  18.729   1.928  0.00  0.00    +0.038 A 
ATOM     11  C   UNL     1      30.237  18.970   2.323  0.00  0.00    +0.047 A 
ATOM     12  C   UNL     1      29.838  20.247   2.894  0.00  0.00    +0.035 A 
ATOM     32  C   UNL     1      30.830  21.259   3.045  0.00  0.00    +0.024 A 
ATOM     33  C   UNL     1      32.198  21.031   2.650  0.00  0.00    +0.007 A 
ATOM     34  C   UNL     1      32.598  19.772   2.089  0.00  0.00    -0.029 A 
ATOM     35  C   UNL     1      34.079  19.582   1.688  0.00  0.00    +0.045 C 
ENDROOT
BRANCH  10   9
ATOM      4  C   UNL     1      32.606  14.061   2.362  0.00  0.00    +0.077 A 
ATOM      5  C   UNL     1      32.510  14.113   3.792  0.00  0.00    +0.048 A 
ATOM      6  C   UNL     1      32.200  15.361   4.378  0.00  0.00    +0.116 A 
ATOM      7  N   UNL     1      32.004  16.469   3.582  0.00  0.00    -0.223 NA
ATOM      8  C   UNL     1      32.106  16.385   2.205  0.00  0.00    +0.220 A 
ATOM      9  N   UNL     1      31.905  17.485   1.385  0.00  0.00    -0.283 N 
ATOM     36  H   UNL     1      31.997  17.384   0.375  0.00  0.00    +0.155 HD
ATOM     37  N   UNL     1      32.402  15.205   1.622  0.00  0.00    -0.214 NA
BRANCH   4   3
ATOM      1  C   UNL     1      32.943  10.308   1.314  0.00  0.00    +0.020 A 
ATOM      2  C   UNL     1      32.617  11.480   2.094  0.00  0.00    +0.013 A 
ATOM      3  C   UNL     1      32.923  12.815   1.596  0.00  0.00    +0.019 A 
ATOM     38  C   UNL     1      33.563  12.930   0.294  0.00  0.00    +0.120 A 
ATOM     39  N   UNL     1      33.867  11.784  -0.434  0.00  0.00    -0.263 NA
ATOM     40  C   UNL     1      33.579  10.494   0.036  0.00  0.00    +0.111 A 
ENDBRANCH   4   3
ENDBRANCH  10   9
BRANCH  12  13
ATOM     13  N   UNL     1      28.493  20.546   3.321  0.00  0.00    -0.281 N 
ATOM     14  C   UNL     1      28.042  20.782   4.609  0.00  0.00    +0.248 C 
ATOM     30  O   UNL     1      28.691  20.561   5.621  0.00  0.00    -0.270 OA
ATOM     31  H   UNL     1      27.789  20.588   2.584  0.00  0.00    +0.155 HD
BRANCH  14  15
ATOM     15  C   UNL     1      26.665  21.330   4.802  0.00  0.00    +0.037 A 
ATOM     16  C   UNL     1      26.358  22.734   4.514  0.00  0.00    +0.013 A 
ATOM     17  C   UNL     1      25.025  23.241   4.725  0.00  0.00    +0.005 A 
ATOM     18  C   UNL     1      23.988  22.342   5.226  0.00  0.00    -0.033 A 
ATOM     28  C   UNL     1      24.318  20.953   5.499  0.00  0.00    +0.005 A 
ATOM     29  C   UNL     1      25.624  20.453   5.294  0.00  0.00    +0.013 A 
BRANCH  18  19
ATOM     19  C   UNL     1      22.544  22.802   5.501  0.00  0.00    +0.119 C 
BRANCH  19  20
ATOM     20  N   UNL     1      21.765  22.037   6.520  0.00  0.00    -0.302 NA
ATOM     21  C   UNL     1      20.264  22.041   6.216  0.00  0.00    +0.066 C 
ATOM     22  C   UNL     1      19.466  21.217   7.279  0.00  0.00    -0.064 C 
ATOM     23  N   UNL     1      19.739  21.788   8.672  0.00  0.00    +0.379 N 
ATOM     24  C   UNL     1      18.945  21.053   9.667  0.00  0.00    -0.096 C 
ATOM     25  H   UNL     1      19.391  22.847   8.677  0.00  0.00    -0.082 HD
ATOM     26  C   UNL     1      21.229  21.791   8.981  0.00  0.00    -0.064 C 
ATOM     27  C   UNL     1      22.016  22.587   7.902  0.00  0.00    +0.066 C 
ENDBRANCH  19  20
ENDBRANCH  18  19
ENDBRANCH  14  15
ENDBRANCH  12  13
TORSDOF 6
ENDMDL
