MODEL 1
REMARK VINA RESULT:      -9.7      0.000      0.000
REMARK  Name = C:\Users\Docking\Desktop\test protocol\1iep_ligandH.pdb
REMARK  8 active torsions:
REMARK  status: ('A' for Active; 'I' for Inactive)
REMARK    1  A    between atoms: _5  and  _11
REMARK    2  A    between atoms: _19  and  _21
REMARK    3  A    between atoms: _22  and  _66
REMARK    4  A    between atoms: _27  and  _30
REMARK    5  A    between atoms: _32  and  _33
REMARK    6  A    between atoms: _38  and  _43
REMARK    7  A    between atoms: _43  and  _46
REMARK    8  A    between atoms: _53  and  _55
REMARK                            x       y       z     vdW  Elec       q    Type
REMARK                         _______ _______ _______ _____ _____    ______ ____
ROOT
ATOM     10  C   UNL     1      25.681  25.417   4.184  0.00  0.00    +0.038 A 
ATOM     11  C   UNL     1      27.066  25.218   4.420  0.00  0.00    +0.047 A 
ATOM     12  C   UNL     1      28.057  25.551   3.410  0.00  0.00    +0.035 A 
ATOM     32  C   UNL     1      27.604  26.089   2.170  0.00  0.00    +0.024 A 
ATOM     33  C   UNL     1      26.201  26.298   1.912  0.00  0.00    +0.007 A 
ATOM     34  C   UNL     1      25.218  25.968   2.904  0.00  0.00    -0.029 A 
ATOM     35  C   UNL     1      23.727  26.206   2.571  0.00  0.00    +0.045 C 
ENDROOT
BRANCH  10   9
ATOM      4  C   UNL     1      23.037  22.222   6.600  0.00  0.00    +0.077 A 
ATOM      5  C   UNL     1      23.483  21.139   5.772  0.00  0.00    +0.048 A 
ATOM      6  C   UNL     1      24.388  21.447   4.731  0.00  0.00    +0.116 A 
ATOM      7  N   UNL     1      24.808  22.746   4.541  0.00  0.00    -0.223 NA
ATOM      8  C   UNL     1      24.357  23.767   5.357  0.00  0.00    +0.220 A 
ATOM      9  N   UNL     1      24.773  25.079   5.189  0.00  0.00    -0.283 N 
ATOM     36  H   UNL     1      24.411  25.806   5.807  0.00  0.00    +0.155 HD
ATOM     37  N   UNL     1      23.492  23.499   6.357  0.00  0.00    -0.214 NA
BRANCH   4   3
ATOM      1  C   UNL     1      21.454  22.260  10.177  0.00  0.00    +0.020 A 
ATOM      2  C   UNL     1      22.411  22.442   9.109  0.00  0.00    +0.013 A 
ATOM      3  C   UNL     1      22.084  22.056   7.742  0.00  0.00    +0.019 A 
ATOM     38  C   UNL     1      20.770  21.485   7.487  0.00  0.00    +0.120 A 
ATOM     39  N   UNL     1      19.870  21.321   8.535  0.00  0.00    -0.263 NA
ATOM     40  C   UNL     1      20.174  21.687   9.855  0.00  0.00    +0.111 A 
ENDBRANCH   4   3
ENDBRANCH  10   9
BRANCH  12  13
ATOM     13  N   UNL     1      29.476  25.363   3.590  0.00  0.00    -0.281 N 
ATOM     14  C   UNL     1      30.179  24.170   3.623  0.00  0.00    +0.248 C 
ATOM     30  O   UNL     1      29.663  23.066   3.715  0.00  0.00    -0.270 OA
ATOM     31  H   UNL     1      30.028  26.212   3.708  0.00  0.00    +0.155 HD
BRANCH  14  15
ATOM     15  C   UNL     1      31.672  24.210   3.557  0.00  0.00    +0.037 A 
ATOM     16  C   UNL     1      32.408  23.467   2.531  0.00  0.00    +0.013 A 
ATOM     17  C   UNL     1      33.848  23.509   2.501  0.00  0.00    +0.005 A 
ATOM     18  C   UNL     1      34.563  24.299   3.501  0.00  0.00    -0.033 A 
ATOM     28  C   UNL     1      33.807  25.031   4.504  0.00  0.00    +0.005 A 
ATOM     29  C   UNL     1      32.395  24.991   4.538  0.00  0.00    +0.013 A 
BRANCH  18  19
ATOM     19  C   UNL     1      36.099  24.385   3.558  0.00  0.00    +0.119 C 
BRANCH  19  20
ATOM     20  N   UNL     1      36.705  25.745   3.674  0.00  0.00    -0.302 NA
ATOM     21  C   UNL     1      36.655  26.511   2.350  0.00  0.00    +0.066 C 
ATOM     22  C   UNL     1      37.272  27.940   2.495  0.00  0.00    -0.064 C 
ATOM     23  N   UNL     1      38.712  27.822   2.999  0.00  0.00    +0.379 N 
ATOM     24  C   UNL     1      39.314  29.161   3.082  0.00  0.00    -0.096 C 
ATOM     25  H   UNL     1      39.287  27.238   2.244  0.00  0.00    -0.082 HD
ATOM     26  C   UNL     1      38.770  27.059   4.315  0.00  0.00    -0.064 C 
ATOM     27  C   UNL     1      38.128  25.652   4.167  0.00  0.00    +0.066 C 
ENDBRANCH  19  20
ENDBRANCH  18  19
ENDBRANCH  14  15
ENDBRANCH  12  13
TORSDOF 6
ENDMDL
MODEL 2
REMARK VINA RESULT:      -9.6      2.313      3.154
REMARK  Name = C:\Users\Docking\Desktop\test protocol\1iep_ligandH.pdb
REMARK  8 active torsions:
REMARK  status: ('A' for Active; 'I' for Inactive)
REMARK    1  A    between atoms: _5  and  _11
REMARK    2  A    between atoms: _19  and  _21
REMARK    3  A    between atoms: _22  and  _66
REMARK    4  A    between atoms: _27  and  _30
REMARK    5  A    between atoms: _32  and  _33
REMARK    6  A    between atoms: _38  and  _43
REMARK    7  A    between atoms: _43  and  _46
REMARK    8  A    between atoms: _53  and  _55
REMARK                            x       y       z     vdW  Elec       q    Type
REMARK                         _______ _______ _______ _____ _____    ______ ____
ROOT
ATOM     10  C   UNL     1      26.067  25.205   3.918  0.00  0.00    +0.038 A 
ATOM     11  C   UNL     1      27.424  24.795   3.934  0.00  0.00    +0.047 A 
ATOM     12  C   UNL     1      28.299  25.042   2.798  0.00  0.00    +0.035 A 
ATOM     32  C   UNL     1      27.758  25.712   1.663  0.00  0.00    +0.024 A 
ATOM     33  C   UNL     1      26.379  26.135   1.629  0.00  0.00    +0.007 A 
ATOM     34  C   UNL     1      25.512  25.891   2.745  0.00  0.00    -0.029 A 
ATOM     35  C   UNL     1      24.041  26.361   2.651  0.00  0.00    +0.045 C 
ENDROOT
BRANCH  10   9
ATOM      4  C   UNL     1      23.469  22.247   6.664  0.00  0.00    +0.077 A 
ATOM      5  C   UNL     1      23.692  21.137   5.782  0.00  0.00    +0.048 A 
ATOM      6  C   UNL     1      24.474  21.372   4.629  0.00  0.00    +0.116 A 
ATOM      7  N   UNL     1      24.991  22.626   4.387  0.00  0.00    -0.223 NA
ATOM      8  C   UNL     1      24.756  23.675   5.257  0.00  0.00    +0.220 A 
ATOM      9  N   UNL     1      25.272  24.942   5.036  0.00  0.00    -0.283 N 
ATOM     36  H   UNL     1      25.070  25.691   5.698  0.00  0.00    +0.155 HD
ATOM     37  N   UNL     1      24.011  23.477   6.364  0.00  0.00    -0.214 NA
BRANCH   4   3
ATOM      1  C   UNL     1      20.536  21.684   9.190  0.00  0.00    +0.020 A 
ATOM      2  C   UNL     1      21.266  21.755   7.945  0.00  0.00    +0.013 A 
ATOM      3  C   UNL     1      22.667  22.157   7.925  0.00  0.00    +0.019 A 
ATOM     38  C   UNL     1      23.304  22.482   9.192  0.00  0.00    +0.120 A 
ATOM     39  N   UNL     1      22.576  22.406  10.374  0.00  0.00    -0.263 NA
ATOM     40  C   UNL     1      21.227  22.022  10.406  0.00  0.00    +0.111 A 
ENDBRANCH   4   3
ENDBRANCH  10   9
BRANCH  12  13
ATOM     13  N   UNL     1      29.683  24.642   2.754  0.00  0.00    -0.281 N 
ATOM     14  C   UNL     1      30.802  25.414   3.023  0.00  0.00    +0.248 C 
ATOM     30  O   UNL     1      30.791  26.630   3.135  0.00  0.00    -0.270 OA
ATOM     31  H   UNL     1      29.860  23.672   2.494  0.00  0.00    +0.155 HD
BRANCH  14  15
ATOM     15  C   UNL     1      32.126  24.738   3.175  0.00  0.00    +0.037 A 
ATOM     16  C   UNL     1      32.402  23.453   2.527  0.00  0.00    +0.013 A 
ATOM     17  C   UNL     1      33.682  22.814   2.703  0.00  0.00    +0.005 A 
ATOM     18  C   UNL     1      34.697  23.461   3.531  0.00  0.00    -0.033 A 
ATOM     28  C   UNL     1      34.399  24.738   4.158  0.00  0.00    +0.005 A 
ATOM     29  C   UNL     1      33.145  25.366   3.988  0.00  0.00    +0.013 A 
BRANCH  18  19
ATOM     19  C   UNL     1      36.083  22.841   3.792  0.00  0.00    +0.119 C 
BRANCH  19  20
ATOM     20  N   UNL     1      36.569  22.823   5.204  0.00  0.00    -0.302 NA
ATOM     21  C   UNL     1      38.063  22.499   5.293  0.00  0.00    +0.066 C 
ATOM     22  C   UNL     1      38.560  22.507   6.775  0.00  0.00    -0.064 C 
ATOM     23  N   UNL     1      37.739  21.506   7.591  0.00  0.00    +0.379 N 
ATOM     24  C   UNL     1      38.242  21.469   8.972  0.00  0.00    -0.096 C 
ATOM     25  H   UNL     1      37.897  20.497   7.146  0.00  0.00    -0.082 HD
ATOM     26  C   UNL     1      36.252  21.820   7.506  0.00  0.00    -0.064 C 
ATOM     27  C   UNL     1      35.775  21.839   6.027  0.00  0.00    +0.066 C 
ENDBRANCH  19  20
ENDBRANCH  18  19
ENDBRANCH  14  15
ENDBRANCH  12  13
TORSDOF 6
ENDMDL
MODEL 3
REMARK VINA RESULT:      -9.3      2.268      2.816
REMARK  Name = C:\Users\Docking\Desktop\test protocol\1iep_ligandH.pdb
REMARK  8 active torsions:
REMARK  status: ('A' for Active; 'I' for Inactive)
REMARK    1  A    between atoms: _5  and  _11
REMARK    2  A    between atoms: _19  and  _21
REMARK    3  A    between atoms: _22  and  _66
REMARK    4  A    between atoms: _27  and  _30
REMARK    5  A    between atoms: _32  and  _33
REMARK    6  A    between atoms: _38  and  _43
REMARK    7  A    between atoms: _43  and  _46
REMARK    8  A    between atoms: _53  and  _55
REMARK                            x       y       z     vdW  Elec       q    Type
REMARK                         _______ _______ _______ _____ _____    ______ ____
ROOT
ATOM     10  C   UNL     1      26.219  25.369   3.741  0.00  0.00    +0.038 A 
ATOM     11  C   UNL     1      27.599  25.042   3.729  0.00  0.00    +0.047 A 
ATOM     12  C   UNL     1      28.427  25.314   2.565  0.00  0.00    +0.035 A 
ATOM     32  C   UNL     1      27.817  25.924   1.430  0.00  0.00    +0.024 A 
ATOM     33  C   UNL     1      26.416  26.262   1.425  0.00  0.00    +0.007 A 
ATOM     34  C   UNL     1      25.593  25.993   2.569  0.00  0.00    -0.029 A 
ATOM     35  C   UNL     1      24.095  26.372   2.505  0.00  0.00    +0.045 C 
ENDROOT
BRANCH  10   9
ATOM      4  C   UNL     1      23.914  22.318   6.642  0.00  0.00    +0.077 A 
ATOM      5  C   UNL     1      24.201  21.200   5.791  0.00  0.00    +0.048 A 
ATOM      6  C   UNL     1      24.938  21.453   4.613  0.00  0.00    +0.116 A 
ATOM      7  N   UNL     1      25.353  22.734   4.318  0.00  0.00    -0.223 NA
ATOM      8  C   UNL     1      25.058  23.790   5.159  0.00  0.00    +0.220 A 
ATOM      9  N   UNL     1      25.471  25.085   4.886  0.00  0.00    -0.283 N 
ATOM     36  H   UNL     1      25.227  25.838   5.529  0.00  0.00    +0.155 HD
ATOM     37  N   UNL     1      24.354  23.575   6.290  0.00  0.00    -0.214 NA
BRANCH   4   3
ATOM      1  C   UNL     1      21.022  21.855   9.235  0.00  0.00    +0.020 A 
ATOM      2  C   UNL     1      21.715  21.950   7.971  0.00  0.00    +0.013 A 
ATOM      3  C   UNL     1      23.148  22.211   7.924  0.00  0.00    +0.019 A 
ATOM     38  C   UNL     1      23.857  22.370   9.185  0.00  0.00    +0.120 A 
ATOM     39  N   UNL     1      23.164  22.275  10.387  0.00  0.00    -0.263 NA
ATOM     40  C   UNL     1      21.784  22.026  10.445  0.00  0.00    +0.111 A 
ENDBRANCH   4   3
ENDBRANCH  10   9
BRANCH  12  13
ATOM     13  N   UNL     1      29.832  24.997   2.492  0.00  0.00    -0.281 N 
ATOM     14  C   UNL     1      30.847  25.428   3.330  0.00  0.00    +0.248 C 
ATOM     30  O   UNL     1      30.732  26.328   4.149  0.00  0.00    -0.270 OA
ATOM     31  H   UNL     1      30.112  24.380   1.729  0.00  0.00    +0.155 HD
BRANCH  14  15
ATOM     15  C   UNL     1      32.188  24.773   3.236  0.00  0.00    +0.037 A 
ATOM     16  C   UNL     1      32.346  23.448   2.631  0.00  0.00    +0.013 A 
ATOM     17  C   UNL     1      33.648  22.833   2.568  0.00  0.00    +0.005 A 
ATOM     18  C   UNL     1      34.803  23.543   3.112  0.00  0.00    -0.033 A 
ATOM     28  C   UNL     1      34.618  24.859   3.702  0.00  0.00    +0.005 A 
ATOM     29  C   UNL     1      33.343  25.465   3.766  0.00  0.00    +0.013 A 
BRANCH  18  19
ATOM     19  C   UNL     1      36.226  22.954   3.107  0.00  0.00    +0.119 C 
BRANCH  19  20
ATOM     20  N   UNL     1      36.867  22.727   1.777  0.00  0.00    -0.302 NA
ATOM     21  C   UNL     1      38.036  21.742   1.864  0.00  0.00    +0.066 C 
ATOM     22  C   UNL     1      38.681  21.498   0.461  0.00  0.00    -0.064 C 
ATOM     23  N   UNL     1      39.141  22.835  -0.124  0.00  0.00    +0.379 N 
ATOM     24  C   UNL     1      39.800  22.603  -1.418  0.00  0.00    -0.096 C 
ATOM     25  H   UNL     1      39.900  23.264   0.570  0.00  0.00    -0.082 HD
ATOM     26  C   UNL     1      37.985  23.821  -0.212  0.00  0.00    -0.064 C 
ATOM     27  C   UNL     1      37.333  24.033   1.183  0.00  0.00    +0.066 C 
ENDBRANCH  19  20
ENDBRANCH  18  19
ENDBRANCH  14  15
ENDBRANCH  12  13
TORSDOF 6
ENDMDL
MODEL 4
REMARK VINA RESULT:      -9.0      5.156      6.704
REMARK  Name = C:\Users\Docking\Desktop\test protocol\1iep_ligandH.pdb
REMARK  8 active torsions:
REMARK  status: ('A' for Active; 'I' for Inactive)
REMARK    1  A    between atoms: _5  and  _11
REMARK    2  A    between atoms: _19  and  _21
REMARK    3  A    between atoms: _22  and  _66
REMARK    4  A    between atoms: _27  and  _30
REMARK    5  A    between atoms: _32  and  _33
REMARK    6  A    between atoms: _38  and  _43
REMARK    7  A    between atoms: _43  and  _46
REMARK    8  A    between atoms: _53  and  _55
REMARK                            x       y       z     vdW  Elec       q    Type
REMARK                         _______ _______ _______ _____ _____    ______ ____
ROOT
ATOM     10  C   UNL     1      26.853  24.070   3.871  0.00  0.00    +0.038 A 
ATOM     11  C   UNL     1      27.913  23.138   3.730  0.00  0.00    +0.047 A 
ATOM     12  C   UNL     1      28.772  23.146   2.556  0.00  0.00    +0.035 A 
ATOM     32  C   UNL     1      28.525  24.120   1.546  0.00  0.00    +0.024 A 
ATOM     33  C   UNL     1      27.452  25.075   1.671  0.00  0.00    +0.007 A 
ATOM     34  C   UNL     1      26.600  25.069   2.826  0.00  0.00    -0.029 A 
ATOM     35  C   UNL     1      25.460  26.112   2.905  0.00  0.00    +0.045 C 
ENDROOT
BRANCH  10   9
ATOM      4  C   UNL     1      23.555  21.952   6.641  0.00  0.00    +0.077 A 
ATOM      5  C   UNL     1      23.380  20.875   5.710  0.00  0.00    +0.048 A 
ATOM      6  C   UNL     1      24.152  20.907   4.527  0.00  0.00    +0.116 A 
ATOM      7  N   UNL     1      25.031  21.944   4.303  0.00  0.00    -0.223 NA
ATOM      8  C   UNL     1      25.175  22.968   5.220  0.00  0.00    +0.220 A 
ATOM      9  N   UNL     1      26.060  24.017   5.019  0.00  0.00    -0.283 N 
ATOM     36  H   UNL     1      26.131  24.757   5.716  0.00  0.00    +0.155 HD
ATOM     37  N   UNL     1      24.448  22.961   6.357  0.00  0.00    -0.214 NA
BRANCH   4   3
ATOM      1  C   UNL     1      22.700  22.499  10.419  0.00  0.00    +0.020 A 
ATOM      2  C   UNL     1      23.462  22.410   9.195  0.00  0.00    +0.013 A 
ATOM      3  C   UNL     1      22.814  22.058   7.938  0.00  0.00    +0.019 A 
ATOM     38  C   UNL     1      21.382  21.802   7.954  0.00  0.00    +0.120 A 
ATOM     39  N   UNL     1      20.674  21.894   9.148  0.00  0.00    -0.263 NA
ATOM     40  C   UNL     1      21.288  22.229  10.364  0.00  0.00    +0.111 A 
ENDBRANCH   4   3
ENDBRANCH  10   9
BRANCH  12  13
ATOM     13  N   UNL     1      29.859  22.220   2.355  0.00  0.00    -0.281 N 
ATOM     14  C   UNL     1      29.894  20.870   2.663  0.00  0.00    +0.248 C 
ATOM     30  O   UNL     1      29.068  20.297   3.359  0.00  0.00    -0.270 OA
ATOM     31  H   UNL     1      30.704  22.606   1.935  0.00  0.00    +0.155 HD
BRANCH  14  15
ATOM     15  C   UNL     1      31.018  20.038   2.134  0.00  0.00    +0.037 A 
ATOM     16  C   UNL     1      30.763  18.839   1.331  0.00  0.00    +0.013 A 
ATOM     17  C   UNL     1      31.864  18.045   0.847  0.00  0.00    +0.005 A 
ATOM     18  C   UNL     1      33.232  18.449   1.164  0.00  0.00    -0.033 A 
ATOM     28  C   UNL     1      33.456  19.646   1.958  0.00  0.00    +0.005 A 
ATOM     29  C   UNL     1      32.379  20.426   2.435  0.00  0.00    +0.013 A 
BRANCH  18  19
ATOM     19  C   UNL     1      34.467  17.650   0.708  0.00  0.00    +0.119 C 
BRANCH  19  20
ATOM     20  N   UNL     1      34.235  16.268   0.191  0.00  0.00    -0.302 NA
ATOM     21  C   UNL     1      34.317  15.218   1.303  0.00  0.00    +0.066 C 
ATOM     22  C   UNL     1      34.049  13.781   0.749  0.00  0.00    -0.064 C 
ATOM     23  N   UNL     1      35.052  13.471  -0.364  0.00  0.00    +0.379 N 
ATOM     24  C   UNL     1      34.841  12.099  -0.847  0.00  0.00    -0.096 C 
ATOM     25  H   UNL     1      36.074  13.520   0.079  0.00  0.00    -0.082 HD
ATOM     26  C   UNL     1      34.979  14.512  -1.472  0.00  0.00    -0.064 C 
ATOM     27  C   UNL     1      35.217  15.940  -0.906  0.00  0.00    +0.066 C 
ENDBRANCH  19  20
ENDBRANCH  18  19
ENDBRANCH  14  15
ENDBRANCH  12  13
TORSDOF 6
ENDMDL
MODEL 5
REMARK VINA RESULT:      -8.3      4.716      6.701
REMARK  Name = C:\Users\Docking\Desktop\test protocol\1iep_ligandH.pdb
REMARK  8 active torsions:
REMARK  status: ('A' for Active; 'I' for Inactive)
REMARK    1  A    between atoms: _5  and  _11
REMARK    2  A    between atoms: _19  and  _21
REMARK    3  A    between atoms: _22  and  _66
REMARK    4  A    between atoms: _27  and  _30
REMARK    5  A    between atoms: _32  and  _33
REMARK    6  A    between atoms: _38  and  _43
REMARK    7  A    between atoms: _43  and  _46
REMARK    8  A    between atoms: _53  and  _55
REMARK                            x       y       z     vdW  Elec       q    Type
REMARK                         _______ _______ _______ _____ _____    ______ ____
ROOT
ATOM     10  C   UNL     1      29.017  25.054   4.032  0.00  0.00    +0.038 A 
ATOM     11  C   UNL     1      29.804  23.984   3.536  0.00  0.00    +0.047 A 
ATOM     12  C   UNL     1      31.187  24.190   3.133  0.00  0.00    +0.035 A 
ATOM     32  C   UNL     1      31.736  25.500   3.252  0.00  0.00    +0.024 A 
ATOM     33  C   UNL     1      30.950  26.599   3.753  0.00  0.00    +0.007 A 
ATOM     34  C   UNL     1      29.585  26.402   4.150  0.00  0.00    -0.029 A 
ATOM     35  C   UNL     1      28.787  27.619   4.674  0.00  0.00    +0.045 C 
ENDROOT
BRANCH  10   9
ATOM      4  C   UNL     1      24.282  25.373   3.317  0.00  0.00    +0.077 A 
ATOM      5  C   UNL     1      24.455  26.135   2.113  0.00  0.00    +0.048 A 
ATOM      6  C   UNL     1      25.779  26.429   1.717  0.00  0.00    +0.116 A 
ATOM      7  N   UNL     1      26.842  25.989   2.475  0.00  0.00    -0.223 NA
ATOM      8  C   UNL     1      26.640  25.258   3.631  0.00  0.00    +0.220 A 
ATOM      9  N   UNL     1      27.695  24.799   4.404  0.00  0.00    -0.283 N 
ATOM     36  H   UNL     1      27.504  24.269   5.254  0.00  0.00    +0.155 HD
ATOM     37  N   UNL     1      25.385  24.965   4.032  0.00  0.00    -0.214 NA
BRANCH   4   3
ATOM      1  C   UNL     1      20.461  24.600   3.640  0.00  0.00    +0.020 A 
ATOM      2  C   UNL     1      21.727  24.990   3.064  0.00  0.00    +0.013 A 
ATOM      3  C   UNL     1      22.945  24.979   3.864  0.00  0.00    +0.019 A 
ATOM     38  C   UNL     1      22.847  24.563   5.255  0.00  0.00    +0.120 A 
ATOM     39  N   UNL     1      21.614  24.194   5.783  0.00  0.00    -0.263 NA
ATOM     40  C   UNL     1      20.435  24.203   5.024  0.00  0.00    +0.111 A 
ENDBRANCH   4   3
ENDBRANCH  10   9
BRANCH  12  13
ATOM     13  N   UNL     1      32.032  23.144   2.614  0.00  0.00    -0.281 N 
ATOM     14  C   UNL     1      32.649  22.121   3.316  0.00  0.00    +0.248 C 
ATOM     30  O   UNL     1      32.740  22.075   4.534  0.00  0.00    -0.270 OA
ATOM     31  H   UNL     1      32.196  23.159   1.608  0.00  0.00    +0.155 HD
BRANCH  14  15
ATOM     15  C   UNL     1      33.266  20.992   2.554  0.00  0.00    +0.037 A 
ATOM     16  C   UNL     1      34.677  21.021   2.163  0.00  0.00    +0.013 A 
ATOM     17  C   UNL     1      35.243  19.928   1.414  0.00  0.00    +0.005 A 
ATOM     18  C   UNL     1      34.396  18.794   1.052  0.00  0.00    -0.033 A 
ATOM     28  C   UNL     1      33.000  18.788   1.457  0.00  0.00    +0.005 A 
ATOM     29  C   UNL     1      32.442  19.859   2.191  0.00  0.00    +0.013 A 
BRANCH  18  19
ATOM     19  C   UNL     1      34.910  17.593   0.236  0.00  0.00    +0.119 C 
BRANCH  19  20
ATOM     20  N   UNL     1      35.260  17.838  -1.195  0.00  0.00    -0.302 NA
ATOM     21  C   UNL     1      34.990  16.612  -2.071  0.00  0.00    +0.066 C 
ATOM     22  C   UNL     1      35.341  16.894  -3.568  0.00  0.00    -0.064 C 
ATOM     23  N   UNL     1      36.805  17.323  -3.674  0.00  0.00    +0.379 N 
ATOM     24  C   UNL     1      37.154  17.533  -5.087  0.00  0.00    -0.096 C 
ATOM     25  H   UNL     1      37.432  16.484  -3.291  0.00  0.00    -0.082 HD
ATOM     26  C   UNL     1      37.083  18.541  -2.804  0.00  0.00    -0.064 C 
ATOM     27  C   UNL     1      36.703  18.260  -1.323  0.00  0.00    +0.066 C 
ENDBRANCH  19  20
ENDBRANCH  18  19
ENDBRANCH  14  15
ENDBRANCH  12  13
TORSDOF 6
ENDMDL
