MODEL 1
REMARK VINA RESULT:      -8.0      0.000      0.000
REMARK  Name = C:\Users\Docking\Desktop\test protocol\1iep_ligandH.pdb
REMARK  8 active torsions:
REMARK  status: ('A' for Active; 'I' for Inactive)
REMARK    1  A    between atoms: _5  and  _11
REMARK    2  A    between atoms: _19  and  _21
REMARK    3  A    between atoms: _22  and  _66
REMARK    4  A    between atoms: _27  and  _30
REMARK    5  A    between atoms: _32  and  _33
REMARK    6  A    between atoms: _38  and  _43
REMARK    7  A    between atoms: _43  and  _46
REMARK    8  A    between atoms: _53  and  _55
REMARK                            x       y       z     vdW  Elec       q    Type
REMARK                         _______ _______ _______ _____ _____    ______ ____
ROOT
ATOM     10  C   UNL     1      12.338   5.559  32.078  0.00  0.00    +0.038 A 
ATOM     11  C   UNL     1      12.363   6.014  33.421  0.00  0.00    +0.047 A 
ATOM     12  C   UNL     1      11.538   7.131  33.853  0.00  0.00    +0.035 A 
ATOM     32  C   UNL     1      10.697   7.761  32.890  0.00  0.00    +0.024 A 
ATOM     33  C   UNL     1      10.660   7.313  31.520  0.00  0.00    +0.007 A 
ATOM     34  C   UNL     1      11.473   6.213  31.088  0.00  0.00    -0.029 A 
ATOM     35  C   UNL     1      11.398   5.779  29.606  0.00  0.00    +0.045 C 
ENDROOT
BRANCH  10   9
ATOM      4  C   UNL     1      13.147   0.857  31.553  0.00  0.00    +0.077 A 
ATOM      5  C   UNL     1      11.851   0.517  32.064  0.00  0.00    +0.048 A 
ATOM      6  C   UNL     1      11.009   1.581  32.458  0.00  0.00    +0.116 A 
ATOM      7  N   UNL     1      11.441   2.885  32.344  0.00  0.00    -0.223 NA
ATOM      8  C   UNL     1      12.698   3.178  31.849  0.00  0.00    +0.220 A 
ATOM      9  N   UNL     1      13.151   4.482  31.718  0.00  0.00    -0.283 N 
ATOM     36  H   UNL     1      14.088   4.656  31.355  0.00  0.00    +0.155 HD
ATOM     37  N   UNL     1      13.522   2.180  31.467  0.00  0.00    -0.214 NA
BRANCH   4   3
ATOM      1  C   UNL     1      15.686  -1.152  29.359  0.00  0.00    +0.020 A 
ATOM      2  C   UNL     1      14.721  -0.152  29.752  0.00  0.00    +0.013 A 
ATOM      3  C   UNL     1      14.150  -0.155  31.093  0.00  0.00    +0.019 A 
ATOM     38  C   UNL     1      14.580  -1.192  32.019  0.00  0.00    +0.120 A 
ATOM     39  N   UNL     1      15.510  -2.143  31.611  0.00  0.00    -0.263 NA
ATOM     40  C   UNL     1      16.065  -2.151  30.323  0.00  0.00    +0.111 A 
ENDBRANCH   4   3
ENDBRANCH  10   9
BRANCH  12  13
ATOM     13  N   UNL     1      11.528   7.642  35.201  0.00  0.00    -0.281 N 
ATOM     14  C   UNL     1      11.245   6.954  36.370  0.00  0.00    +0.248 C 
ATOM     30  O   UNL     1      10.748   5.839  36.413  0.00  0.00    -0.270 OA
ATOM     31  H   UNL     1      11.756   8.630  35.307  0.00  0.00    +0.155 HD
BRANCH  14  15
ATOM     15  C   UNL     1      11.546   7.605  37.681  0.00  0.00    +0.037 A 
ATOM     16  C   UNL     1      11.446   6.861  38.940  0.00  0.00    +0.013 A 
ATOM     17  C   UNL     1      11.725   7.518  40.192  0.00  0.00    +0.005 A 
ATOM     18  C   UNL     1      12.108   8.928  40.192  0.00  0.00    -0.033 A 
ATOM     28  C   UNL     1      12.205   9.640  38.929  0.00  0.00    +0.005 A 
ATOM     29  C   UNL     1      11.931   9.000  37.699  0.00  0.00    +0.013 A 
BRANCH  18  19
ATOM     19  C   UNL     1      12.404   9.714  41.483  0.00  0.00    +0.119 C 
BRANCH  19  20
ATOM     20  N   UNL     1      13.452   9.165  42.393  0.00  0.00    -0.302 NA
ATOM     21  C   UNL     1      13.608  10.007  43.663  0.00  0.00    +0.066 C 
ATOM     22  C   UNL     1      14.694   9.406  44.614  0.00  0.00    -0.064 C 
ATOM     23  N   UNL     1      16.024   9.303  43.866  0.00  0.00    +0.379 N 
ATOM     24  C   UNL     1      17.060   8.793  44.775  0.00  0.00    -0.096 C 
ATOM     25  H   UNL     1      16.320  10.334  43.560  0.00  0.00    -0.082 HD
ATOM     26  C   UNL     1      15.877   8.470  42.600  0.00  0.00    -0.064 C 
ATOM     27  C   UNL     1      14.776   9.060  41.675  0.00  0.00    +0.066 C 
ENDBRANCH  19  20
ENDBRANCH  18  19
ENDBRANCH  14  15
ENDBRANCH  12  13
TORSDOF 6
ENDMDL
MODEL 2
REMARK VINA RESULT:      -8.0     49.097     51.368
REMARK  Name = C:\Users\Docking\Desktop\test protocol\1iep_ligandH.pdb
REMARK  8 active torsions:
REMARK  status: ('A' for Active; 'I' for Inactive)
REMARK    1  A    between atoms: _5  and  _11
REMARK    2  A    between atoms: _19  and  _21
REMARK    3  A    between atoms: _22  and  _66
REMARK    4  A    between atoms: _27  and  _30
REMARK    5  A    between atoms: _32  and  _33
REMARK    6  A    between atoms: _38  and  _43
REMARK    7  A    between atoms: _43  and  _46
REMARK    8  A    between atoms: _53  and  _55
REMARK                            x       y       z     vdW  Elec       q    Type
REMARK                         _______ _______ _______ _____ _____    ______ ____
ROOT
ATOM     10  C   UNL     1      58.369  12.859  17.183  0.00  0.00    +0.038 A 
ATOM     11  C   UNL     1      59.361  13.521  17.950  0.00  0.00    +0.047 A 
ATOM     12  C   UNL     1      60.196  14.559  17.365  0.00  0.00    +0.035 A 
ATOM     32  C   UNL     1      59.991  14.899  15.996  0.00  0.00    +0.024 A 
ATOM     33  C   UNL     1      58.987  14.236  15.201  0.00  0.00    +0.007 A 
ATOM     34  C   UNL     1      58.162  13.209  15.772  0.00  0.00    -0.029 A 
ATOM     35  C   UNL     1      57.106  12.527  14.872  0.00  0.00    +0.045 C 
ENDROOT
BRANCH  10   9
ATOM      4  C   UNL     1      54.551  11.438  19.721  0.00  0.00    +0.077 A 
ATOM      5  C   UNL     1      54.070  12.782  19.862  0.00  0.00    +0.048 A 
ATOM      6  C   UNL     1      54.838  13.811  19.273  0.00  0.00    +0.116 A 
ATOM      7  N   UNL     1      55.999  13.507  18.595  0.00  0.00    -0.223 NA
ATOM      8  C   UNL     1      56.436  12.200  18.479  0.00  0.00    +0.220 A 
ATOM      9  N   UNL     1      57.596  11.870  17.795  0.00  0.00    -0.283 N 
ATOM     36  H   UNL     1      57.888  10.895  17.739  0.00  0.00    +0.155 HD
ATOM     37  N   UNL     1      55.721  11.199  19.034  0.00  0.00    -0.214 NA
BRANCH   4   3
ATOM      1  C   UNL     1      51.996   8.530  20.285  0.00  0.00    +0.020 A 
ATOM      2  C   UNL     1      52.634   9.687  19.701  0.00  0.00    +0.013 A 
ATOM      3  C   UNL     1      53.849  10.242  20.286  0.00  0.00    +0.019 A 
ATOM     38  C   UNL     1      54.396   9.596  21.469  0.00  0.00    +0.120 A 
ATOM     39  N   UNL     1      53.758   8.484  22.010  0.00  0.00    -0.263 NA
ATOM     40  C   UNL     1      52.588   7.943  21.457  0.00  0.00    +0.111 A 
ENDBRANCH   4   3
ENDBRANCH  10   9
BRANCH  12  13
ATOM     13  N   UNL     1      61.225  15.260  18.091  0.00  0.00    -0.281 N 
ATOM     14  C   UNL     1      62.384  14.739  18.643  0.00  0.00    +0.248 C 
ATOM     30  O   UNL     1      62.609  13.546  18.779  0.00  0.00    -0.270 OA
ATOM     31  H   UNL     1      61.081  16.263  18.215  0.00  0.00    +0.155 HD
BRANCH  14  15
ATOM     15  C   UNL     1      63.441  15.680  19.125  0.00  0.00    +0.037 A 
ATOM     16  C   UNL     1      63.482  17.073  18.672  0.00  0.00    +0.013 A 
ATOM     17  C   UNL     1      64.522  17.955  19.140  0.00  0.00    +0.005 A 
ATOM     18  C   UNL     1      65.529  17.446  20.068  0.00  0.00    -0.033 A 
ATOM     28  C   UNL     1      65.461  16.061  20.504  0.00  0.00    +0.005 A 
ATOM     29  C   UNL     1      64.444  15.194  20.047  0.00  0.00    +0.013 A 
BRANCH  18  19
ATOM     19  C   UNL     1      66.687  18.310  20.602  0.00  0.00    +0.119 C 
BRANCH  19  20
ATOM     20  N   UNL     1      67.202  17.994  21.967  0.00  0.00    -0.302 NA
ATOM     21  C   UNL     1      67.221  19.228  22.874  0.00  0.00    +0.066 C 
ATOM     22  C   UNL     1      67.741  18.875  24.305  0.00  0.00    -0.064 C 
ATOM     23  N   UNL     1      69.138  18.259  24.200  0.00  0.00    +0.379 N 
ATOM     24  C   UNL     1      69.654  17.980  25.548  0.00  0.00    -0.096 C 
ATOM     25  H   UNL     1      69.807  19.018  23.732  0.00  0.00    -0.082 HD
ATOM     26  C   UNL     1      69.129  17.033  23.298  0.00  0.00    -0.064 C 
ATOM     27  C   UNL     1      68.582  17.389  21.887  0.00  0.00    +0.066 C 
ENDBRANCH  19  20
ENDBRANCH  18  19
ENDBRANCH  14  15
ENDBRANCH  12  13
TORSDOF 6
ENDMDL
MODEL 3
REMARK VINA RESULT:      -7.9     68.523     70.973
REMARK  Name = C:\Users\Docking\Desktop\test protocol\1iep_ligandH.pdb
REMARK  8 active torsions:
REMARK  status: ('A' for Active; 'I' for Inactive)
REMARK    1  A    between atoms: _5  and  _11
REMARK    2  A    between atoms: _19  and  _21
REMARK    3  A    between atoms: _22  and  _66
REMARK    4  A    between atoms: _27  and  _30
REMARK    5  A    between atoms: _32  and  _33
REMARK    6  A    between atoms: _38  and  _43
REMARK    7  A    between atoms: _43  and  _46
REMARK    8  A    between atoms: _53  and  _55
REMARK                            x       y       z     vdW  Elec       q    Type
REMARK                         _______ _______ _______ _____ _____    ______ ____
ROOT
ATOM     10  C   UNL     1      77.542   2.849   8.004  0.00  0.00    +0.038 A 
ATOM     11  C   UNL     1      76.787   2.728   6.809  0.00  0.00    +0.047 A 
ATOM     12  C   UNL     1      76.528   3.883   5.963  0.00  0.00    +0.035 A 
ATOM     32  C   UNL     1      77.055   5.146   6.364  0.00  0.00    +0.024 A 
ATOM     33  C   UNL     1      77.823   5.286   7.576  0.00  0.00    +0.007 A 
ATOM     34  C   UNL     1      78.080   4.151   8.415  0.00  0.00    -0.029 A 
ATOM     35  C   UNL     1      78.904   4.362   9.707  0.00  0.00    +0.045 C 
ENDROOT
BRANCH  10   9
ATOM      4  C   UNL     1      79.850  -1.255   8.937  0.00  0.00    +0.077 A 
ATOM      5  C   UNL     1      80.672  -1.127   7.768  0.00  0.00    +0.048 A 
ATOM      6  C   UNL     1      80.464   0.006   6.950  0.00  0.00    +0.116 A 
ATOM      7  N   UNL     1      79.503   0.935   7.285  0.00  0.00    -0.223 NA
ATOM      8  C   UNL     1      78.727   0.781   8.418  0.00  0.00    +0.220 A 
ATOM      9  N   UNL     1      77.760   1.707   8.779  0.00  0.00    -0.283 N 
ATOM     36  H   UNL     1      77.203   1.553   9.618  0.00  0.00    +0.155 HD
ATOM     37  N   UNL     1      78.904  -0.293   9.216  0.00  0.00    -0.214 NA
BRANCH   4   3
ATOM      1  C   UNL     1      79.450  -4.755  10.637  0.00  0.00    +0.020 A 
ATOM      2  C   UNL     1      79.320  -3.687   9.673  0.00  0.00    +0.013 A 
ATOM      3  C   UNL     1      79.952  -2.394   9.903  0.00  0.00    +0.019 A 
ATOM     38  C   UNL     1      80.715  -2.213  11.128  0.00  0.00    +0.120 A 
ATOM     39  N   UNL     1      80.822  -3.259  12.040  0.00  0.00    -0.263 NA
ATOM     40  C   UNL     1      80.217  -4.507  11.830  0.00  0.00    +0.111 A 
ENDBRANCH   4   3
ENDBRANCH  10   9
BRANCH  12  13
ATOM     13  N   UNL     1      75.762   3.823   4.743  0.00  0.00    -0.281 N 
ATOM     14  C   UNL     1      74.614   4.529   4.423  0.00  0.00    +0.248 C 
ATOM     30  O   UNL     1      73.947   5.165   5.226  0.00  0.00    -0.270 OA
ATOM     31  H   UNL     1      76.108   3.183   4.029  0.00  0.00    +0.155 HD
BRANCH  14  15
ATOM     15  C   UNL     1      74.128   4.515   3.010  0.00  0.00    +0.037 A 
ATOM     16  C   UNL     1      75.065   4.550   1.884  0.00  0.00    +0.013 A 
ATOM     17  C   UNL     1      74.569   4.552   0.530  0.00  0.00    +0.005 A 
ATOM     18  C   UNL     1      73.128   4.518   0.295  0.00  0.00    -0.033 A 
ATOM     28  C   UNL     1      72.221   4.478   1.431  0.00  0.00    +0.005 A 
ATOM     29  C   UNL     1      72.703   4.477   2.759  0.00  0.00    +0.013 A 
BRANCH  18  19
ATOM     19  C   UNL     1      72.509   4.540  -1.115  0.00  0.00    +0.119 C 
BRANCH  19  20
ATOM     20  N   UNL     1      71.583   5.665  -1.438  0.00  0.00    -0.302 NA
ATOM     21  C   UNL     1      70.353   5.191  -2.218  0.00  0.00    +0.066 C 
ATOM     22  C   UNL     1      69.383   6.378  -2.528  0.00  0.00    -0.064 C 
ATOM     23  N   UNL     1      70.136   7.457  -3.308  0.00  0.00    +0.379 N 
ATOM     24  C   UNL     1      69.212   8.548  -3.652  0.00  0.00    -0.096 C 
ATOM     25  H   UNL     1      70.489   7.000  -4.262  0.00  0.00    -0.082 HD
ATOM     26  C   UNL     1      71.362   7.932  -2.542  0.00  0.00    -0.064 C 
ATOM     27  C   UNL     1      72.304   6.741  -2.213  0.00  0.00    +0.066 C 
ENDBRANCH  19  20
ENDBRANCH  18  19
ENDBRANCH  14  15
ENDBRANCH  12  13
TORSDOF 6
ENDMDL
MODEL 4
REMARK VINA RESULT:      -7.7     68.319     71.064
REMARK  Name = C:\Users\Docking\Desktop\test protocol\1iep_ligandH.pdb
REMARK  8 active torsions:
REMARK  status: ('A' for Active; 'I' for Inactive)
REMARK    1  A    between atoms: _5  and  _11
REMARK    2  A    between atoms: _19  and  _21
REMARK    3  A    between atoms: _22  and  _66
REMARK    4  A    between atoms: _27  and  _30
REMARK    5  A    between atoms: _32  and  _33
REMARK    6  A    between atoms: _38  and  _43
REMARK    7  A    between atoms: _43  and  _46
REMARK    8  A    between atoms: _53  and  _55
REMARK                            x       y       z     vdW  Elec       q    Type
REMARK                         _______ _______ _______ _____ _____    ______ ____
ROOT
ATOM     10  C   UNL     1      77.935   2.768   8.244  0.00  0.00    +0.038 A 
ATOM     11  C   UNL     1      76.943   3.183   7.318  0.00  0.00    +0.047 A 
ATOM     12  C   UNL     1      76.817   2.547   6.016  0.00  0.00    +0.035 A 
ATOM     32  C   UNL     1      77.716   1.490   5.691  0.00  0.00    +0.024 A 
ATOM     33  C   UNL     1      78.730   1.056   6.619  0.00  0.00    +0.007 A 
ATOM     34  C   UNL     1      78.861   1.681   7.904  0.00  0.00    -0.029 A 
ATOM     35  C   UNL     1      79.971   1.180   8.858  0.00  0.00    +0.045 C 
ENDROOT
BRANCH  10   9
ATOM      4  C   UNL     1      78.753   6.646  10.951  0.00  0.00    +0.077 A 
ATOM      5  C   UNL     1      79.083   7.448   9.808  0.00  0.00    +0.048 A 
ATOM      6  C   UNL     1      79.037   6.822   8.542  0.00  0.00    +0.116 A 
ATOM      7  N   UNL     1      78.685   5.494   8.439  0.00  0.00    -0.223 NA
ATOM      8  C   UNL     1      78.375   4.749   9.562  0.00  0.00    +0.220 A 
ATOM      9  N   UNL     1      78.011   3.414   9.481  0.00  0.00    -0.283 N 
ATOM     36  H   UNL     1      77.796   2.897  10.333  0.00  0.00    +0.155 HD
ATOM     37  N   UNL     1      78.413   5.323  10.782  0.00  0.00    -0.214 NA
BRANCH   4   3
ATOM      1  C   UNL     1      77.592   7.824  14.496  0.00  0.00    +0.020 A 
ATOM      2  C   UNL     1      77.537   7.319  13.144  0.00  0.00    +0.013 A 
ATOM      3  C   UNL     1      78.753   7.165  12.356  0.00  0.00    +0.019 A 
ATOM     38  C   UNL     1      80.019   7.534  12.971  0.00  0.00    +0.120 A 
ATOM     39  N   UNL     1      80.041   8.019  14.275  0.00  0.00    -0.263 NA
ATOM     40  C   UNL     1      78.877   8.172  15.042  0.00  0.00    +0.111 A 
ENDBRANCH   4   3
ENDBRANCH  10   9
BRANCH  12  13
ATOM     13  N   UNL     1      75.836   2.931   5.032  0.00  0.00    -0.281 N 
ATOM     14  C   UNL     1      75.536   4.206   4.581  0.00  0.00    +0.248 C 
ATOM     30  O   UNL     1      75.920   5.236   5.113  0.00  0.00    -0.270 OA
ATOM     31  H   UNL     1      75.297   2.170   4.618  0.00  0.00    +0.155 HD
BRANCH  14  15
ATOM     15  C   UNL     1      74.671   4.358   3.371  0.00  0.00    +0.037 A 
ATOM     16  C   UNL     1      75.253   4.479   2.032  0.00  0.00    +0.013 A 
ATOM     17  C   UNL     1      74.397   4.642   0.883  0.00  0.00    +0.005 A 
ATOM     18  C   UNL     1      72.948   4.685   1.070  0.00  0.00    -0.033 A 
ATOM     28  C   UNL     1      72.398   4.557   2.409  0.00  0.00    +0.005 A 
ATOM     29  C   UNL     1      73.234   4.398   3.537  0.00  0.00    +0.013 A 
BRANCH  18  19
ATOM     19  C   UNL     1      71.960   4.877  -0.095  0.00  0.00    +0.119 C 
BRANCH  19  20
ATOM     20  N   UNL     1      72.328   4.274  -1.411  0.00  0.00    -0.302 NA
ATOM     21  C   UNL     1      72.863   5.319  -2.393  0.00  0.00    +0.066 C 
ATOM     22  C   UNL     1      73.264   4.667  -3.756  0.00  0.00    -0.064 C 
ATOM     23  N   UNL     1      72.055   3.939  -4.346  0.00  0.00    +0.379 N 
ATOM     24  C   UNL     1      72.413   3.373  -5.655  0.00  0.00    -0.096 C 
ATOM     25  H   UNL     1      71.253   4.695  -4.511  0.00  0.00    -0.082 HD
ATOM     26  C   UNL     1      71.516   2.899  -3.374  0.00  0.00    -0.064 C 
ATOM     27  C   UNL     1      71.147   3.553  -2.013  0.00  0.00    +0.066 C 
ENDBRANCH  19  20
ENDBRANCH  18  19
ENDBRANCH  14  15
ENDBRANCH  12  13
TORSDOF 6
ENDMDL
MODEL 5
REMARK VINA RESULT:      -7.7     68.553     70.438
REMARK  Name = C:\Users\Docking\Desktop\test protocol\1iep_ligandH.pdb
REMARK  8 active torsions:
REMARK  status: ('A' for Active; 'I' for Inactive)
REMARK    1  A    between atoms: _5  and  _11
REMARK    2  A    between atoms: _19  and  _21
REMARK    3  A    between atoms: _22  and  _66
REMARK    4  A    between atoms: _27  and  _30
REMARK    5  A    between atoms: _32  and  _33
REMARK    6  A    between atoms: _38  and  _43
REMARK    7  A    between atoms: _43  and  _46
REMARK    8  A    between atoms: _53  and  _55
REMARK                            x       y       z     vdW  Elec       q    Type
REMARK                         _______ _______ _______ _____ _____    ______ ____
ROOT
ATOM     10  C   UNL     1      78.265   3.367   9.196  0.00  0.00    +0.038 A 
ATOM     11  C   UNL     1      78.589   4.242  10.265  0.00  0.00    +0.047 A 
ATOM     12  C   UNL     1      78.651   5.682  10.066  0.00  0.00    +0.035 A 
ATOM     32  C   UNL     1      78.374   6.197   8.766  0.00  0.00    +0.024 A 
ATOM     33  C   UNL     1      78.045   5.322   7.668  0.00  0.00    +0.007 A 
ATOM     34  C   UNL     1      77.985   3.901   7.858  0.00  0.00    -0.029 A 
ATOM     35  C   UNL     1      77.633   3.010   6.644  0.00  0.00    +0.045 C 
ENDROOT
BRANCH  10   9
ATOM      4  C   UNL     1      80.390  -0.862   9.996  0.00  0.00    +0.077 A 
ATOM      5  C   UNL     1      81.701  -0.291   9.886  0.00  0.00    +0.048 A 
ATOM      6  C   UNL     1      81.785   1.093   9.615  0.00  0.00    +0.116 A 
ATOM      7  N   UNL     1      80.637   1.841   9.468  0.00  0.00    -0.223 NA
ATOM      8  C   UNL     1      79.388   1.259   9.580  0.00  0.00    +0.220 A 
ATOM      9  N   UNL     1      78.220   1.993   9.444  0.00  0.00    -0.283 N 
ATOM     36  H   UNL     1      77.318   1.525   9.525  0.00  0.00    +0.155 HD
ATOM     37  N   UNL     1      79.281  -0.061   9.836  0.00  0.00    -0.214 NA
BRANCH   4   3
ATOM      1  C   UNL     1      79.331  -4.610   9.632  0.00  0.00    +0.020 A 
ATOM      2  C   UNL     1      79.554  -3.220   9.305  0.00  0.00    +0.013 A 
ATOM      3  C   UNL     1      80.136  -2.309  10.283  0.00  0.00    +0.019 A 
ATOM     38  C   UNL     1      80.485  -2.840  11.592  0.00  0.00    +0.120 A 
ATOM     39  N   UNL     1      80.257  -4.183  11.879  0.00  0.00    -0.263 NA
ATOM     40  C   UNL     1      79.695  -5.068  10.947  0.00  0.00    +0.111 A 
ENDBRANCH   4   3
ENDBRANCH  10   9
BRANCH  12  13
ATOM     13  N   UNL     1      78.982   6.619  11.110  0.00  0.00    -0.281 N 
ATOM     14  C   UNL     1      78.240   6.936  12.236  0.00  0.00    +0.248 C 
ATOM     30  O   UNL     1      77.073   6.617  12.408  0.00  0.00    -0.270 OA
ATOM     31  H   UNL     1      79.871   7.108  11.007  0.00  0.00    +0.155 HD
BRANCH  14  15
ATOM     15  C   UNL     1      78.883   7.736  13.323  0.00  0.00    +0.037 A 
ATOM     16  C   UNL     1      78.323   7.766  14.677  0.00  0.00    +0.013 A 
ATOM     17  C   UNL     1      78.954   8.559  15.702  0.00  0.00    +0.005 A 
ATOM     18  C   UNL     1      80.153   9.328  15.378  0.00  0.00    -0.033 A 
ATOM     28  C   UNL     1      80.690   9.275  14.028  0.00  0.00    +0.005 A 
ATOM     29  C   UNL     1      80.074   8.500  13.020  0.00  0.00    +0.013 A 
BRANCH  18  19
ATOM     19  C   UNL     1      80.879  10.218  16.403  0.00  0.00    +0.119 C 
BRANCH  19  20
ATOM     20  N   UNL     1      80.182  10.477  17.698  0.00  0.00    -0.302 NA
ATOM     21  C   UNL     1      80.157  11.968  18.049  0.00  0.00    +0.066 C 
ATOM     22  C   UNL     1      79.405  12.223  19.395  0.00  0.00    -0.064 C 
ATOM     23  N   UNL     1      80.072  11.416  20.510  0.00  0.00    +0.379 N 
ATOM     24  C   UNL     1      79.402  11.699  21.788  0.00  0.00    -0.096 C 
ATOM     25  H   UNL     1      81.127  11.766  20.596  0.00  0.00    -0.082 HD
ATOM     26  C   UNL     1      80.103   9.933  20.169  0.00  0.00    -0.064 C 
ATOM     27  C   UNL     1      80.827   9.693  18.814  0.00  0.00    +0.066 C 
ENDBRANCH  19  20
ENDBRANCH  18  19
ENDBRANCH  14  15
ENDBRANCH  12  13
TORSDOF 6
ENDMDL
