MODEL 1
REMARK VINA RESULT:      -8.3      0.000      0.000
REMARK  Name = C:\Users\Docking\Desktop\test protocol\1iep_ligandH.pdb
REMARK  8 active torsions:
REMARK  status: ('A' for Active; 'I' for Inactive)
REMARK    1  A    between atoms: _5  and  _11
REMARK    2  A    between atoms: _19  and  _21
REMARK    3  A    between atoms: _22  and  _66
REMARK    4  A    between atoms: _27  and  _30
REMARK    5  A    between atoms: _32  and  _33
REMARK    6  A    between atoms: _38  and  _43
REMARK    7  A    between atoms: _43  and  _46
REMARK    8  A    between atoms: _53  and  _55
REMARK                            x       y       z     vdW  Elec       q    Type
REMARK                         _______ _______ _______ _____ _____    ______ ____
ROOT
ATOM     10  C   UNL     1      45.722  10.295  17.152  0.00  0.00    +0.038 A 
ATOM     11  C   UNL     1      45.729  11.667  17.513  0.00  0.00    +0.047 A 
ATOM     12  C   UNL     1      45.509  12.707  16.520  0.00  0.00    +0.035 A 
ATOM     32  C   UNL     1      45.282  12.315  15.169  0.00  0.00    +0.024 A 
ATOM     33  C   UNL     1      45.273  10.925  14.784  0.00  0.00    +0.007 A 
ATOM     34  C   UNL     1      45.493   9.895  15.758  0.00  0.00    -0.029 A 
ATOM     35  C   UNL     1      45.479   8.422  15.288  0.00  0.00    +0.045 C 
ENDROOT
BRANCH  10   9
ATOM      4  C   UNL     1      48.566   7.974  20.244  0.00  0.00    +0.077 A 
ATOM      5  C   UNL     1      49.723   8.712  19.826  0.00  0.00    +0.048 A 
ATOM      6  C   UNL     1      49.545   9.675  18.807  0.00  0.00    +0.116 A 
ATOM      7  N   UNL     1      48.298   9.877  18.255  0.00  0.00    -0.223 NA
ATOM      8  C   UNL     1      47.204   9.146  18.681  0.00  0.00    +0.220 A 
ATOM      9  N   UNL     1      45.939   9.338  18.145  0.00  0.00    -0.283 N 
ATOM     36  H   UNL     1      45.159   8.774  18.481  0.00  0.00    +0.155 HD
ATOM     37  N   UNL     1      47.348   8.220  19.651  0.00  0.00    -0.214 NA
BRANCH   4   3
ATOM      1  C   UNL     1      49.546   5.888  23.404  0.00  0.00    +0.020 A 
ATOM      2  C   UNL     1      49.564   6.925  22.398  0.00  0.00    +0.013 A 
ATOM      3  C   UNL     1      48.592   6.925  21.312  0.00  0.00    +0.019 A 
ATOM     38  C   UNL     1      47.607   5.855  21.273  0.00  0.00    +0.120 A 
ATOM     39  N   UNL     1      47.615   4.869  22.255  0.00  0.00    -0.263 NA
ATOM     40  C   UNL     1      48.547   4.857  23.304  0.00  0.00    +0.111 A 
ENDBRANCH   4   3
ENDBRANCH  10   9
BRANCH  12  13
ATOM     13  N   UNL     1      45.512  14.116  16.826  0.00  0.00    -0.281 N 
ATOM     14  C   UNL     1      46.600  14.972  16.887  0.00  0.00    +0.248 C 
ATOM     30  O   UNL     1      47.766  14.608  16.896  0.00  0.00    -0.270 OA
ATOM     31  H   UNL     1      44.602  14.534  17.022  0.00  0.00    +0.155 HD
BRANCH  14  15
ATOM     15  C   UNL     1      46.356  16.445  16.962  0.00  0.00    +0.037 A 
ATOM     16  C   UNL     1      45.076  16.980  17.432  0.00  0.00    +0.013 A 
ATOM     17  C   UNL     1      44.861  18.405  17.479  0.00  0.00    +0.005 A 
ATOM     18  C   UNL     1      45.932  19.305  17.057  0.00  0.00    -0.033 A 
ATOM     28  C   UNL     1      47.194  18.747  16.600  0.00  0.00    +0.005 A 
ATOM     29  C   UNL     1      47.408  17.351  16.552  0.00  0.00    +0.013 A 
BRANCH  18  19
ATOM     19  C   UNL     1      45.784  20.838  17.054  0.00  0.00    +0.119 C 
BRANCH  19  20
ATOM     20  N   UNL     1      45.303  21.481  18.313  0.00  0.00    -0.302 NA
ATOM     21  C   UNL     1      44.094  22.389  18.069  0.00  0.00    +0.066 C 
ATOM     22  C   UNL     1      43.591  23.036  19.401  0.00  0.00    -0.064 C 
ATOM     23  N   UNL     1      44.734  23.818  20.049  0.00  0.00    +0.379 N 
ATOM     24  C   UNL     1      44.248  24.475  21.271  0.00  0.00    -0.096 C 
ATOM     25  H   UNL     1      45.044  24.617  19.336  0.00  0.00    -0.082 HD
ATOM     26  C   UNL     1      45.941  22.923  20.292  0.00  0.00    -0.064 C 
ATOM     27  C   UNL     1      46.415  22.262  18.968  0.00  0.00    +0.066 C 
ENDBRANCH  19  20
ENDBRANCH  18  19
ENDBRANCH  14  15
ENDBRANCH  12  13
TORSDOF 6
ENDMDL
MODEL 2
REMARK VINA RESULT:      -8.1     31.589     34.820
REMARK  Name = C:\Users\Docking\Desktop\test protocol\1iep_ligandH.pdb
REMARK  8 active torsions:
REMARK  status: ('A' for Active; 'I' for Inactive)
REMARK    1  A    between atoms: _5  and  _11
REMARK    2  A    between atoms: _19  and  _21
REMARK    3  A    between atoms: _22  and  _66
REMARK    4  A    between atoms: _27  and  _30
REMARK    5  A    between atoms: _32  and  _33
REMARK    6  A    between atoms: _38  and  _43
REMARK    7  A    between atoms: _43  and  _46
REMARK    8  A    between atoms: _53  and  _55
REMARK                            x       y       z     vdW  Elec       q    Type
REMARK                         _______ _______ _______ _____ _____    ______ ____
ROOT
ATOM     10  C   UNL     1      77.756   2.546   8.253  0.00  0.00    +0.038 A 
ATOM     11  C   UNL     1      76.959   2.484   7.081  0.00  0.00    +0.047 A 
ATOM     12  C   UNL     1      76.709   3.671   6.278  0.00  0.00    +0.035 A 
ATOM     32  C   UNL     1      77.290   4.904   6.696  0.00  0.00    +0.024 A 
ATOM     33  C   UNL     1      78.102   4.985   7.885  0.00  0.00    +0.007 A 
ATOM     34  C   UNL     1      78.349   3.818   8.682  0.00  0.00    -0.029 A 
ATOM     35  C   UNL     1      79.222   3.964   9.950  0.00  0.00    +0.045 C 
ENDROOT
BRANCH  10   9
ATOM      4  C   UNL     1      79.967  -1.650   8.993  0.00  0.00    +0.077 A 
ATOM      5  C   UNL     1      80.756  -1.511   7.804  0.00  0.00    +0.048 A 
ATOM      6  C   UNL     1      80.558  -0.349   7.026  0.00  0.00    +0.116 A 
ATOM      7  N   UNL     1      79.637   0.598   7.417  0.00  0.00    -0.223 NA
ATOM      8  C   UNL     1      78.890   0.432   8.569  0.00  0.00    +0.220 A 
ATOM      9  N   UNL     1      77.963   1.375   8.986  0.00  0.00    -0.283 N 
ATOM     36  H   UNL     1      77.427   1.213   9.838  0.00  0.00    +0.155 HD
ATOM     37  N   UNL     1      79.060  -0.670   9.329  0.00  0.00    -0.214 NA
BRANCH   4   3
ATOM      1  C   UNL     1      79.679  -5.242  10.514  0.00  0.00    +0.020 A 
ATOM      2  C   UNL     1      79.560  -4.145   9.582  0.00  0.00    +0.013 A 
ATOM      3  C   UNL     1      80.063  -2.820   9.922  0.00  0.00    +0.019 A 
ATOM     38  C   UNL     1      80.688  -2.638  11.224  0.00  0.00    +0.120 A 
ATOM     39  N   UNL     1      80.787  -3.713  12.102  0.00  0.00    -0.263 NA
ATOM     40  C   UNL     1      80.304  -4.991  11.786  0.00  0.00    +0.111 A 
ENDBRANCH   4   3
ENDBRANCH  10   9
BRANCH  12  13
ATOM     13  N   UNL     1      75.902   3.671   5.084  0.00  0.00    -0.281 N 
ATOM     14  C   UNL     1      74.856   4.521   4.763  0.00  0.00    +0.248 C 
ATOM     30  O   UNL     1      74.314   5.279   5.554  0.00  0.00    -0.270 OA
ATOM     31  H   UNL     1      76.129   2.959   4.390  0.00  0.00    +0.155 HD
BRANCH  14  15
ATOM     15  C   UNL     1      74.325   4.518   3.366  0.00  0.00    +0.037 A 
ATOM     16  C   UNL     1      75.226   4.526   2.211  0.00  0.00    +0.013 A 
ATOM     17  C   UNL     1      74.688   4.541   0.873  0.00  0.00    +0.005 A 
ATOM     18  C   UNL     1      73.240   4.545   0.684  0.00  0.00    -0.033 A 
ATOM     28  C   UNL     1      72.369   4.531   1.848  0.00  0.00    +0.005 A 
ATOM     29  C   UNL     1      72.892   4.518   3.160  0.00  0.00    +0.013 A 
BRANCH  18  19
ATOM     19  C   UNL     1      72.578   4.581  -0.706  0.00  0.00    +0.119 C 
BRANCH  19  20
ATOM     20  N   UNL     1      71.358   5.428  -0.860  0.00  0.00    -0.302 NA
ATOM     21  C   UNL     1      70.609   5.125  -2.161  0.00  0.00    +0.066 C 
ATOM     22  C   UNL     1      69.323   6.005  -2.296  0.00  0.00    -0.064 C 
ATOM     23  N   UNL     1      69.710   7.483  -2.225  0.00  0.00    +0.379 N 
ATOM     24  C   UNL     1      68.511   8.313  -2.410  0.00  0.00    -0.096 C 
ATOM     25  H   UNL     1      70.401   7.692  -3.075  0.00  0.00    -0.082 HD
ATOM     26  C   UNL     1      70.458   7.792  -0.936  0.00  0.00    -0.064 C 
ATOM     27  C   UNL     1      71.717   6.892  -0.798  0.00  0.00    +0.066 C 
ENDBRANCH  19  20
ENDBRANCH  18  19
ENDBRANCH  14  15
ENDBRANCH  12  13
TORSDOF 6
ENDMDL
MODEL 3
REMARK VINA RESULT:      -8.0     37.882     43.409
REMARK  Name = C:\Users\Docking\Desktop\test protocol\1iep_ligandH.pdb
REMARK  8 active torsions:
REMARK  status: ('A' for Active; 'I' for Inactive)
REMARK    1  A    between atoms: _5  and  _11
REMARK    2  A    between atoms: _19  and  _21
REMARK    3  A    between atoms: _22  and  _66
REMARK    4  A    between atoms: _27  and  _30
REMARK    5  A    between atoms: _32  and  _33
REMARK    6  A    between atoms: _38  and  _43
REMARK    7  A    between atoms: _43  and  _46
REMARK    8  A    between atoms: _53  and  _55
REMARK                            x       y       z     vdW  Elec       q    Type
REMARK                         _______ _______ _______ _____ _____    ______ ____
ROOT
ATOM     10  C   UNL     1      53.421 -24.197  24.172  0.00  0.00    +0.038 A 
ATOM     11  C   UNL     1      53.142 -25.209  25.126  0.00  0.00    +0.047 A 
ATOM     12  C   UNL     1      53.569 -25.077  26.510  0.00  0.00    +0.035 A 
ATOM     32  C   UNL     1      54.277 -23.899  26.890  0.00  0.00    +0.024 A 
ATOM     33  C   UNL     1      54.570 -22.861  25.933  0.00  0.00    +0.007 A 
ATOM     34  C   UNL     1      54.153 -22.987  24.566  0.00  0.00    -0.029 A 
ATOM     35  C   UNL     1      54.500 -21.845  23.582  0.00  0.00    +0.045 C 
ENDROOT
BRANCH  10   9
ATOM      4  C   UNL     1      54.046 -25.794  19.689  0.00  0.00    +0.077 A 
ATOM      5  C   UNL     1      55.358 -26.290  19.986  0.00  0.00    +0.048 A 
ATOM      6  C   UNL     1      55.839 -26.108  21.302  0.00  0.00    +0.116 A 
ATOM      7  N   UNL     1      55.056 -25.476  22.244  0.00  0.00    -0.223 NA
ATOM      8  C   UNL     1      53.795 -25.008  21.924  0.00  0.00    +0.220 A 
ATOM      9  N   UNL     1      52.987 -24.376  22.857  0.00  0.00    -0.283 N 
ATOM     36  H   UNL     1      52.066 -24.038  22.580  0.00  0.00    +0.155 HD
ATOM     37  N   UNL     1      53.314 -25.168  20.674  0.00  0.00    -0.214 NA
BRANCH   4   3
ATOM      1  C   UNL     1      52.872 -25.053  16.032  0.00  0.00    +0.020 A 
ATOM      2  C   UNL     1      53.517 -24.889  17.314  0.00  0.00    +0.013 A 
ATOM      3  C   UNL     1      53.398 -25.913  18.345  0.00  0.00    +0.019 A 
ATOM     38  C   UNL     1      52.613 -27.101  18.043  0.00  0.00    +0.120 A 
ATOM     39  N   UNL     1      52.002 -27.231  16.800  0.00  0.00    -0.263 NA
ATOM     40  C   UNL     1      52.108 -26.251  15.802  0.00  0.00    +0.111 A 
ENDBRANCH   4   3
ENDBRANCH  10   9
BRANCH  12  13
ATOM     13  N   UNL     1      53.322 -26.076  27.521  0.00  0.00    -0.281 N 
ATOM     14  C   UNL     1      52.109 -26.636  27.886  0.00  0.00    +0.248 C 
ATOM     30  O   UNL     1      51.018 -26.205  27.542  0.00  0.00    -0.270 OA
ATOM     31  H   UNL     1      54.141 -26.410  28.029  0.00  0.00    +0.155 HD
BRANCH  14  15
ATOM     15  C   UNL     1      52.106 -27.840  28.771  0.00  0.00    +0.037 A 
ATOM     16  C   UNL     1      52.655 -29.119  28.316  0.00  0.00    +0.013 A 
ATOM     17  C   UNL     1      52.625 -30.269  29.184  0.00  0.00    +0.005 A 
ATOM     18  C   UNL     1      52.044 -30.144  30.519  0.00  0.00    -0.033 A 
ATOM     28  C   UNL     1      51.512 -28.861  30.947  0.00  0.00    +0.005 A 
ATOM     29  C   UNL     1      51.538 -27.732  30.098  0.00  0.00    +0.013 A 
BRANCH  18  19
ATOM     19  C   UNL     1      51.951 -31.324  31.504  0.00  0.00    +0.119 C 
BRANCH  19  20
ATOM     20  N   UNL     1      52.925 -31.349  32.636  0.00  0.00    -0.302 NA
ATOM     21  C   UNL     1      52.994 -30.003  33.364  0.00  0.00    +0.066 C 
ATOM     22  C   UNL     1      54.002 -30.054  34.558  0.00  0.00    -0.064 C 
ATOM     23  N   UNL     1      55.382 -30.461  34.041  0.00  0.00    +0.379 N 
ATOM     24  C   UNL     1      56.345 -30.453  35.152  0.00  0.00    -0.096 C 
ATOM     25  H   UNL     1      55.708 -29.689  33.305  0.00  0.00    -0.082 HD
ATOM     26  C   UNL     1      55.322 -31.796  33.313  0.00  0.00    -0.064 C 
ATOM     27  C   UNL     1      54.297 -31.744  32.146  0.00  0.00    +0.066 C 
ENDBRANCH  19  20
ENDBRANCH  18  19
ENDBRANCH  14  15
ENDBRANCH  12  13
TORSDOF 6
ENDMDL
MODEL 4
REMARK VINA RESULT:      -7.9      8.249     10.872
REMARK  Name = C:\Users\Docking\Desktop\test protocol\1iep_ligandH.pdb
REMARK  8 active torsions:
REMARK  status: ('A' for Active; 'I' for Inactive)
REMARK    1  A    between atoms: _5  and  _11
REMARK    2  A    between atoms: _19  and  _21
REMARK    3  A    between atoms: _22  and  _66
REMARK    4  A    between atoms: _27  and  _30
REMARK    5  A    between atoms: _32  and  _33
REMARK    6  A    between atoms: _38  and  _43
REMARK    7  A    between atoms: _43  and  _46
REMARK    8  A    between atoms: _53  and  _55
REMARK                            x       y       z     vdW  Elec       q    Type
REMARK                         _______ _______ _______ _____ _____    ______ ____
ROOT
ATOM     10  C   UNL     1      47.650  16.783  20.224  0.00  0.00    +0.038 A 
ATOM     11  C   UNL     1      48.591  16.486  21.242  0.00  0.00    +0.047 A 
ATOM     12  C   UNL     1      49.277  17.545  21.966  0.00  0.00    +0.035 A 
ATOM     32  C   UNL     1      48.978  18.897  21.628  0.00  0.00    +0.024 A 
ATOM     33  C   UNL     1      48.025  19.218  20.594  0.00  0.00    +0.007 A 
ATOM     34  C   UNL     1      47.347  18.177  19.876  0.00  0.00    -0.029 A 
ATOM     35  C   UNL     1      46.340  18.579  18.773  0.00  0.00    +0.045 C 
ENDROOT
BRANCH  10   9
ATOM      4  C   UNL     1      47.319  13.661  16.593  0.00  0.00    +0.077 A 
ATOM      5  C   UNL     1      48.482  14.198  15.948  0.00  0.00    +0.048 A 
ATOM      6  C   UNL     1      49.133  15.281  16.579  0.00  0.00    +0.116 A 
ATOM      7  N   UNL     1      48.648  15.783  17.768  0.00  0.00    -0.223 NA
ATOM      8  C   UNL     1      47.522  15.243  18.362  0.00  0.00    +0.220 A 
ATOM      9  N   UNL     1      47.021  15.727  19.561  0.00  0.00    -0.283 N 
ATOM     36  H   UNL     1      46.184  15.306  19.964  0.00  0.00    +0.155 HD
ATOM     37  N   UNL     1      46.882  14.209  17.779  0.00  0.00    -0.214 NA
BRANCH   4   3
ATOM      1  C   UNL     1      44.349  11.383  15.459  0.00  0.00    +0.020 A 
ATOM      2  C   UNL     1      45.068  12.516  15.992  0.00  0.00    +0.013 A 
ATOM      3  C   UNL     1      46.524  12.514  16.051  0.00  0.00    +0.019 A 
ATOM     38  C   UNL     1      47.228  11.339  15.559  0.00  0.00    +0.120 A 
ATOM     39  N   UNL     1      46.509  10.261  15.052  0.00  0.00    -0.263 NA
ATOM     40  C   UNL     1      45.107  10.252  14.991  0.00  0.00    +0.111 A 
ENDBRANCH   4   3
ENDBRANCH  10   9
BRANCH  12  13
ATOM     13  N   UNL     1      50.248  17.304  23.004  0.00  0.00    -0.281 N 
ATOM     14  C   UNL     1      51.626  17.225  22.880  0.00  0.00    +0.248 C 
ATOM     30  O   UNL     1      52.220  17.138  21.816  0.00  0.00    -0.270 OA
ATOM     31  H   UNL     1      49.875  17.175  23.945  0.00  0.00    +0.155 HD
BRANCH  14  15
ATOM     15  C   UNL     1      52.463  17.230  24.118  0.00  0.00    +0.037 A 
ATOM     16  C   UNL     1      53.702  18.008  24.195  0.00  0.00    +0.013 A 
ATOM     17  C   UNL     1      54.500  17.981  25.395  0.00  0.00    +0.005 A 
ATOM     18  C   UNL     1      54.060  17.173  26.529  0.00  0.00    -0.033 A 
ATOM     28  C   UNL     1      52.825  16.414  26.428  0.00  0.00    +0.005 A 
ATOM     29  C   UNL     1      52.040  16.438  25.253  0.00  0.00    +0.013 A 
BRANCH  18  19
ATOM     19  C   UNL     1      54.860  17.068  27.841  0.00  0.00    +0.119 C 
BRANCH  19  20
ATOM     20  N   UNL     1      54.103  16.702  29.076  0.00  0.00    -0.302 NA
ATOM     21  C   UNL     1      54.329  17.708  30.208  0.00  0.00    +0.066 C 
ATOM     22  C   UNL     1      53.512  17.322  31.484  0.00  0.00    -0.064 C 
ATOM     23  N   UNL     1      53.902  15.911  31.928  0.00  0.00    +0.379 N 
ATOM     24  C   UNL     1      53.179  15.568  33.161  0.00  0.00    -0.096 C 
ATOM     25  H   UNL     1      54.992  15.921  32.166  0.00  0.00    -0.082 HD
ATOM     26  C   UNL     1      53.684  14.905  30.807  0.00  0.00    -0.064 C 
ATOM     27  C   UNL     1      54.476  15.314  29.534  0.00  0.00    +0.066 C 
ENDBRANCH  19  20
ENDBRANCH  18  19
ENDBRANCH  14  15
ENDBRANCH  12  13
TORSDOF 6
ENDMDL
MODEL 5
REMARK VINA RESULT:      -7.7     34.588     39.785
REMARK  Name = C:\Users\Docking\Desktop\test protocol\1iep_ligandH.pdb
REMARK  8 active torsions:
REMARK  status: ('A' for Active; 'I' for Inactive)
REMARK    1  A    between atoms: _5  and  _11
REMARK    2  A    between atoms: _19  and  _21
REMARK    3  A    between atoms: _22  and  _66
REMARK    4  A    between atoms: _27  and  _30
REMARK    5  A    between atoms: _32  and  _33
REMARK    6  A    between atoms: _38  and  _43
REMARK    7  A    between atoms: _43  and  _46
REMARK    8  A    between atoms: _53  and  _55
REMARK                            x       y       z     vdW  Elec       q    Type
REMARK                         _______ _______ _______ _____ _____    ______ ____
ROOT
ATOM     10  C   UNL     1      79.250   7.271  35.324  0.00  0.00    +0.038 A 
ATOM     11  C   UNL     1      78.967   5.886  35.212  0.00  0.00    +0.047 A 
ATOM     12  C   UNL     1      79.216   4.975  36.319  0.00  0.00    +0.035 A 
ATOM     32  C   UNL     1      79.752   5.510  37.527  0.00  0.00    +0.024 A 
ATOM     33  C   UNL     1      80.047   6.915  37.657  0.00  0.00    +0.007 A 
ATOM     34  C   UNL     1      79.806   7.818  36.568  0.00  0.00    -0.029 A 
ATOM     35  C   UNL     1      80.147   9.314  36.762  0.00  0.00    +0.045 C 
ENDROOT
BRANCH  10   9
ATOM      4  C   UNL     1      80.425   9.153  31.068  0.00  0.00    +0.077 A 
ATOM      5  C   UNL     1      81.673   8.446  31.033  0.00  0.00    +0.048 A 
ATOM      6  C   UNL     1      81.978   7.613  32.133  0.00  0.00    +0.116 A 
ATOM      7  N   UNL     1      81.093   7.504  33.185  0.00  0.00    -0.223 NA
ATOM      8  C   UNL     1      79.899   8.201  33.187  0.00  0.00    +0.220 A 
ATOM      9  N   UNL     1      78.991   8.100  34.230  0.00  0.00    -0.283 N 
ATOM     36  H   UNL     1      78.125   8.637  34.198  0.00  0.00    +0.155 HD
ATOM     37  N   UNL     1      79.586   9.004  32.149  0.00  0.00    -0.214 NA
BRANCH   4   3
ATOM      1  C   UNL     1      80.167  11.104  27.687  0.00  0.00    +0.020 A 
ATOM      2  C   UNL     1      80.659  10.206  28.707  0.00  0.00    +0.013 A 
ATOM      3  C   UNL     1      79.960  10.069  29.979  0.00  0.00    +0.019 A 
ATOM     38  C   UNL     1      78.757  10.860  30.188  0.00  0.00    +0.120 A 
ATOM     39  N   UNL     1      78.308  11.718  29.189  0.00  0.00    -0.263 NA
ATOM     40  C   UNL     1      78.973  11.859  27.962  0.00  0.00    +0.111 A 
ENDBRANCH   4   3
ENDBRANCH  10   9
BRANCH  12  13
ATOM     13  N   UNL     1      78.955   3.558  36.261  0.00  0.00    -0.281 N 
ATOM     14  C   UNL     1      79.876   2.525  36.212  0.00  0.00    +0.248 C 
ATOM     30  O   UNL     1      81.070   2.672  35.994  0.00  0.00    -0.270 OA
ATOM     31  H   UNL     1      77.973   3.284  36.256  0.00  0.00    +0.155 HD
BRANCH  14  15
ATOM     15  C   UNL     1      79.400   1.123  36.421  0.00  0.00    +0.037 A 
ATOM     16  C   UNL     1      78.530   0.776  37.547  0.00  0.00    +0.013 A 
ATOM     17  C   UNL     1      78.100  -0.586  37.735  0.00  0.00    +0.005 A 
ATOM     18  C   UNL     1      78.538  -1.613  36.793  0.00  0.00    -0.033 A 
ATOM     28  C   UNL     1      79.397  -1.240  35.681  0.00  0.00    +0.005 A 
ATOM     29  C   UNL     1      79.822   0.095  35.494  0.00  0.00    +0.013 A 
BRANCH  18  19
ATOM     19  C   UNL     1      78.145  -3.096  36.928  0.00  0.00    +0.119 C 
BRANCH  19  20
ATOM     20  N   UNL     1      77.114  -3.439  37.953  0.00  0.00    -0.302 NA
ATOM     21  C   UNL     1      77.734  -4.065  39.205  0.00  0.00    +0.066 C 
ATOM     22  C   UNL     1      76.644  -4.397  40.275  0.00  0.00    -0.064 C 
ATOM     23  N   UNL     1      75.600  -5.332  39.662  0.00  0.00    +0.379 N 
ATOM     24  C   UNL     1      74.605  -5.692  40.683  0.00  0.00    -0.096 C 
ATOM     25  H   UNL     1      76.122  -6.267  39.354  0.00  0.00    -0.082 HD
ATOM     26  C   UNL     1      74.979  -4.718  38.415  0.00  0.00    -0.064 C 
ATOM     27  C   UNL     1      76.074  -4.365  37.370  0.00  0.00    +0.066 C 
ENDBRANCH  19  20
ENDBRANCH  18  19
ENDBRANCH  14  15
ENDBRANCH  12  13
TORSDOF 6
ENDMDL
