MODEL 1
REMARK VINA RESULT:      -8.5      0.000      0.000
REMARK  Name = C:\Users\Docking\Desktop\test protocol\1iep_ligandH.pdb
REMARK  8 active torsions:
REMARK  status: ('A' for Active; 'I' for Inactive)
REMARK    1  A    between atoms: _5  and  _11
REMARK    2  A    between atoms: _19  and  _21
REMARK    3  A    between atoms: _22  and  _66
REMARK    4  A    between atoms: _27  and  _30
REMARK    5  A    between atoms: _32  and  _33
REMARK    6  A    between atoms: _38  and  _43
REMARK    7  A    between atoms: _43  and  _46
REMARK    8  A    between atoms: _53  and  _55
REMARK                            x       y       z     vdW  Elec       q    Type
REMARK                         _______ _______ _______ _____ _____    ______ ____
ROOT
ATOM     10  C   UNL     1      41.777  13.534   9.507  0.00  0.00    +0.038 A 
ATOM     11  C   UNL     1      42.249  13.405  10.839  0.00  0.00    +0.047 A 
ATOM     12  C   UNL     1      42.895  12.184  11.294  0.00  0.00    +0.035 A 
ATOM     32  C   UNL     1      43.047  11.114  10.364  0.00  0.00    +0.024 A 
ATOM     33  C   UNL     1      42.572  11.227   9.008  0.00  0.00    +0.007 A 
ATOM     34  C   UNL     1      41.932  12.429   8.554  0.00  0.00    -0.029 A 
ATOM     35  C   UNL     1      41.437  12.492   7.090  0.00  0.00    +0.045 C 
ENDROOT
BRANCH  10   9
ATOM      4  C   UNL     1      41.929  17.981   7.709  0.00  0.00    +0.077 A 
ATOM      5  C   UNL     1      43.354  17.929   7.543  0.00  0.00    +0.048 A 
ATOM      6  C   UNL     1      44.010  16.743   7.940  0.00  0.00    +0.116 A 
ATOM      7  N   UNL     1      43.286  15.692   8.461  0.00  0.00    -0.223 NA
ATOM      8  C   UNL     1      41.914  15.776   8.609  0.00  0.00    +0.220 A 
ATOM      9  N   UNL     1      41.165  14.729   9.124  0.00  0.00    -0.283 N 
ATOM     36  H   UNL     1      40.155  14.833   9.225  0.00  0.00    +0.155 HD
ATOM     37  N   UNL     1      41.264  16.899   8.240  0.00  0.00    -0.214 NA
BRANCH   4   3
ATOM      1  C   UNL     1      39.380  20.945   7.845  0.00  0.00    +0.020 A 
ATOM      2  C   UNL     1      40.164  19.803   8.257  0.00  0.00    +0.013 A 
ATOM      3  C   UNL     1      41.093  19.165   7.334  0.00  0.00    +0.019 A 
ATOM     38  C   UNL     1      41.208  19.711   5.990  0.00  0.00    +0.120 A 
ATOM     39  N   UNL     1      40.439  20.811   5.620  0.00  0.00    -0.263 NA
ATOM     40  C   UNL     1      39.539  21.432   6.500  0.00  0.00    +0.111 A 
ENDBRANCH   4   3
ENDBRANCH  10   9
BRANCH  12  13
ATOM     13  N   UNL     1      43.386  11.992  12.636  0.00  0.00    -0.281 N 
ATOM     14  C   UNL     1      43.877  10.829  13.205  0.00  0.00    +0.248 C 
ATOM     30  O   UNL     1      43.768   9.717  12.709  0.00  0.00    -0.270 OA
ATOM     31  H   UNL     1      43.370  12.815  13.239  0.00  0.00    +0.155 HD
BRANCH  14  15
ATOM     15  C   UNL     1      44.577  10.909  14.523  0.00  0.00    +0.037 A 
ATOM     16  C   UNL     1      45.368  12.086  14.893  0.00  0.00    +0.013 A 
ATOM     17  C   UNL     1      46.047  12.131  16.164  0.00  0.00    +0.005 A 
ATOM     18  C   UNL     1      45.936  10.994  17.075  0.00  0.00    -0.033 A 
ATOM     28  C   UNL     1      45.140   9.842  16.686  0.00  0.00    +0.005 A 
ATOM     29  C   UNL     1      44.474   9.794  15.440  0.00  0.00    +0.013 A 
BRANCH  18  19
ATOM     19  C   UNL     1      46.643  10.947  18.443  0.00  0.00    +0.119 C 
BRANCH  19  20
ATOM     20  N   UNL     1      47.975  10.273  18.500  0.00  0.00    -0.302 NA
ATOM     21  C   UNL     1      48.027   9.196  19.587  0.00  0.00    +0.066 C 
ATOM     22  C   UNL     1      49.420   8.486  19.618  0.00  0.00    -0.064 C 
ATOM     23  N   UNL     1      50.517   9.530  19.837  0.00  0.00    +0.379 N 
ATOM     24  C   UNL     1      51.822   8.859  19.925  0.00  0.00    -0.096 C 
ATOM     25  H   UNL     1      50.323  10.023  20.818  0.00  0.00    -0.082 HD
ATOM     26  C   UNL     1      50.470  10.606  18.762  0.00  0.00    -0.064 C 
ATOM     27  C   UNL     1      49.072  11.285  18.720  0.00  0.00    +0.066 C 
ENDBRANCH  19  20
ENDBRANCH  18  19
ENDBRANCH  14  15
ENDBRANCH  12  13
TORSDOF 6
ENDMDL
MODEL 2
REMARK VINA RESULT:      -8.3     40.310     44.244
REMARK  Name = C:\Users\Docking\Desktop\test protocol\1iep_ligandH.pdb
REMARK  8 active torsions:
REMARK  status: ('A' for Active; 'I' for Inactive)
REMARK    1  A    between atoms: _5  and  _11
REMARK    2  A    between atoms: _19  and  _21
REMARK    3  A    between atoms: _22  and  _66
REMARK    4  A    between atoms: _27  and  _30
REMARK    5  A    between atoms: _32  and  _33
REMARK    6  A    between atoms: _38  and  _43
REMARK    7  A    between atoms: _43  and  _46
REMARK    8  A    between atoms: _53  and  _55
REMARK                            x       y       z     vdW  Elec       q    Type
REMARK                         _______ _______ _______ _____ _____    ______ ____
ROOT
ATOM     10  C   UNL     1      79.694   8.418  37.657  0.00  0.00    +0.038 A 
ATOM     11  C   UNL     1      79.950   7.374  36.731  0.00  0.00    +0.047 A 
ATOM     12  C   UNL     1      80.712   6.196  37.117  0.00  0.00    +0.035 A 
ATOM     32  C   UNL     1      81.196   6.113  38.455  0.00  0.00    +0.024 A 
ATOM     33  C   UNL     1      80.946   7.165  39.408  0.00  0.00    +0.007 A 
ATOM     34  C   UNL     1      80.197   8.331  39.033  0.00  0.00    -0.029 A 
ATOM     35  C   UNL     1      79.965   9.431  40.095  0.00  0.00    +0.045 C 
ENDROOT
BRANCH  10   9
ATOM      4  C   UNL     1      79.379  12.937  36.071  0.00  0.00    +0.077 A 
ATOM      5  C   UNL     1      80.802  13.114  36.116  0.00  0.00    +0.048 A 
ATOM      6  C   UNL     1      81.579  12.021  36.560  0.00  0.00    +0.116 A 
ATOM      7  N   UNL     1      80.967  10.842  36.929  0.00  0.00    -0.223 NA
ATOM      8  C   UNL     1      79.593  10.705  36.875  0.00  0.00    +0.220 A 
ATOM      9  N   UNL     1      78.957   9.526  37.233  0.00  0.00    -0.283 N 
ATOM     36  H   UNL     1      77.940   9.467  37.186  0.00  0.00    +0.155 HD
ATOM     37  N   UNL     1      78.829  11.735  36.456  0.00  0.00    -0.214 NA
BRANCH   4   3
ATOM      1  C   UNL     1      76.161  14.780  34.827  0.00  0.00    +0.020 A 
ATOM      2  C   UNL     1      77.042  13.718  35.255  0.00  0.00    +0.013 A 
ATOM      3  C   UNL     1      78.425  13.999  35.621  0.00  0.00    +0.019 A 
ATOM     38  C   UNL     1      78.888  15.376  35.544  0.00  0.00    +0.120 A 
ATOM     39  N   UNL     1      78.017  16.378  35.127  0.00  0.00    -0.263 NA
ATOM     40  C   UNL     1      76.685  16.119  34.770  0.00  0.00    +0.111 A 
ENDBRANCH   4   3
ENDBRANCH  10   9
BRANCH  12  13
ATOM     13  N   UNL     1      81.010   5.109  36.218  0.00  0.00    -0.281 N 
ATOM     14  C   UNL     1      80.439   3.847  36.189  0.00  0.00    +0.248 C 
ATOM     30  O   UNL     1      79.731   3.389  37.073  0.00  0.00    -0.270 OA
ATOM     31  H   UNL     1      81.730   5.291  35.519  0.00  0.00    +0.155 HD
BRANCH  14  15
ATOM     15  C   UNL     1      80.704   2.962  35.015  0.00  0.00    +0.037 A 
ATOM     16  C   UNL     1      80.782   1.506  35.163  0.00  0.00    +0.013 A 
ATOM     17  C   UNL     1      81.055   0.676  34.016  0.00  0.00    +0.005 A 
ATOM     18  C   UNL     1      81.252   1.301  32.711  0.00  0.00    -0.033 A 
ATOM     28  C   UNL     1      81.164   2.747  32.591  0.00  0.00    +0.005 A 
ATOM     29  C   UNL     1      80.897   3.564  33.713  0.00  0.00    +0.013 A 
BRANCH  18  19
ATOM     19  C   UNL     1      81.570   0.495  31.437  0.00  0.00    +0.119 C 
BRANCH  19  20
ATOM     20  N   UNL     1      82.703   0.973  30.590  0.00  0.00    -0.302 NA
ATOM     21  C   UNL     1      82.754   0.253  29.239  0.00  0.00    +0.066 C 
ATOM     22  C   UNL     1      83.932   0.781  28.357  0.00  0.00    -0.064 C 
ATOM     23  N   UNL     1      85.250   0.607  29.114  0.00  0.00    +0.379 N 
ATOM     24  C   UNL     1      86.365   1.049  28.264  0.00  0.00    -0.096 C 
ATOM     25  H   UNL     1      85.385  -0.482  29.311  0.00  0.00    -0.082 HD
ATOM     26  C   UNL     1      85.207   1.317  30.459  0.00  0.00    -0.064 C 
ATOM     27  C   UNL     1      84.015   0.806  31.316  0.00  0.00    +0.066 C 
ENDBRANCH  19  20
ENDBRANCH  18  19
ENDBRANCH  14  15
ENDBRANCH  12  13
TORSDOF 6
ENDMDL
MODEL 3
REMARK VINA RESULT:      -8.1     44.040     45.337
REMARK  Name = C:\Users\Docking\Desktop\test protocol\1iep_ligandH.pdb
REMARK  8 active torsions:
REMARK  status: ('A' for Active; 'I' for Inactive)
REMARK    1  A    between atoms: _5  and  _11
REMARK    2  A    between atoms: _19  and  _21
REMARK    3  A    between atoms: _22  and  _66
REMARK    4  A    between atoms: _27  and  _30
REMARK    5  A    between atoms: _32  and  _33
REMARK    6  A    between atoms: _38  and  _43
REMARK    7  A    between atoms: _43  and  _46
REMARK    8  A    between atoms: _53  and  _55
REMARK                            x       y       z     vdW  Elec       q    Type
REMARK                         _______ _______ _______ _____ _____    ______ ____
ROOT
ATOM     10  C   UNL     1      79.397   1.599  36.398  0.00  0.00    +0.038 A 
ATOM     11  C   UNL     1      78.540   0.829  37.225  0.00  0.00    +0.047 A 
ATOM     12  C   UNL     1      78.593  -0.625  37.217  0.00  0.00    +0.035 A 
ATOM     32  C   UNL     1      79.533  -1.262  36.355  0.00  0.00    +0.024 A 
ATOM     33  C   UNL     1      80.411  -0.494  35.507  0.00  0.00    +0.007 A 
ATOM     34  C   UNL     1      80.362   0.940  35.510  0.00  0.00    -0.029 A 
ATOM     35  C   UNL     1      81.322   1.712  34.575  0.00  0.00    +0.045 C 
ENDROOT
BRANCH  10   9
ATOM      4  C   UNL     1      80.554   5.855  38.291  0.00  0.00    +0.077 A 
ATOM      5  C   UNL     1      81.395   5.252  39.284  0.00  0.00    +0.048 A 
ATOM      6  C   UNL     1      81.497   3.842  39.278  0.00  0.00    +0.116 A 
ATOM      7  N   UNL     1      80.806   3.102  38.344  0.00  0.00    -0.223 NA
ATOM      8  C   UNL     1      80.002   3.716  37.401  0.00  0.00    +0.220 A 
ATOM      9  N   UNL     1      79.304   2.992  36.447  0.00  0.00    -0.283 N 
ATOM     36  H   UNL     1      78.715   3.481  35.773  0.00  0.00    +0.155 HD
ATOM     37  N   UNL     1      79.887   5.060  37.386  0.00  0.00    -0.214 NA
BRANCH   4   3
ATOM      1  C   UNL     1      79.919   9.621  39.139  0.00  0.00    +0.020 A 
ATOM      2  C   UNL     1      80.113   8.200  39.314  0.00  0.00    +0.013 A 
ATOM      3  C   UNL     1      80.347   7.333  38.166  0.00  0.00    +0.019 A 
ATOM     38  C   UNL     1      80.380   7.940  36.844  0.00  0.00    +0.120 A 
ATOM     39  N   UNL     1      80.189   9.312  36.706  0.00  0.00    -0.263 NA
ATOM     40  C   UNL     1      79.961  10.155  37.804  0.00  0.00    +0.111 A 
ENDBRANCH   4   3
ENDBRANCH  10   9
BRANCH  12  13
ATOM     13  N   UNL     1      77.742  -1.460  38.028  0.00  0.00    -0.281 N 
ATOM     14  C   UNL     1      77.944  -1.863  39.338  0.00  0.00    +0.248 C 
ATOM     30  O   UNL     1      78.997  -1.740  39.945  0.00  0.00    -0.270 OA
ATOM     31  H   UNL     1      76.888  -1.795  37.583  0.00  0.00    +0.155 HD
BRANCH  14  15
ATOM     15  C   UNL     1      76.816  -2.508  40.077  0.00  0.00    +0.037 A 
ATOM     16  C   UNL     1      76.628  -2.295  41.514  0.00  0.00    +0.013 A 
ATOM     17  C   UNL     1      75.542  -2.943  42.205  0.00  0.00    +0.005 A 
ATOM     18  C   UNL     1      74.634  -3.811  41.459  0.00  0.00    -0.033 A 
ATOM     28  C   UNL     1      74.841  -4.001  40.033  0.00  0.00    +0.005 A 
ATOM     29  C   UNL     1      75.905  -3.368  39.352  0.00  0.00    +0.013 A 
BRANCH  18  19
ATOM     19  C   UNL     1      73.461  -4.559  42.119  0.00  0.00    +0.119 C 
BRANCH  19  20
ATOM     20  N   UNL     1      72.577  -3.776  43.033  0.00  0.00    -0.302 NA
ATOM     21  C   UNL     1      71.399  -4.609  43.547  0.00  0.00    +0.066 C 
ATOM     22  C   UNL     1      70.498  -3.780  44.519  0.00  0.00    -0.064 C 
ATOM     23  N   UNL     1      70.002  -2.523  43.804  0.00  0.00    +0.379 N 
ATOM     24  C   UNL     1      69.107  -1.771  44.697  0.00  0.00    -0.096 C 
ATOM     25  H   UNL     1      69.403  -2.850  42.922  0.00  0.00    -0.082 HD
ATOM     26  C   UNL     1      71.167  -1.690  43.288  0.00  0.00    -0.064 C 
ATOM     27  C   UNL     1      72.072  -2.532  42.345  0.00  0.00    +0.066 C 
ENDBRANCH  19  20
ENDBRANCH  18  19
ENDBRANCH  14  15
ENDBRANCH  12  13
TORSDOF 6
ENDMDL
MODEL 4
REMARK VINA RESULT:      -8.1     31.114     35.046
REMARK  Name = C:\Users\Docking\Desktop\test protocol\1iep_ligandH.pdb
REMARK  8 active torsions:
REMARK  status: ('A' for Active; 'I' for Inactive)
REMARK    1  A    between atoms: _5  and  _11
REMARK    2  A    between atoms: _19  and  _21
REMARK    3  A    between atoms: _22  and  _66
REMARK    4  A    between atoms: _27  and  _30
REMARK    5  A    between atoms: _32  and  _33
REMARK    6  A    between atoms: _38  and  _43
REMARK    7  A    between atoms: _43  and  _46
REMARK    8  A    between atoms: _53  and  _55
REMARK                            x       y       z     vdW  Elec       q    Type
REMARK                         _______ _______ _______ _____ _____    ______ ____
ROOT
ATOM     10  C   UNL     1      70.931  -6.640   1.330  0.00  0.00    +0.038 A 
ATOM     11  C   UNL     1      69.678  -7.058   1.846  0.00  0.00    +0.047 A 
ATOM     12  C   UNL     1      69.571  -7.661   3.166  0.00  0.00    +0.035 A 
ATOM     32  C   UNL     1      70.761  -7.820   3.935  0.00  0.00    +0.024 A 
ATOM     33  C   UNL     1      72.043  -7.402   3.425  0.00  0.00    +0.007 A 
ATOM     34  C   UNL     1      72.155  -6.809   2.123  0.00  0.00    -0.029 A 
ATOM     35  C   UNL     1      73.556  -6.385   1.625  0.00  0.00    +0.045 C 
ENDROOT
BRANCH  10   9
ATOM      4  C   UNL     1      71.090  -6.970  -3.456  0.00  0.00    +0.077 A 
ATOM      5  C   UNL     1      71.112  -8.404  -3.415  0.00  0.00    +0.048 A 
ATOM      6  C   UNL     1      71.088  -9.018  -2.143  0.00  0.00    +0.116 A 
ATOM      7  N   UNL     1      71.046  -8.245  -1.002  0.00  0.00    -0.223 NA
ATOM      8  C   UNL     1      71.027  -6.864  -1.077  0.00  0.00    +0.220 A 
ATOM      9  N   UNL     1      70.976  -6.068   0.057  0.00  0.00    -0.283 N 
ATOM     36  H   UNL     1      70.971  -5.053  -0.040  0.00  0.00    +0.155 HD
ATOM     37  N   UNL     1      71.050  -6.254  -2.280  0.00  0.00    -0.214 NA
BRANCH   4   3
ATOM      1  C   UNL     1      71.273  -4.007  -6.003  0.00  0.00    +0.020 A 
ATOM      2  C   UNL     1      71.263  -4.727  -4.750  0.00  0.00    +0.013 A 
ATOM      3  C   UNL     1      71.107  -6.176  -4.724  0.00  0.00    +0.019 A 
ATOM     38  C   UNL     1      70.963  -6.872  -5.994  0.00  0.00    +0.120 A 
ATOM     39  N   UNL     1      70.975  -6.152  -7.185  0.00  0.00    -0.263 NA
ATOM     40  C   UNL     1      71.123  -4.757  -7.222  0.00  0.00    +0.111 A 
ENDBRANCH   4   3
ENDBRANCH  10   9
BRANCH  12  13
ATOM     13  N   UNL     1      68.327  -8.112   3.739  0.00  0.00    -0.281 N 
ATOM     14  C   UNL     1      67.220  -7.351   4.078  0.00  0.00    +0.248 C 
ATOM     30  O   UNL     1      67.212  -6.130   4.137  0.00  0.00    -0.270 OA
ATOM     31  H   UNL     1      68.254  -9.114   3.917  0.00  0.00    +0.155 HD
BRANCH  14  15
ATOM     15  C   UNL     1      65.941  -8.047   4.413  0.00  0.00    +0.037 A 
ATOM     16  C   UNL     1      64.892  -7.378   5.188  0.00  0.00    +0.013 A 
ATOM     17  C   UNL     1      63.675  -8.079   5.512  0.00  0.00    +0.005 A 
ATOM     18  C   UNL     1      63.499  -9.456   5.060  0.00  0.00    -0.033 A 
ATOM     28  C   UNL     1      64.553 -10.094   4.288  0.00  0.00    +0.005 A 
ATOM     29  C   UNL     1      65.748  -9.411   3.970  0.00  0.00    +0.013 A 
BRANCH  18  19
ATOM     19  C   UNL     1      62.241 -10.287   5.378  0.00  0.00    +0.119 C 
BRANCH  19  20
ATOM     20  N   UNL     1      61.935 -11.437   4.475  0.00  0.00    -0.302 NA
ATOM     21  C   UNL     1      61.337 -10.978   3.143  0.00  0.00    +0.066 C 
ATOM     22  C   UNL     1      61.044 -12.191   2.202  0.00  0.00    -0.064 C 
ATOM     23  N   UNL     1      60.102 -13.166   2.911  0.00  0.00    +0.379 N 
ATOM     24  C   UNL     1      59.778 -14.280   2.007  0.00  0.00    -0.096 C 
ATOM     25  H   UNL     1      59.154 -12.622   3.130  0.00  0.00    -0.082 HD
ATOM     26  C   UNL     1      60.688 -13.626   4.238  0.00  0.00    -0.064 C 
ATOM     27  C   UNL     1      61.003 -12.410   5.154  0.00  0.00    +0.066 C 
ENDBRANCH  19  20
ENDBRANCH  18  19
ENDBRANCH  14  15
ENDBRANCH  12  13
TORSDOF 6
ENDMDL
MODEL 5
REMARK VINA RESULT:      -8.0     23.190     26.129
REMARK  Name = C:\Users\Docking\Desktop\test protocol\1iep_ligandH.pdb
REMARK  8 active torsions:
REMARK  status: ('A' for Active; 'I' for Inactive)
REMARK    1  A    between atoms: _5  and  _11
REMARK    2  A    between atoms: _19  and  _21
REMARK    3  A    between atoms: _22  and  _66
REMARK    4  A    between atoms: _27  and  _30
REMARK    5  A    between atoms: _32  and  _33
REMARK    6  A    between atoms: _38  and  _43
REMARK    7  A    between atoms: _43  and  _46
REMARK    8  A    between atoms: _53  and  _55
REMARK                            x       y       z     vdW  Elec       q    Type
REMARK                         _______ _______ _______ _____ _____    ______ ____
ROOT
ATOM     10  C   UNL     1      67.724  10.852   0.785  0.00  0.00    +0.038 A 
ATOM     11  C   UNL     1      66.585  10.490   1.550  0.00  0.00    +0.047 A 
ATOM     12  C   UNL     1      65.380  11.303   1.536  0.00  0.00    +0.035 A 
ATOM     32  C   UNL     1      65.367  12.479   0.731  0.00  0.00    +0.024 A 
ATOM     33  C   UNL     1      66.516  12.863  -0.051  0.00  0.00    +0.007 A 
ATOM     34  C   UNL     1      67.709  12.066  -0.040  0.00  0.00    -0.029 A 
ATOM     35  C   UNL     1      68.912  12.530  -0.893  0.00  0.00    +0.045 C 
ENDROOT
BRANCH  10   9
ATOM      4  C   UNL     1      70.318   7.119  -0.752  0.00  0.00    +0.077 A 
ATOM      5  C   UNL     1      69.324   6.750  -1.719  0.00  0.00    +0.048 A 
ATOM      6  C   UNL     1      68.157   7.543  -1.783  0.00  0.00    +0.116 A 
ATOM      7  N   UNL     1      68.005   8.622  -0.939  0.00  0.00    -0.223 NA
ATOM      8  C   UNL     1      68.983   8.949  -0.017  0.00  0.00    +0.220 A 
ATOM      9  N   UNL     1      68.855  10.035   0.835  0.00  0.00    -0.283 N 
ATOM     36  H   UNL     1      69.595  10.238   1.507  0.00  0.00    +0.155 HD
ATOM     37  N   UNL     1      70.106   8.207   0.065  0.00  0.00    -0.214 NA
BRANCH   4   3
ATOM      1  C   UNL     1      73.738   5.884   0.692  0.00  0.00    +0.020 A 
ATOM      2  C   UNL     1      72.504   6.624   0.558  0.00  0.00    +0.013 A 
ATOM      3  C   UNL     1      71.608   6.381  -0.565  0.00  0.00    +0.019 A 
ATOM     38  C   UNL     1      71.991   5.373  -1.542  0.00  0.00    +0.120 A 
ATOM     39  N   UNL     1      73.186   4.676  -1.388  0.00  0.00    -0.263 NA
ATOM     40  C   UNL     1      74.057   4.903  -0.312  0.00  0.00    +0.111 A 
ENDBRANCH   4   3
ENDBRANCH  10   9
BRANCH  12  13
ATOM     13  N   UNL     1      64.196  10.989   2.298  0.00  0.00    -0.281 N 
ATOM     14  C   UNL     1      63.321  11.869   2.913  0.00  0.00    +0.248 C 
ATOM     30  O   UNL     1      63.543  13.059   3.083  0.00  0.00    -0.270 OA
ATOM     31  H   UNL     1      63.977   9.998   2.395  0.00  0.00    +0.155 HD
BRANCH  14  15
ATOM     15  C   UNL     1      62.017  11.350   3.427  0.00  0.00    +0.037 A 
ATOM     16  C   UNL     1      60.881  12.245   3.658  0.00  0.00    +0.013 A 
ATOM     17  C   UNL     1      59.639  11.721   4.170  0.00  0.00    +0.005 A 
ATOM     18  C   UNL     1      59.528  10.292   4.454  0.00  0.00    -0.033 A 
ATOM     28  C   UNL     1      60.670   9.426   4.211  0.00  0.00    +0.005 A 
ATOM     29  C   UNL     1      61.888   9.937   3.710  0.00  0.00    +0.013 A 
BRANCH  18  19
ATOM     19  C   UNL     1      58.250   9.649   5.023  0.00  0.00    +0.119 C 
BRANCH  19  20
ATOM     20  N   UNL     1      57.556   8.637   4.172  0.00  0.00    -0.302 NA
ATOM     21  C   UNL     1      57.065   9.237   2.851  0.00  0.00    +0.066 C 
ATOM     22  C   UNL     1      56.362   8.159   1.963  0.00  0.00    -0.064 C 
ATOM     23  N   UNL     1      55.201   7.539   2.742  0.00  0.00    +0.379 N 
ATOM     24  C   UNL     1      54.502   6.566   1.889  0.00  0.00    -0.096 C 
ATOM     25  H   UNL     1      54.482   8.355   2.983  0.00  0.00    -0.082 HD
ATOM     26  C   UNL     1      55.680   6.942   4.058  0.00  0.00    -0.064 C 
ATOM     27  C   UNL     1      56.403   8.015   4.920  0.00  0.00    +0.066 C 
ENDBRANCH  19  20
ENDBRANCH  18  19
ENDBRANCH  14  15
ENDBRANCH  12  13
TORSDOF 6
ENDMDL
