MODEL 1
REMARK VINA RESULT:      -9.8      0.000      0.000
REMARK  Name = C:\Users\Docking\Desktop\test protocol\1iep_ligandH.pdb
REMARK  8 active torsions:
REMARK  status: ('A' for Active; 'I' for Inactive)
REMARK    1  A    between atoms: _5  and  _11
REMARK    2  A    between atoms: _19  and  _21
REMARK    3  A    between atoms: _22  and  _66
REMARK    4  A    between atoms: _27  and  _30
REMARK    5  A    between atoms: _32  and  _33
REMARK    6  A    between atoms: _38  and  _43
REMARK    7  A    between atoms: _43  and  _46
REMARK    8  A    between atoms: _53  and  _55
REMARK                            x       y       z     vdW  Elec       q    Type
REMARK                         _______ _______ _______ _____ _____    ______ ____
ROOT
ATOM     10  C   UNL     1      26.364   7.934  45.204  0.00  0.00    +0.038 A 
ATOM     11  C   UNL     1      26.191   7.965  46.612  0.00  0.00    +0.047 A 
ATOM     12  C   UNL     1      24.870   7.860  47.211  0.00  0.00    +0.035 A 
ATOM     32  C   UNL     1      23.746   7.721  46.346  0.00  0.00    +0.024 A 
ATOM     33  C   UNL     1      23.902   7.688  44.913  0.00  0.00    +0.007 A 
ATOM     34  C   UNL     1      25.203   7.794  44.316  0.00  0.00    -0.029 A 
ATOM     35  C   UNL     1      25.311   7.759  42.774  0.00  0.00    +0.045 C 
ENDROOT
BRANCH  10   9
ATOM      4  C   UNL     1      30.026  10.494  43.452  0.00  0.00    +0.077 A 
ATOM      5  C   UNL     1      29.295  11.724  43.559  0.00  0.00    +0.048 A 
ATOM      6  C   UNL     1      27.977  11.653  44.063  0.00  0.00    +0.116 A 
ATOM      7  N   UNL     1      27.440  10.438  44.430  0.00  0.00    -0.223 NA
ATOM      8  C   UNL     1      28.172   9.270  44.313  0.00  0.00    +0.220 A 
ATOM      9  N   UNL     1      27.655   8.038  44.683  0.00  0.00    -0.283 N 
ATOM     36  H   UNL     1      28.225   7.199  44.574  0.00  0.00    +0.155 HD
ATOM     37  N   UNL     1      29.432   9.311  43.833  0.00  0.00    -0.214 NA
BRANCH   4   3
ATOM      1  C   UNL     1      33.858   9.760  43.174  0.00  0.00    +0.020 A 
ATOM      2  C   UNL     1      32.519   9.821  43.714  0.00  0.00    +0.013 A 
ATOM      3  C   UNL     1      31.430  10.406  42.941  0.00  0.00    +0.019 A 
ATOM     38  C   UNL     1      31.732  10.922  41.615  0.00  0.00    +0.120 A 
ATOM     39  N   UNL     1      33.031  10.851  41.121  0.00  0.00    -0.263 NA
ATOM     40  C   UNL     1      34.087  10.293  41.856  0.00  0.00    +0.111 A 
ENDBRANCH   4   3
ENDBRANCH  10   9
BRANCH  12  13
ATOM     13  N   UNL     1      24.633   7.894  48.632  0.00  0.00    -0.281 N 
ATOM     14  C   UNL     1      24.041   8.904  49.373  0.00  0.00    +0.248 C 
ATOM     30  O   UNL     1      23.818  10.030  48.953  0.00  0.00    -0.270 OA
ATOM     31  H   UNL     1      24.938   7.074  49.156  0.00  0.00    +0.155 HD
BRANCH  14  15
ATOM     15  C   UNL     1      23.655   8.629  50.791  0.00  0.00    +0.037 A 
ATOM     16  C   UNL     1      22.554   7.718  51.115  0.00  0.00    +0.013 A 
ATOM     17  C   UNL     1      22.191   7.484  52.490  0.00  0.00    +0.005 A 
ATOM     18  C   UNL     1      22.932   8.161  53.552  0.00  0.00    -0.033 A 
ATOM     28  C   UNL     1      24.023   9.055  53.202  0.00  0.00    +0.005 A 
ATOM     29  C   UNL     1      24.381   9.288  51.855  0.00  0.00    +0.013 A 
BRANCH  18  19
ATOM     19  C   UNL     1      22.599   7.986  55.046  0.00  0.00    +0.119 C 
BRANCH  19  20
ATOM     20  N   UNL     1      23.031   6.714  55.698  0.00  0.00    -0.302 NA
ATOM     21  C   UNL     1      22.627   6.659  57.174  0.00  0.00    +0.066 C 
ATOM     22  C   UNL     1      23.066   5.312  57.835  0.00  0.00    -0.064 C 
ATOM     23  N   UNL     1      24.579   5.141  57.681  0.00  0.00    +0.379 N 
ATOM     24  C   UNL     1      25.004   3.904  58.352  0.00  0.00    -0.096 C 
ATOM     25  H   UNL     1      25.070   5.995  58.203  0.00  0.00    -0.082 HD
ATOM     26  C   UNL     1      24.990   5.197  56.216  0.00  0.00    -0.064 C 
ATOM     27  C   UNL     1      24.522   6.527  55.562  0.00  0.00    +0.066 C 
ENDBRANCH  19  20
ENDBRANCH  18  19
ENDBRANCH  14  15
ENDBRANCH  12  13
TORSDOF 6
ENDMDL
MODEL 2
REMARK VINA RESULT:      -9.7      1.296      1.544
REMARK  Name = C:\Users\Docking\Desktop\test protocol\1iep_ligandH.pdb
REMARK  8 active torsions:
REMARK  status: ('A' for Active; 'I' for Inactive)
REMARK    1  A    between atoms: _5  and  _11
REMARK    2  A    between atoms: _19  and  _21
REMARK    3  A    between atoms: _22  and  _66
REMARK    4  A    between atoms: _27  and  _30
REMARK    5  A    between atoms: _32  and  _33
REMARK    6  A    between atoms: _38  and  _43
REMARK    7  A    between atoms: _43  and  _46
REMARK    8  A    between atoms: _53  and  _55
REMARK                            x       y       z     vdW  Elec       q    Type
REMARK                         _______ _______ _______ _____ _____    ______ ____
ROOT
ATOM     10  C   UNL     1      26.157   8.405  46.105  0.00  0.00    +0.038 A 
ATOM     11  C   UNL     1      26.138   8.458  47.522  0.00  0.00    +0.047 A 
ATOM     12  C   UNL     1      24.883   8.480  48.258  0.00  0.00    +0.035 A 
ATOM     32  C   UNL     1      23.666   8.444  47.517  0.00  0.00    +0.024 A 
ATOM     33  C   UNL     1      23.667   8.391  46.076  0.00  0.00    +0.007 A 
ATOM     34  C   UNL     1      24.902   8.372  45.346  0.00  0.00    -0.029 A 
ATOM     35  C   UNL     1      24.843   8.322  43.801  0.00  0.00    +0.045 C 
ENDROOT
BRANCH  10   9
ATOM      4  C   UNL     1      29.754  10.583  43.790  0.00  0.00    +0.077 A 
ATOM      5  C   UNL     1      29.109  11.862  43.868  0.00  0.00    +0.048 A 
ATOM      6  C   UNL     1      27.849  11.915  44.506  0.00  0.00    +0.116 A 
ATOM      7  N   UNL     1      27.286  10.768  45.024  0.00  0.00    -0.223 NA
ATOM      8  C   UNL     1      27.935   9.551  44.930  0.00  0.00    +0.220 A 
ATOM      9  N   UNL     1      27.391   8.386  45.450  0.00  0.00    -0.283 N 
ATOM     36  H   UNL     1      27.897   7.507  45.354  0.00  0.00    +0.155 HD
ATOM     37  N   UNL     1      29.138   9.473  44.324  0.00  0.00    -0.214 NA
BRANCH   4   3
ATOM      1  C   UNL     1      33.425   9.412  43.117  0.00  0.00    +0.020 A 
ATOM      2  C   UNL     1      32.153   9.592  43.778  0.00  0.00    +0.013 A 
ATOM      3  C   UNL     1      31.090  10.365  43.150  0.00  0.00    +0.019 A 
ATOM     38  C   UNL     1      31.347  10.946  41.841  0.00  0.00    +0.120 A 
ATOM     39  N   UNL     1      32.582  10.757  41.228  0.00  0.00    -0.263 NA
ATOM     40  C   UNL     1      33.614  10.016  41.825  0.00  0.00    +0.111 A 
ENDBRANCH   4   3
ENDBRANCH  10   9
BRANCH  12  13
ATOM     13  N   UNL     1      24.802   8.541  49.696  0.00  0.00    -0.281 N 
ATOM     14  C   UNL     1      24.179   9.504  50.473  0.00  0.00    +0.248 C 
ATOM     30  O   UNL     1      23.779  10.579  50.052  0.00  0.00    -0.270 OA
ATOM     31  H   UNL     1      25.258   7.782  50.202  0.00  0.00    +0.155 HD
BRANCH  14  15
ATOM     15  C   UNL     1      23.987   9.241  51.932  0.00  0.00    +0.037 A 
ATOM     16  C   UNL     1      23.060  10.044  52.733  0.00  0.00    +0.013 A 
ATOM     17  C   UNL     1      22.906   9.780  54.142  0.00  0.00    +0.005 A 
ATOM     18  C   UNL     1      23.681   8.706  54.758  0.00  0.00    -0.033 A 
ATOM     28  C   UNL     1      24.589   7.922  53.939  0.00  0.00    +0.005 A 
ATOM     29  C   UNL     1      24.744   8.178  52.558  0.00  0.00    +0.013 A 
BRANCH  18  19
ATOM     19  C   UNL     1      23.596   8.368  56.258  0.00  0.00    +0.119 C 
BRANCH  19  20
ATOM     20  N   UNL     1      23.417   6.932  56.627  0.00  0.00    -0.302 NA
ATOM     21  C   UNL     1      22.178   6.320  55.967  0.00  0.00    +0.066 C 
ATOM     22  C   UNL     1      22.018   4.811  56.345  0.00  0.00    -0.064 C 
ATOM     23  N   UNL     1      21.945   4.675  57.867  0.00  0.00    +0.379 N 
ATOM     24  C   UNL     1      21.737   3.264  58.223  0.00  0.00    -0.096 C 
ATOM     25  H   UNL     1      21.053   5.247  58.215  0.00  0.00    -0.082 HD
ATOM     26  C   UNL     1      23.172   5.283  58.531  0.00  0.00    -0.064 C 
ATOM     27  C   UNL     1      23.337   6.775  58.125  0.00  0.00    +0.066 C 
ENDBRANCH  19  20
ENDBRANCH  18  19
ENDBRANCH  14  15
ENDBRANCH  12  13
TORSDOF 6
ENDMDL
MODEL 3
REMARK VINA RESULT:      -9.6      2.022      2.638
REMARK  Name = C:\Users\Docking\Desktop\test protocol\1iep_ligandH.pdb
REMARK  8 active torsions:
REMARK  status: ('A' for Active; 'I' for Inactive)
REMARK    1  A    between atoms: _5  and  _11
REMARK    2  A    between atoms: _19  and  _21
REMARK    3  A    between atoms: _22  and  _66
REMARK    4  A    between atoms: _27  and  _30
REMARK    5  A    between atoms: _32  and  _33
REMARK    6  A    between atoms: _38  and  _43
REMARK    7  A    between atoms: _43  and  _46
REMARK    8  A    between atoms: _53  and  _55
REMARK                            x       y       z     vdW  Elec       q    Type
REMARK                         _______ _______ _______ _____ _____    ______ ____
ROOT
ATOM     10  C   UNL     1      26.136  10.736  46.637  0.00  0.00    +0.038 A 
ATOM     11  C   UNL     1      26.122  10.336  47.998  0.00  0.00    +0.047 A 
ATOM     12  C   UNL     1      24.870  10.103  48.701  0.00  0.00    +0.035 A 
ATOM     32  C   UNL     1      23.650  10.283  47.986  0.00  0.00    +0.024 A 
ATOM     33  C   UNL     1      23.646  10.690  46.603  0.00  0.00    +0.007 A 
ATOM     34  C   UNL     1      24.877  10.925  45.905  0.00  0.00    -0.029 A 
ATOM     35  C   UNL     1      24.812  11.366  44.424  0.00  0.00    +0.045 C 
ENDROOT
BRANCH  10   9
ATOM      4  C   UNL     1      30.035   9.155  44.329  0.00  0.00    +0.077 A 
ATOM      5  C   UNL     1      29.596   7.791  44.399  0.00  0.00    +0.048 A 
ATOM      6  C   UNL     1      28.365   7.538  45.044  0.00  0.00    +0.116 A 
ATOM      7  N   UNL     1      27.635   8.579  45.575  0.00  0.00    -0.223 NA
ATOM      8  C   UNL     1      28.088   9.883  45.491  0.00  0.00    +0.220 A 
ATOM      9  N   UNL     1      27.366  10.947  46.011  0.00  0.00    -0.283 N 
ATOM     36  H   UNL     1      27.738  11.893  45.936  0.00  0.00    +0.155 HD
ATOM     37  N   UNL     1      29.262  10.151  44.882  0.00  0.00    -0.214 NA
BRANCH   4   3
ATOM      1  C   UNL     1      33.829   9.739  43.575  0.00  0.00    +0.020 A 
ATOM      2  C   UNL     1      32.625   9.304  44.246  0.00  0.00    +0.013 A 
ATOM      3  C   UNL     1      31.313   9.583  43.676  0.00  0.00    +0.019 A 
ATOM     38  C   UNL     1      31.253  10.308  42.416  0.00  0.00    +0.120 A 
ATOM     39  N   UNL     1      32.429  10.716  41.794  0.00  0.00    -0.263 NA
ATOM     40  C   UNL     1      33.697  10.455  42.334  0.00  0.00    +0.111 A 
ENDBRANCH   4   3
ENDBRANCH  10   9
BRANCH  12  13
ATOM     13  N   UNL     1      24.794   9.703  50.084  0.00  0.00    -0.281 N 
ATOM     14  C   UNL     1      23.948  10.193  51.067  0.00  0.00    +0.248 C 
ATOM     30  O   UNL     1      23.272  11.204  50.955  0.00  0.00    -0.270 OA
ATOM     31  H   UNL     1      25.442   8.971  50.375  0.00  0.00    +0.155 HD
BRANCH  14  15
ATOM     15  C   UNL     1      23.852   9.461  52.366  0.00  0.00    +0.037 A 
ATOM     16  C   UNL     1      22.935   9.902  53.420  0.00  0.00    +0.013 A 
ATOM     17  C   UNL     1      22.873   9.189  54.671  0.00  0.00    +0.005 A 
ATOM     18  C   UNL     1      23.732   8.024  54.874  0.00  0.00    -0.033 A 
ATOM     28  C   UNL     1      24.628   7.605  53.809  0.00  0.00    +0.005 A 
ATOM     29  C   UNL     1      24.692   8.303  52.582  0.00  0.00    +0.013 A 
BRANCH  18  19
ATOM     19  C   UNL     1      23.748   7.215  56.184  0.00  0.00    +0.119 C 
BRANCH  19  20
ATOM     20  N   UNL     1      22.494   6.496  56.560  0.00  0.00    -0.302 NA
ATOM     21  C   UNL     1      22.656   5.695  57.854  0.00  0.00    +0.066 C 
ATOM     22  C   UNL     1      21.328   4.968  58.244  0.00  0.00    -0.064 C 
ATOM     23  N   UNL     1      20.892   4.057  57.095  0.00  0.00    +0.379 N 
ATOM     24  C   UNL     1      19.675   3.328  57.482  0.00  0.00    -0.096 C 
ATOM     25  H   UNL     1      21.700   3.306  56.934  0.00  0.00    -0.082 HD
ATOM     26  C   UNL     1      20.731   4.845  55.803  0.00  0.00    -0.064 C 
ATOM     27  C   UNL     1      22.047   5.588  55.440  0.00  0.00    +0.066 C 
ENDBRANCH  19  20
ENDBRANCH  18  19
ENDBRANCH  14  15
ENDBRANCH  12  13
TORSDOF 6
ENDMDL
MODEL 4
REMARK VINA RESULT:      -9.6      1.736      2.466
REMARK  Name = C:\Users\Docking\Desktop\test protocol\1iep_ligandH.pdb
REMARK  8 active torsions:
REMARK  status: ('A' for Active; 'I' for Inactive)
REMARK    1  A    between atoms: _5  and  _11
REMARK    2  A    between atoms: _19  and  _21
REMARK    3  A    between atoms: _22  and  _66
REMARK    4  A    between atoms: _27  and  _30
REMARK    5  A    between atoms: _32  and  _33
REMARK    6  A    between atoms: _38  and  _43
REMARK    7  A    between atoms: _43  and  _46
REMARK    8  A    between atoms: _53  and  _55
REMARK                            x       y       z     vdW  Elec       q    Type
REMARK                         _______ _______ _______ _____ _____    ______ ____
ROOT
ATOM     10  C   UNL     1      25.528  10.570  46.880  0.00  0.00    +0.038 A 
ATOM     11  C   UNL     1      25.457  10.114  48.221  0.00  0.00    +0.047 A 
ATOM     12  C   UNL     1      24.176   9.868  48.865  0.00  0.00    +0.035 A 
ATOM     32  C   UNL     1      22.987  10.094  48.112  0.00  0.00    +0.024 A 
ATOM     33  C   UNL     1      23.041  10.558  46.748  0.00  0.00    +0.007 A 
ATOM     34  C   UNL     1      24.301  10.805  46.109  0.00  0.00    -0.029 A 
ATOM     35  C   UNL     1      24.299  11.309  44.646  0.00  0.00    +0.045 C 
ENDROOT
BRANCH  10   9
ATOM      4  C   UNL     1      29.469   9.048  44.602  0.00  0.00    +0.077 A 
ATOM      5  C   UNL     1      28.996   7.694  44.565  0.00  0.00    +0.048 A 
ATOM      6  C   UNL     1      27.737   7.430  45.150  0.00  0.00    +0.116 A 
ATOM      7  N   UNL     1      27.013   8.452  45.725  0.00  0.00    -0.223 NA
ATOM      8  C   UNL     1      27.499   9.746  45.745  0.00  0.00    +0.220 A 
ATOM      9  N   UNL     1      26.784  10.791  46.311  0.00  0.00    -0.283 N 
ATOM     36  H   UNL     1      27.180  11.730  46.312  0.00  0.00    +0.155 HD
ATOM     37  N   UNL     1      28.699  10.024  45.195  0.00  0.00    -0.214 NA
BRANCH   4   3
ATOM      1  C   UNL     1      33.298   9.439  43.904  0.00  0.00    +0.020 A 
ATOM      2  C   UNL     1      32.061   8.984  44.498  0.00  0.00    +0.013 A 
ATOM      3  C   UNL     1      30.778   9.486  44.023  0.00  0.00    +0.019 A 
ATOM     38  C   UNL     1      30.780  10.454  42.937  0.00  0.00    +0.120 A 
ATOM     39  N   UNL     1      31.987  10.875  42.386  0.00  0.00    -0.263 NA
ATOM     40  C   UNL     1      33.228  10.400  42.835  0.00  0.00    +0.111 A 
ENDBRANCH   4   3
ENDBRANCH  10   9
BRANCH  12  13
ATOM     13  N   UNL     1      24.041   9.412  50.226  0.00  0.00    -0.281 N 
ATOM     14  C   UNL     1      23.495  10.093  51.302  0.00  0.00    +0.248 C 
ATOM     30  O   UNL     1      23.232  11.287  51.303  0.00  0.00    -0.270 OA
ATOM     31  H   UNL     1      24.390   8.474  50.420  0.00  0.00    +0.155 HD
BRANCH  14  15
ATOM     15  C   UNL     1      23.214   9.343  52.564  0.00  0.00    +0.037 A 
ATOM     16  C   UNL     1      23.178  10.024  53.861  0.00  0.00    +0.013 A 
ATOM     17  C   UNL     1      22.921   9.274  55.065  0.00  0.00    +0.005 A 
ATOM     18  C   UNL     1      22.698   7.833  54.977  0.00  0.00    -0.033 A 
ATOM     28  C   UNL     1      22.735   7.184  53.677  0.00  0.00    +0.005 A 
ATOM     29  C   UNL     1      22.987   7.916  52.495  0.00  0.00    +0.013 A 
BRANCH  18  19
ATOM     19  C   UNL     1      22.438   6.950  56.212  0.00  0.00    +0.119 C 
BRANCH  19  20
ATOM     20  N   UNL     1      23.354   5.791  56.428  0.00  0.00    -0.302 NA
ATOM     21  C   UNL     1      23.221   5.209  57.838  0.00  0.00    +0.066 C 
ATOM     22  C   UNL     1      24.170   3.983  58.040  0.00  0.00    -0.064 C 
ATOM     23  N   UNL     1      25.613   4.407  57.763  0.00  0.00    +0.379 N 
ATOM     24  C   UNL     1      26.514   3.272  58.008  0.00  0.00    -0.096 C 
ATOM     25  H   UNL     1      25.875   5.210  58.491  0.00  0.00    -0.082 HD
ATOM     26  C   UNL     1      25.754   4.990  56.364  0.00  0.00    -0.064 C 
ATOM     27  C   UNL     1      24.786   6.189  56.164  0.00  0.00    +0.066 C 
ENDBRANCH  19  20
ENDBRANCH  18  19
ENDBRANCH  14  15
ENDBRANCH  12  13
TORSDOF 6
ENDMDL
MODEL 5
REMARK VINA RESULT:      -9.4      2.110      3.391
REMARK  Name = C:\Users\Docking\Desktop\test protocol\1iep_ligandH.pdb
REMARK  8 active torsions:
REMARK  status: ('A' for Active; 'I' for Inactive)
REMARK    1  A    between atoms: _5  and  _11
REMARK    2  A    between atoms: _19  and  _21
REMARK    3  A    between atoms: _22  and  _66
REMARK    4  A    between atoms: _27  and  _30
REMARK    5  A    between atoms: _32  and  _33
REMARK    6  A    between atoms: _38  and  _43
REMARK    7  A    between atoms: _43  and  _46
REMARK    8  A    between atoms: _53  and  _55
REMARK                            x       y       z     vdW  Elec       q    Type
REMARK                         _______ _______ _______ _____ _____    ______ ____
ROOT
ATOM     10  C   UNL     1      24.945  10.051  47.834  0.00  0.00    +0.038 A 
ATOM     11  C   UNL     1      25.092   9.642  49.184  0.00  0.00    +0.047 A 
ATOM     12  C   UNL     1      23.935   9.309  50.000  0.00  0.00    +0.035 A 
ATOM     32  C   UNL     1      22.642   9.400  49.408  0.00  0.00    +0.024 A 
ATOM     33  C   UNL     1      22.474   9.814  48.037  0.00  0.00    +0.007 A 
ATOM     34  C   UNL     1      23.611  10.147  47.228  0.00  0.00    -0.029 A 
ATOM     35  C   UNL     1      23.371  10.592  45.767  0.00  0.00    +0.045 C 
ENDROOT
BRANCH  10   9
ATOM      4  C   UNL     1      28.564   8.828  44.929  0.00  0.00    +0.077 A 
ATOM      5  C   UNL     1      28.155   7.454  44.899  0.00  0.00    +0.048 A 
ATOM      6  C   UNL     1      27.011   7.101  45.651  0.00  0.00    +0.116 A 
ATOM      7  N   UNL     1      26.336   8.060  46.374  0.00  0.00    -0.223 NA
ATOM      8  C   UNL     1      26.759   9.376  46.383  0.00  0.00    +0.220 A 
ATOM      9  N   UNL     1      26.090  10.359  47.096  0.00  0.00    -0.283 N 
ATOM     36  H   UNL     1      26.438  11.317  47.083  0.00  0.00    +0.155 HD
ATOM     37  N   UNL     1      27.849   9.738  45.674  0.00  0.00    -0.214 NA
BRANCH   4   3
ATOM      1  C   UNL     1      32.162   9.244  43.450  0.00  0.00    +0.020 A 
ATOM      2  C   UNL     1      31.048   8.693  44.187  0.00  0.00    +0.013 A 
ATOM      3  C   UNL     1      29.751   9.356  44.183  0.00  0.00    +0.019 A 
ATOM     38  C   UNL     1      29.612  10.586  43.418  0.00  0.00    +0.120 A 
ATOM     39  N   UNL     1      30.702  11.095  42.719  0.00  0.00    -0.263 NA
ATOM     40  C   UNL     1      31.956  10.465  42.716  0.00  0.00    +0.111 A 
ENDBRANCH   4   3
ENDBRANCH  10   9
BRANCH  12  13
ATOM     13  N   UNL     1      24.023   8.895  51.379  0.00  0.00    -0.281 N 
ATOM     14  C   UNL     1      23.490   9.525  52.492  0.00  0.00    +0.248 C 
ATOM     30  O   UNL     1      23.036  10.659  52.493  0.00  0.00    -0.270 OA
ATOM     31  H   UNL     1      24.541   8.034  51.556  0.00  0.00    +0.155 HD
BRANCH  14  15
ATOM     15  C   UNL     1      23.472   8.793  53.795  0.00  0.00    +0.037 A 
ATOM     16  C   UNL     1      23.338   7.335  53.847  0.00  0.00    +0.013 A 
ATOM     17  C   UNL     1      23.307   6.656  55.118  0.00  0.00    +0.005 A 
ATOM     18  C   UNL     1      23.411   7.436  56.349  0.00  0.00    -0.033 A 
ATOM     28  C   UNL     1      23.548   8.881  56.269  0.00  0.00    +0.005 A 
ATOM     29  C   UNL     1      23.579   9.550  55.025  0.00  0.00    +0.013 A 
BRANCH  18  19
ATOM     19  C   UNL     1      23.365   6.798  57.750  0.00  0.00    +0.119 C 
BRANCH  19  20
ATOM     20  N   UNL     1      22.666   5.484  57.880  0.00  0.00    -0.302 NA
ATOM     21  C   UNL     1      21.149   5.623  57.724  0.00  0.00    +0.066 C 
ATOM     22  C   UNL     1      20.436   4.237  57.841  0.00  0.00    -0.064 C 
ATOM     23  N   UNL     1      20.785   3.598  59.186  0.00  0.00    +0.379 N 
ATOM     24  C   UNL     1      20.070   2.321  59.323  0.00  0.00    -0.096 C 
ATOM     25  H   UNL     1      20.419   4.279  59.989  0.00  0.00    -0.082 HD
ATOM     26  C   UNL     1      22.292   3.459  59.351  0.00  0.00    -0.064 C 
ATOM     27  C   UNL     1      22.994   4.838  59.204  0.00  0.00    +0.066 C 
ENDBRANCH  19  20
ENDBRANCH  18  19
ENDBRANCH  14  15
ENDBRANCH  12  13
TORSDOF 6
ENDMDL
