MODEL 1
REMARK VINA RESULT:      -9.8      0.000      0.000
REMARK  Name = C:\Users\Docking\Desktop\test protocol\1iep_ligandH.pdb
REMARK  8 active torsions:
REMARK  status: ('A' for Active; 'I' for Inactive)
REMARK    1  A    between atoms: _5  and  _11
REMARK    2  A    between atoms: _19  and  _21
REMARK    3  A    between atoms: _22  and  _66
REMARK    4  A    between atoms: _27  and  _30
REMARK    5  A    between atoms: _32  and  _33
REMARK    6  A    between atoms: _38  and  _43
REMARK    7  A    between atoms: _43  and  _46
REMARK    8  A    between atoms: _53  and  _55
REMARK                            x       y       z     vdW  Elec       q    Type
REMARK                         _______ _______ _______ _____ _____    ______ ____
ROOT
ATOM     10  C   UNL     1      26.163   8.433  46.106  0.00  0.00    +0.038 A 
ATOM     11  C   UNL     1      26.151   8.489  47.523  0.00  0.00    +0.047 A 
ATOM     12  C   UNL     1      24.900   8.510  48.265  0.00  0.00    +0.035 A 
ATOM     32  C   UNL     1      23.678   8.470  47.531  0.00  0.00    +0.024 A 
ATOM     33  C   UNL     1      23.672   8.414  46.090  0.00  0.00    +0.007 A 
ATOM     34  C   UNL     1      24.903   8.396  45.353  0.00  0.00    -0.029 A 
ATOM     35  C   UNL     1      24.836   8.342  43.809  0.00  0.00    +0.045 C 
ENDROOT
BRANCH  10   9
ATOM      4  C   UNL     1      29.751  10.615  43.783  0.00  0.00    +0.077 A 
ATOM      5  C   UNL     1      29.109  11.894  43.870  0.00  0.00    +0.048 A 
ATOM      6  C   UNL     1      27.852  11.947  44.514  0.00  0.00    +0.116 A 
ATOM      7  N   UNL     1      27.290  10.799  45.029  0.00  0.00    -0.223 NA
ATOM      8  C   UNL     1      27.936   9.581  44.927  0.00  0.00    +0.220 A 
ATOM      9  N   UNL     1      27.393   8.415  45.445  0.00  0.00    -0.283 N 
ATOM     36  H   UNL     1      27.897   7.535  45.342  0.00  0.00    +0.155 HD
ATOM     37  N   UNL     1      29.136   9.504  44.315  0.00  0.00    -0.214 NA
BRANCH   4   3
ATOM      1  C   UNL     1      33.433   9.481  43.106  0.00  0.00    +0.020 A 
ATOM      2  C   UNL     1      32.166   9.662  43.776  0.00  0.00    +0.013 A 
ATOM      3  C   UNL     1      31.084  10.398  43.135  0.00  0.00    +0.019 A 
ATOM     38  C   UNL     1      31.317  10.941  41.805  0.00  0.00    +0.120 A 
ATOM     39  N   UNL     1      32.549  10.751  41.185  0.00  0.00    -0.263 NA
ATOM     40  C   UNL     1      33.598  10.047  41.793  0.00  0.00    +0.111 A 
ENDBRANCH   4   3
ENDBRANCH  10   9
BRANCH  12  13
ATOM     13  N   UNL     1      24.825   8.574  49.704  0.00  0.00    -0.281 N 
ATOM     14  C   UNL     1      24.146   9.498  50.481  0.00  0.00    +0.248 C 
ATOM     30  O   UNL     1      23.672  10.542  50.057  0.00  0.00    -0.270 OA
ATOM     31  H   UNL     1      25.335   7.850  50.211  0.00  0.00    +0.155 HD
BRANCH  14  15
ATOM     15  C   UNL     1      23.983   9.232  51.942  0.00  0.00    +0.037 A 
ATOM     16  C   UNL     1      23.059  10.022  52.760  0.00  0.00    +0.013 A 
ATOM     17  C   UNL     1      22.934   9.755  54.171  0.00  0.00    +0.005 A 
ATOM     18  C   UNL     1      23.734   8.691  54.773  0.00  0.00    -0.033 A 
ATOM     28  C   UNL     1      24.639   7.920  53.937  0.00  0.00    +0.005 A 
ATOM     29  C   UNL     1      24.765   8.179  52.554  0.00  0.00    +0.013 A 
BRANCH  18  19
ATOM     19  C   UNL     1      23.680   8.351  56.274  0.00  0.00    +0.119 C 
BRANCH  19  20
ATOM     20  N   UNL     1      23.422   6.928  56.644  0.00  0.00    -0.302 NA
ATOM     21  C   UNL     1      22.173   6.372  55.955  0.00  0.00    +0.066 C 
ATOM     22  C   UNL     1      21.931   4.875  56.335  0.00  0.00    -0.064 C 
ATOM     23  N   UNL     1      21.812   4.751  57.855  0.00  0.00    +0.379 N 
ATOM     24  C   UNL     1      21.527   3.353  58.212  0.00  0.00    -0.096 C 
ATOM     25  H   UNL     1      20.940   5.367  58.177  0.00  0.00    -0.082 HD
ATOM     26  C   UNL     1      23.049   5.303  58.549  0.00  0.00    -0.064 C 
ATOM     27  C   UNL     1      23.297   6.783  58.141  0.00  0.00    +0.066 C 
ENDBRANCH  19  20
ENDBRANCH  18  19
ENDBRANCH  14  15
ENDBRANCH  12  13
TORSDOF 6
ENDMDL
MODEL 2
REMARK VINA RESULT:      -9.7      1.831      2.289
REMARK  Name = C:\Users\Docking\Desktop\test protocol\1iep_ligandH.pdb
REMARK  8 active torsions:
REMARK  status: ('A' for Active; 'I' for Inactive)
REMARK    1  A    between atoms: _5  and  _11
REMARK    2  A    between atoms: _19  and  _21
REMARK    3  A    between atoms: _22  and  _66
REMARK    4  A    between atoms: _27  and  _30
REMARK    5  A    between atoms: _32  and  _33
REMARK    6  A    between atoms: _38  and  _43
REMARK    7  A    between atoms: _43  and  _46
REMARK    8  A    between atoms: _53  and  _55
REMARK                            x       y       z     vdW  Elec       q    Type
REMARK                         _______ _______ _______ _____ _____    ______ ____
ROOT
ATOM     10  C   UNL     1      25.657  10.578  46.882  0.00  0.00    +0.038 A 
ATOM     11  C   UNL     1      25.566  10.135  48.226  0.00  0.00    +0.047 A 
ATOM     12  C   UNL     1      24.276   9.897  48.855  0.00  0.00    +0.035 A 
ATOM     32  C   UNL     1      23.098  10.118  48.084  0.00  0.00    +0.024 A 
ATOM     33  C   UNL     1      23.172  10.570  46.716  0.00  0.00    +0.007 A 
ATOM     34  C   UNL     1      24.442  10.808  46.092  0.00  0.00    -0.029 A 
ATOM     35  C   UNL     1      24.460  11.298  44.625  0.00  0.00    +0.045 C 
ENDROOT
BRANCH  10   9
ATOM      4  C   UNL     1      29.563   9.057  44.544  0.00  0.00    +0.077 A 
ATOM      5  C   UNL     1      29.053   7.721  44.440  0.00  0.00    +0.048 A 
ATOM      6  C   UNL     1      27.785   7.464  45.007  0.00  0.00    +0.116 A 
ATOM      7  N   UNL     1      27.088   8.477  45.629  0.00  0.00    -0.223 NA
ATOM      8  C   UNL     1      27.609   9.754  45.714  0.00  0.00    +0.220 A 
ATOM      9  N   UNL     1      26.922  10.790  46.328  0.00  0.00    -0.283 N 
ATOM     36  H   UNL     1      27.344  11.717  46.376  0.00  0.00    +0.155 HD
ATOM     37  N   UNL     1      28.819  10.025  45.181  0.00  0.00    -0.214 NA
BRANCH   4   3
ATOM      1  C   UNL     1      33.406   9.601  44.057  0.00  0.00    +0.020 A 
ATOM      2  C   UNL     1      32.155   9.164  44.633  0.00  0.00    +0.013 A 
ATOM      3  C   UNL     1      30.887   9.486  43.991  0.00  0.00    +0.019 A 
ATOM     38  C   UNL     1      30.920  10.257  42.757  0.00  0.00    +0.120 A 
ATOM     39  N   UNL     1      32.140  10.666  42.227  0.00  0.00    -0.263 NA
ATOM     40  C   UNL     1      33.366  10.363  42.837  0.00  0.00    +0.111 A 
ENDBRANCH   4   3
ENDBRANCH  10   9
BRANCH  12  13
ATOM     13  N   UNL     1      24.122   9.454  50.218  0.00  0.00    -0.281 N 
ATOM     14  C   UNL     1      23.535  10.134  51.273  0.00  0.00    +0.248 C 
ATOM     30  O   UNL     1      23.242  11.320  51.253  0.00  0.00    -0.270 OA
ATOM     31  H   UNL     1      24.491   8.528  50.432  0.00  0.00    +0.155 HD
BRANCH  14  15
ATOM     15  C   UNL     1      23.244   9.392  52.537  0.00  0.00    +0.037 A 
ATOM     16  C   UNL     1      23.211  10.080  53.831  0.00  0.00    +0.013 A 
ATOM     17  C   UNL     1      22.945   9.337  55.038  0.00  0.00    +0.005 A 
ATOM     18  C   UNL     1      22.709   7.898  54.956  0.00  0.00    -0.033 A 
ATOM     28  C   UNL     1      22.742   7.242  53.659  0.00  0.00    +0.005 A 
ATOM     29  C   UNL     1      23.004   7.966  52.474  0.00  0.00    +0.013 A 
BRANCH  18  19
ATOM     19  C   UNL     1      22.438   7.023  56.194  0.00  0.00    +0.119 C 
BRANCH  19  20
ATOM     20  N   UNL     1      23.343   5.856  56.417  0.00  0.00    -0.302 NA
ATOM     21  C   UNL     1      23.240   5.314  57.846  0.00  0.00    +0.066 C 
ATOM     22  C   UNL     1      24.176   4.080  58.056  0.00  0.00    -0.064 C 
ATOM     23  N   UNL     1      25.617   4.475  57.729  0.00  0.00    +0.379 N 
ATOM     24  C   UNL     1      26.508   3.333  57.981  0.00  0.00    -0.096 C 
ATOM     25  H   UNL     1      25.910   5.293  58.427  0.00  0.00    -0.082 HD
ATOM     26  C   UNL     1      25.728   5.017  56.311  0.00  0.00    -0.064 C 
ATOM     27  C   UNL     1      24.772   6.225  56.105  0.00  0.00    +0.066 C 
ENDBRANCH  19  20
ENDBRANCH  18  19
ENDBRANCH  14  15
ENDBRANCH  12  13
TORSDOF 6
ENDMDL
MODEL 3
REMARK VINA RESULT:      -9.6      1.432      2.104
REMARK  Name = C:\Users\Docking\Desktop\test protocol\1iep_ligandH.pdb
REMARK  8 active torsions:
REMARK  status: ('A' for Active; 'I' for Inactive)
REMARK    1  A    between atoms: _5  and  _11
REMARK    2  A    between atoms: _19  and  _21
REMARK    3  A    between atoms: _22  and  _66
REMARK    4  A    between atoms: _27  and  _30
REMARK    5  A    between atoms: _32  and  _33
REMARK    6  A    between atoms: _38  and  _43
REMARK    7  A    between atoms: _43  and  _46
REMARK    8  A    between atoms: _53  and  _55
REMARK                            x       y       z     vdW  Elec       q    Type
REMARK                         _______ _______ _______ _____ _____    ______ ____
ROOT
ATOM     10  C   UNL     1      26.199  10.706  46.776  0.00  0.00    +0.038 A 
ATOM     11  C   UNL     1      26.210  10.319  48.141  0.00  0.00    +0.047 A 
ATOM     12  C   UNL     1      24.972  10.072  48.863  0.00  0.00    +0.035 A 
ATOM     32  C   UNL     1      23.740  10.225  48.164  0.00  0.00    +0.024 A 
ATOM     33  C   UNL     1      23.709  10.618  46.777  0.00  0.00    +0.007 A 
ATOM     34  C   UNL     1      24.927  10.866  46.060  0.00  0.00    -0.029 A 
ATOM     35  C   UNL     1      24.835  11.291  44.576  0.00  0.00    +0.045 C 
ENDROOT
BRANCH  10   9
ATOM      4  C   UNL     1      30.016   9.189  44.293  0.00  0.00    +0.077 A 
ATOM      5  C   UNL     1      29.558   7.830  44.305  0.00  0.00    +0.048 A 
ATOM      6  C   UNL     1      28.338   7.562  44.967  0.00  0.00    +0.116 A 
ATOM      7  N   UNL     1      27.638   8.585  45.568  0.00  0.00    -0.223 NA
ATOM      8  C   UNL     1      28.109   9.885  45.540  0.00  0.00    +0.220 A 
ATOM      9  N   UNL     1      27.417  10.930  46.131  0.00  0.00    -0.283 N 
ATOM     36  H   UNL     1      27.802  11.874  46.095  0.00  0.00    +0.155 HD
ATOM     37  N   UNL     1      29.272  10.166  44.916  0.00  0.00    -0.214 NA
BRANCH   4   3
ATOM      1  C   UNL     1      33.799   9.787  43.496  0.00  0.00    +0.020 A 
ATOM      2  C   UNL     1      32.605   9.337  44.174  0.00  0.00    +0.013 A 
ATOM      3  C   UNL     1      31.284   9.631  43.632  0.00  0.00    +0.019 A 
ATOM     38  C   UNL     1      31.206  10.388  42.392  0.00  0.00    +0.120 A 
ATOM     39  N   UNL     1      32.373  10.810  41.762  0.00  0.00    -0.263 NA
ATOM     40  C   UNL     1      33.649  10.534  42.275  0.00  0.00    +0.111 A 
ENDBRANCH   4   3
ENDBRANCH  10   9
BRANCH  12  13
ATOM     13  N   UNL     1      24.921   9.686  50.251  0.00  0.00    -0.281 N 
ATOM     14  C   UNL     1      24.043  10.128  51.227  0.00  0.00    +0.248 C 
ATOM     30  O   UNL     1      23.298  11.089  51.102  0.00  0.00    -0.270 OA
ATOM     31  H   UNL     1      25.617   9.003  50.551  0.00  0.00    +0.155 HD
BRANCH  14  15
ATOM     15  C   UNL     1      23.994   9.407  52.535  0.00  0.00    +0.037 A 
ATOM     16  C   UNL     1      24.796   8.203  52.770  0.00  0.00    +0.013 A 
ATOM     17  C   UNL     1      24.717   7.518  54.036  0.00  0.00    +0.005 A 
ATOM     18  C   UNL     1      23.835   8.036  55.078  0.00  0.00    -0.033 A 
ATOM     28  C   UNL     1      23.055   9.236  54.820  0.00  0.00    +0.005 A 
ATOM     29  C   UNL     1      23.128   9.910  53.581  0.00  0.00    +0.013 A 
BRANCH  18  19
ATOM     19  C   UNL     1      23.673   7.357  56.451  0.00  0.00    +0.119 C 
BRANCH  19  20
ATOM     20  N   UNL     1      22.425   6.570  56.681  0.00  0.00    -0.302 NA
ATOM     21  C   UNL     1      22.513   5.711  57.946  0.00  0.00    +0.066 C 
ATOM     22  C   UNL     1      21.191   4.911  58.184  0.00  0.00    -0.064 C 
ATOM     23  N   UNL     1      20.896   4.043  56.959  0.00  0.00    +0.379 N 
ATOM     24  C   UNL     1      19.685   3.246  57.203  0.00  0.00    -0.096 C 
ATOM     25  H   UNL     1      21.748   3.335  56.835  0.00  0.00    -0.082 HD
ATOM     26  C   UNL     1      20.810   4.888  55.696  0.00  0.00    -0.064 C 
ATOM     27  C   UNL     1      22.118   5.702  55.485  0.00  0.00    +0.066 C 
ENDBRANCH  19  20
ENDBRANCH  18  19
ENDBRANCH  14  15
ENDBRANCH  12  13
TORSDOF 6
ENDMDL
MODEL 4
REMARK VINA RESULT:      -9.5      1.590      2.693
REMARK  Name = C:\Users\Docking\Desktop\test protocol\1iep_ligandH.pdb
REMARK  8 active torsions:
REMARK  status: ('A' for Active; 'I' for Inactive)
REMARK    1  A    between atoms: _5  and  _11
REMARK    2  A    between atoms: _19  and  _21
REMARK    3  A    between atoms: _22  and  _66
REMARK    4  A    between atoms: _27  and  _30
REMARK    5  A    between atoms: _32  and  _33
REMARK    6  A    between atoms: _38  and  _43
REMARK    7  A    between atoms: _43  and  _46
REMARK    8  A    between atoms: _53  and  _55
REMARK                            x       y       z     vdW  Elec       q    Type
REMARK                         _______ _______ _______ _____ _____    ______ ____
ROOT
ATOM     10  C   UNL     1      24.552  10.071  47.782  0.00  0.00    +0.038 A 
ATOM     11  C   UNL     1      24.729   9.658  49.127  0.00  0.00    +0.047 A 
ATOM     12  C   UNL     1      23.592   9.305  49.962  0.00  0.00    +0.035 A 
ATOM     32  C   UNL     1      22.287   9.381  49.393  0.00  0.00    +0.024 A 
ATOM     33  C   UNL     1      22.088   9.799  48.028  0.00  0.00    +0.007 A 
ATOM     34  C   UNL     1      23.206  10.151  47.200  0.00  0.00    -0.029 A 
ATOM     35  C   UNL     1      22.934  10.599  45.745  0.00  0.00    +0.045 C 
ENDROOT
BRANCH  10   9
ATOM      4  C   UNL     1      28.231   8.884  44.936  0.00  0.00    +0.077 A 
ATOM      5  C   UNL     1      27.894   7.490  44.982  0.00  0.00    +0.048 A 
ATOM      6  C   UNL     1      26.771   7.120  45.755  0.00  0.00    +0.116 A 
ATOM      7  N   UNL     1      26.046   8.080  46.428  0.00  0.00    -0.223 NA
ATOM      8  C   UNL     1      26.399   9.415  46.364  0.00  0.00    +0.220 A 
ATOM      9  N   UNL     1      25.679  10.398  47.025  0.00  0.00    -0.283 N 
ATOM     36  H   UNL     1      25.977  11.371  46.959  0.00  0.00    +0.155 HD
ATOM     37  N   UNL     1      27.468   9.795  45.633  0.00  0.00    -0.214 NA
BRANCH   4   3
ATOM      1  C   UNL     1      31.634   9.206  43.035  0.00  0.00    +0.020 A 
ATOM      2  C   UNL     1      30.543   8.628  43.786  0.00  0.00    +0.013 A 
ATOM      3  C   UNL     1      29.388   9.433  44.160  0.00  0.00    +0.019 A 
ATOM     38  C   UNL     1      29.366  10.831  43.756  0.00  0.00    +0.120 A 
ATOM     39  N   UNL     1      30.431  11.361  43.035  0.00  0.00    -0.263 NA
ATOM     40  C   UNL     1      31.550  10.596  42.671  0.00  0.00    +0.111 A 
ENDBRANCH   4   3
ENDBRANCH  10   9
BRANCH  12  13
ATOM     13  N   UNL     1      23.710   8.887  51.337  0.00  0.00    -0.281 N 
ATOM     14  C   UNL     1      23.307   9.571  52.473  0.00  0.00    +0.248 C 
ATOM     30  O   UNL     1      22.975  10.747  52.490  0.00  0.00    -0.270 OA
ATOM     31  H   UNL     1      24.143   7.977  51.492  0.00  0.00    +0.155 HD
BRANCH  14  15
ATOM     15  C   UNL     1      23.283   8.848  53.780  0.00  0.00    +0.037 A 
ATOM     16  C   UNL     1      22.858   7.448  53.867  0.00  0.00    +0.013 A 
ATOM     17  C   UNL     1      22.827   6.779  55.144  0.00  0.00    +0.005 A 
ATOM     18  C   UNL     1      23.225   7.510  56.345  0.00  0.00    -0.033 A 
ATOM     28  C   UNL     1      23.648   8.896  56.229  0.00  0.00    +0.005 A 
ATOM     29  C   UNL     1      23.678   9.555  54.980  0.00  0.00    +0.013 A 
BRANCH  18  19
ATOM     19  C   UNL     1      23.204   6.882  57.751  0.00  0.00    +0.119 C 
BRANCH  19  20
ATOM     20  N   UNL     1      22.675   5.491  57.871  0.00  0.00    -0.302 NA
ATOM     21  C   UNL     1      21.154   5.468  58.049  0.00  0.00    +0.066 C 
ATOM     22  C   UNL     1      20.615   4.004  58.150  0.00  0.00    -0.064 C 
ATOM     23  N   UNL     1      21.308   3.287  59.311  0.00  0.00    +0.379 N 
ATOM     24  C   UNL     1      20.761   1.929  59.445  0.00  0.00    -0.096 C 
ATOM     25  H   UNL     1      21.064   3.844  60.245  0.00  0.00    -0.082 HD
ATOM     26  C   UNL     1      22.820   3.308  59.143  0.00  0.00    -0.064 C 
ATOM     27  C   UNL     1      23.342   4.766  59.014  0.00  0.00    +0.066 C 
ENDBRANCH  19  20
ENDBRANCH  18  19
ENDBRANCH  14  15
ENDBRANCH  12  13
TORSDOF 6
ENDMDL
MODEL 5
REMARK VINA RESULT:      -8.9      2.141      2.435
REMARK  Name = C:\Users\Docking\Desktop\test protocol\1iep_ligandH.pdb
REMARK  8 active torsions:
REMARK  status: ('A' for Active; 'I' for Inactive)
REMARK    1  A    between atoms: _5  and  _11
REMARK    2  A    between atoms: _19  and  _21
REMARK    3  A    between atoms: _22  and  _66
REMARK    4  A    between atoms: _27  and  _30
REMARK    5  A    between atoms: _32  and  _33
REMARK    6  A    between atoms: _38  and  _43
REMARK    7  A    between atoms: _43  and  _46
REMARK    8  A    between atoms: _53  and  _55
REMARK                            x       y       z     vdW  Elec       q    Type
REMARK                         _______ _______ _______ _____ _____    ______ ____
ROOT
ATOM     10  C   UNL     1      25.212   9.742  45.861  0.00  0.00    +0.038 A 
ATOM     11  C   UNL     1      25.379   8.971  47.040  0.00  0.00    +0.047 A 
ATOM     12  C   UNL     1      24.697   9.327  48.275  0.00  0.00    +0.035 A 
ATOM     32  C   UNL     1      23.851  10.474  48.272  0.00  0.00    +0.024 A 
ATOM     33  C   UNL     1      23.672  11.270  47.084  0.00  0.00    +0.007 A 
ATOM     34  C   UNL     1      24.343  10.925  45.863  0.00  0.00    -0.029 A 
ATOM     35  C   UNL     1      24.118  11.818  44.621  0.00  0.00    +0.045 C 
ENDROOT
BRANCH  10   9
ATOM      4  C   UNL     1      28.916  10.045  42.823  0.00  0.00    +0.077 A 
ATOM      5  C   UNL     1      29.539  11.083  43.593  0.00  0.00    +0.048 A 
ATOM      6  C   UNL     1      28.870  11.515  44.760  0.00  0.00    +0.116 A 
ATOM      7  N   UNL     1      27.669  10.945  45.121  0.00  0.00    -0.223 NA
ATOM      8  C   UNL     1      27.094   9.947  44.355  0.00  0.00    +0.220 A 
ATOM      9  N   UNL     1      25.890   9.354  44.703  0.00  0.00    -0.283 N 
ATOM     36  H   UNL     1      25.496   8.627  44.108  0.00  0.00    +0.155 HD
ATOM     37  N   UNL     1      27.712   9.518  43.235  0.00  0.00    -0.214 NA
BRANCH   4   3
ATOM      1  C   UNL     1      31.437   8.659  40.173  0.00  0.00    +0.020 A 
ATOM      2  C   UNL     1      30.923   9.206  41.407  0.00  0.00    +0.013 A 
ATOM      3  C   UNL     1      29.500   9.479  41.566  0.00  0.00    +0.019 A 
ATOM     38  C   UNL     1      28.617   9.184  40.448  0.00  0.00    +0.120 A 
ATOM     39  N   UNL     1      29.141   8.659  39.271  0.00  0.00    -0.263 NA
ATOM     40  C   UNL     1      30.508   8.394  39.106  0.00  0.00    +0.111 A 
ENDBRANCH   4   3
ENDBRANCH  10   9
BRANCH  12  13
ATOM     13  N   UNL     1      24.834   8.587  49.504  0.00  0.00    -0.281 N 
ATOM     14  C   UNL     1      25.941   8.510  50.333  0.00  0.00    +0.248 C 
ATOM     30  O   UNL     1      27.060   8.898  50.031  0.00  0.00    -0.270 OA
ATOM     31  H   UNL     1      24.015   8.055  49.800  0.00  0.00    +0.155 HD
BRANCH  14  15
ATOM     15  C   UNL     1      25.787   7.901  51.690  0.00  0.00    +0.037 A 
ATOM     16  C   UNL     1      24.698   8.303  52.584  0.00  0.00    +0.013 A 
ATOM     17  C   UNL     1      24.582   7.712  53.893  0.00  0.00    +0.005 A 
ATOM     18  C   UNL     1      25.558   6.711  54.316  0.00  0.00    -0.033 A 
ATOM     28  C   UNL     1      26.626   6.327  53.407  0.00  0.00    +0.005 A 
ATOM     29  C   UNL     1      26.743   6.905  52.123  0.00  0.00    +0.013 A 
BRANCH  18  19
ATOM     19  C   UNL     1      25.524   6.043  55.704  0.00  0.00    +0.119 C 
BRANCH  19  20
ATOM     20  N   UNL     1      24.198   5.571  56.203  0.00  0.00    -0.302 NA
ATOM     21  C   UNL     1      23.608   6.519  57.250  0.00  0.00    +0.066 C 
ATOM     22  C   UNL     1      22.211   6.022  57.745  0.00  0.00    -0.064 C 
ATOM     23  N   UNL     1      22.347   4.607  58.311  0.00  0.00    +0.379 N 
ATOM     24  C   UNL     1      21.047   4.159  58.830  0.00  0.00    -0.096 C 
ATOM     25  H   UNL     1      23.056   4.654  59.170  0.00  0.00    -0.082 HD
ATOM     26  C   UNL     1      22.936   3.658  57.277  0.00  0.00    -0.064 C 
ATOM     27  C   UNL     1      24.311   4.177  56.770  0.00  0.00    +0.066 C 
ENDBRANCH  19  20
ENDBRANCH  18  19
ENDBRANCH  14  15
ENDBRANCH  12  13
TORSDOF 6
ENDMDL
