MODEL 1
REMARK VINA RESULT:      -9.8      0.000      0.000
REMARK  Name = C:\Users\Docking\Desktop\test protocol\1iep_ligandH.pdb
REMARK  8 active torsions:
REMARK  status: ('A' for Active; 'I' for Inactive)
REMARK    1  A    between atoms: _5  and  _11
REMARK    2  A    between atoms: _19  and  _21
REMARK    3  A    between atoms: _22  and  _66
REMARK    4  A    between atoms: _27  and  _30
REMARK    5  A    between atoms: _32  and  _33
REMARK    6  A    between atoms: _38  and  _43
REMARK    7  A    between atoms: _43  and  _46
REMARK    8  A    between atoms: _53  and  _55
REMARK                            x       y       z     vdW  Elec       q    Type
REMARK                         _______ _______ _______ _____ _____    ______ ____
ROOT
ATOM     10  C   UNL     1      26.166   8.506  46.170  0.00  0.00    +0.038 A 
ATOM     11  C   UNL     1      26.160   8.542  47.588  0.00  0.00    +0.047 A 
ATOM     12  C   UNL     1      24.912   8.584  48.334  0.00  0.00    +0.035 A 
ATOM     32  C   UNL     1      23.688   8.586  47.604  0.00  0.00    +0.024 A 
ATOM     33  C   UNL     1      23.675   8.551  46.163  0.00  0.00    +0.007 A 
ATOM     34  C   UNL     1      24.903   8.512  45.421  0.00  0.00    -0.029 A 
ATOM     35  C   UNL     1      24.830   8.483  43.877  0.00  0.00    +0.045 C 
ENDROOT
BRANCH  10   9
ATOM      4  C   UNL     1      29.766  10.618  43.800  0.00  0.00    +0.077 A 
ATOM      5  C   UNL     1      29.136  11.905  43.871  0.00  0.00    +0.048 A 
ATOM      6  C   UNL     1      27.883  11.980  44.520  0.00  0.00    +0.116 A 
ATOM      7  N   UNL     1      27.312  10.845  45.054  0.00  0.00    -0.223 NA
ATOM      8  C   UNL     1      27.945   9.619  44.967  0.00  0.00    +0.220 A 
ATOM      9  N   UNL     1      27.393   8.466  45.504  0.00  0.00    -0.283 N 
ATOM     36  H   UNL     1      27.888   7.580  45.412  0.00  0.00    +0.155 HD
ATOM     37  N   UNL     1      29.142   9.521  44.351  0.00  0.00    -0.214 NA
BRANCH   4   3
ATOM      1  C   UNL     1      33.422   9.410  43.111  0.00  0.00    +0.020 A 
ATOM      2  C   UNL     1      32.159   9.612  43.783  0.00  0.00    +0.013 A 
ATOM      3  C   UNL     1      31.093  10.379  43.149  0.00  0.00    +0.019 A 
ATOM     38  C   UNL     1      31.339  10.930  41.826  0.00  0.00    +0.120 A 
ATOM     39  N   UNL     1      32.566  10.720  41.204  0.00  0.00    -0.263 NA
ATOM     40  C   UNL     1      33.600   9.986  41.804  0.00  0.00    +0.111 A 
ENDBRANCH   4   3
ENDBRANCH  10   9
BRANCH  12  13
ATOM     13  N   UNL     1      24.844   8.629  49.774  0.00  0.00    -0.281 N 
ATOM     14  C   UNL     1      24.157   9.535  50.566  0.00  0.00    +0.248 C 
ATOM     30  O   UNL     1      23.667  10.577  50.158  0.00  0.00    -0.270 OA
ATOM     31  H   UNL     1      25.366   7.906  50.269  0.00  0.00    +0.155 HD
BRANCH  14  15
ATOM     15  C   UNL     1      24.005   9.248  52.025  0.00  0.00    +0.037 A 
ATOM     16  C   UNL     1      23.091  10.029  52.862  0.00  0.00    +0.013 A 
ATOM     17  C   UNL     1      22.976   9.743  54.270  0.00  0.00    +0.005 A 
ATOM     18  C   UNL     1      23.777   8.667  54.849  0.00  0.00    -0.033 A 
ATOM     28  C   UNL     1      24.672   7.904  53.995  0.00  0.00    +0.005 A 
ATOM     29  C   UNL     1      24.788   8.183  52.615  0.00  0.00    +0.013 A 
BRANCH  18  19
ATOM     19  C   UNL     1      23.734   8.306  56.346  0.00  0.00    +0.119 C 
BRANCH  19  20
ATOM     20  N   UNL     1      23.410   6.891  56.699  0.00  0.00    -0.302 NA
ATOM     21  C   UNL     1      22.126   6.409  56.019  0.00  0.00    +0.066 C 
ATOM     22  C   UNL     1      21.814   4.920  56.381  0.00  0.00    -0.064 C 
ATOM     23  N   UNL     1      21.708   4.780  57.900  0.00  0.00    +0.379 N 
ATOM     24  C   UNL     1      21.358   3.393  58.241  0.00  0.00    -0.096 C 
ATOM     25  H   UNL     1      20.873   5.433  58.243  0.00  0.00    -0.082 HD
ATOM     26  C   UNL     1      22.980   5.259  58.585  0.00  0.00    -0.064 C 
ATOM     27  C   UNL     1      23.297   6.730  58.195  0.00  0.00    +0.066 C 
ENDBRANCH  19  20
ENDBRANCH  18  19
ENDBRANCH  14  15
ENDBRANCH  12  13
TORSDOF 6
ENDMDL
MODEL 2
REMARK VINA RESULT:      -9.7      1.349      1.861
REMARK  Name = C:\Users\Docking\Desktop\test protocol\1iep_ligandH.pdb
REMARK  8 active torsions:
REMARK  status: ('A' for Active; 'I' for Inactive)
REMARK    1  A    between atoms: _5  and  _11
REMARK    2  A    between atoms: _19  and  _21
REMARK    3  A    between atoms: _22  and  _66
REMARK    4  A    between atoms: _27  and  _30
REMARK    5  A    between atoms: _32  and  _33
REMARK    6  A    between atoms: _38  and  _43
REMARK    7  A    between atoms: _43  and  _46
REMARK    8  A    between atoms: _53  and  _55
REMARK                            x       y       z     vdW  Elec       q    Type
REMARK                         _______ _______ _______ _____ _____    ______ ____
ROOT
ATOM     10  C   UNL     1      26.146  10.709  46.746  0.00  0.00    +0.038 A 
ATOM     11  C   UNL     1      26.125  10.365  48.121  0.00  0.00    +0.047 A 
ATOM     12  C   UNL     1      24.871  10.130  48.820  0.00  0.00    +0.035 A 
ATOM     32  C   UNL     1      23.656  10.251  48.085  0.00  0.00    +0.024 A 
ATOM     33  C   UNL     1      23.658  10.601  46.686  0.00  0.00    +0.007 A 
ATOM     34  C   UNL     1      24.892  10.836  45.993  0.00  0.00    -0.029 A 
ATOM     35  C   UNL     1      24.834  11.215  44.494  0.00  0.00    +0.045 C 
ENDROOT
BRANCH  10   9
ATOM      4  C   UNL     1      30.019   9.154  44.375  0.00  0.00    +0.077 A 
ATOM      5  C   UNL     1      29.561   7.794  44.399  0.00  0.00    +0.048 A 
ATOM      6  C   UNL     1      28.327   7.537  45.037  0.00  0.00    +0.116 A 
ATOM      7  N   UNL     1      27.613   8.569  45.605  0.00  0.00    -0.223 NA
ATOM      8  C   UNL     1      28.084   9.868  45.567  0.00  0.00    +0.220 A 
ATOM      9  N   UNL     1      27.379  10.923  46.125  0.00  0.00    -0.283 N 
ATOM     36  H   UNL     1      27.764  11.866  46.082  0.00  0.00    +0.155 HD
ATOM     37  N   UNL     1      29.260  10.140  44.965  0.00  0.00    -0.214 NA
BRANCH   4   3
ATOM      1  C   UNL     1      33.817   9.770  43.672  0.00  0.00    +0.020 A 
ATOM      2  C   UNL     1      32.608   9.332  44.331  0.00  0.00    +0.013 A 
ATOM      3  C   UNL     1      31.302   9.586  43.736  0.00  0.00    +0.019 A 
ATOM     38  C   UNL     1      31.253  10.289  42.463  0.00  0.00    +0.120 A 
ATOM     39  N   UNL     1      32.434  10.700  41.852  0.00  0.00    -0.263 NA
ATOM     40  C   UNL     1      33.697  10.464  42.416  0.00  0.00    +0.111 A 
ENDBRANCH   4   3
ENDBRANCH  10   9
BRANCH  12  13
ATOM     13  N   UNL     1      24.788   9.785  50.217  0.00  0.00    -0.281 N 
ATOM     14  C   UNL     1      23.923  10.298  51.171  0.00  0.00    +0.248 C 
ATOM     30  O   UNL     1      23.228  11.290  51.011  0.00  0.00    -0.270 OA
ATOM     31  H   UNL     1      25.447   9.078  50.544  0.00  0.00    +0.155 HD
BRANCH  14  15
ATOM     15  C   UNL     1      23.827   9.618  52.498  0.00  0.00    +0.037 A 
ATOM     16  C   UNL     1      24.551   8.373  52.769  0.00  0.00    +0.013 A 
ATOM     17  C   UNL     1      24.427   7.729  54.052  0.00  0.00    +0.005 A 
ATOM     18  C   UNL     1      23.575   8.330  55.076  0.00  0.00    -0.033 A 
ATOM     28  C   UNL     1      22.872   9.567  54.782  0.00  0.00    +0.005 A 
ATOM     29  C   UNL     1      22.990  10.201  53.525  0.00  0.00    +0.013 A 
BRANCH  18  19
ATOM     19  C   UNL     1      23.367   7.700  56.466  0.00  0.00    +0.119 C 
BRANCH  19  20
ATOM     20  N   UNL     1      23.179   6.220  56.525  0.00  0.00    -0.302 NA
ATOM     21  C   UNL     1      21.828   5.789  55.945  0.00  0.00    +0.066 C 
ATOM     22  C   UNL     1      21.657   4.236  55.994  0.00  0.00    -0.064 C 
ATOM     23  N   UNL     1      21.804   3.755  57.439  0.00  0.00    +0.379 N 
ATOM     24  C   UNL     1      21.586   2.302  57.496  0.00  0.00    -0.096 C 
ATOM     25  H   UNL     1      21.002   4.242  58.041  0.00  0.00    -0.082 HD
ATOM     26  C   UNL     1      23.143   4.181  58.024  0.00  0.00    -0.064 C 
ATOM     27  C   UNL     1      23.316   5.723  57.943  0.00  0.00    +0.066 C 
ENDBRANCH  19  20
ENDBRANCH  18  19
ENDBRANCH  14  15
ENDBRANCH  12  13
TORSDOF 6
ENDMDL
MODEL 3
REMARK VINA RESULT:      -9.7      1.894      2.673
REMARK  Name = C:\Users\Docking\Desktop\test protocol\1iep_ligandH.pdb
REMARK  8 active torsions:
REMARK  status: ('A' for Active; 'I' for Inactive)
REMARK    1  A    between atoms: _5  and  _11
REMARK    2  A    between atoms: _19  and  _21
REMARK    3  A    between atoms: _22  and  _66
REMARK    4  A    between atoms: _27  and  _30
REMARK    5  A    between atoms: _32  and  _33
REMARK    6  A    between atoms: _38  and  _43
REMARK    7  A    between atoms: _43  and  _46
REMARK    8  A    between atoms: _53  and  _55
REMARK                            x       y       z     vdW  Elec       q    Type
REMARK                         _______ _______ _______ _____ _____    ______ ____
ROOT
ATOM     10  C   UNL     1      25.147  10.188  47.599  0.00  0.00    +0.038 A 
ATOM     11  C   UNL     1      25.132   9.721  48.939  0.00  0.00    +0.047 A 
ATOM     12  C   UNL     1      23.880   9.447  49.626  0.00  0.00    +0.035 A 
ATOM     32  C   UNL     1      22.661   9.657  48.918  0.00  0.00    +0.024 A 
ATOM     33  C   UNL     1      22.657  10.132  47.557  0.00  0.00    +0.007 A 
ATOM     34  C   UNL     1      23.890  10.406  46.874  0.00  0.00    -0.029 A 
ATOM     35  C   UNL     1      23.826  10.920  45.417  0.00  0.00    +0.045 C 
ENDROOT
BRANCH  10   9
ATOM      4  C   UNL     1      28.914   8.813  44.962  0.00  0.00    +0.077 A 
ATOM      5  C   UNL     1      28.398   7.483  44.811  0.00  0.00    +0.048 A 
ATOM      6  C   UNL     1      27.164   7.191  45.435  0.00  0.00    +0.116 A 
ATOM      7  N   UNL     1      26.504   8.165  46.152  0.00  0.00    -0.223 NA
ATOM      8  C   UNL     1      27.030   9.437  46.278  0.00  0.00    +0.220 A 
ATOM      9  N   UNL     1      26.378  10.435  46.988  0.00  0.00    -0.283 N 
ATOM     36  H   UNL     1      26.803  11.359  47.064  0.00  0.00    +0.155 HD
ATOM     37  N   UNL     1      28.207   9.741  45.694  0.00  0.00    -0.214 NA
BRANCH   4   3
ATOM      1  C   UNL     1      32.716   9.207  44.129  0.00  0.00    +0.020 A 
ATOM      2  C   UNL     1      31.499   8.726  44.741  0.00  0.00    +0.013 A 
ATOM      3  C   UNL     1      30.204   9.276  44.359  0.00  0.00    +0.019 A 
ATOM     38  C   UNL     1      30.175  10.319  43.346  0.00  0.00    +0.120 A 
ATOM     39  N   UNL     1      31.363  10.764  42.774  0.00  0.00    -0.263 NA
ATOM     40  C   UNL     1      32.615  10.244  43.135  0.00  0.00    +0.111 A 
ENDBRANCH   4   3
ENDBRANCH  10   9
BRANCH  12  13
ATOM     13  N   UNL     1      23.802   8.980  50.988  0.00  0.00    -0.281 N 
ATOM     14  C   UNL     1      23.371   9.677  52.105  0.00  0.00    +0.248 C 
ATOM     30  O   UNL     1      23.187  10.885  52.137  0.00  0.00    -0.270 OA
ATOM     31  H   UNL     1      24.101   8.018  51.148  0.00  0.00    +0.155 HD
BRANCH  14  15
ATOM     15  C   UNL     1      23.122   8.927  53.373  0.00  0.00    +0.037 A 
ATOM     16  C   UNL     1      23.562   9.455  54.667  0.00  0.00    +0.013 A 
ATOM     17  C   UNL     1      23.325   8.703  55.873  0.00  0.00    +0.005 A 
ATOM     18  C   UNL     1      22.642   7.414  55.791  0.00  0.00    -0.033 A 
ATOM     28  C   UNL     1      22.211   6.916  54.495  0.00  0.00    +0.005 A 
ATOM     29  C   UNL     1      22.443   7.650  53.310  0.00  0.00    +0.013 A 
BRANCH  18  19
ATOM     19  C   UNL     1      22.365   6.534  57.024  0.00  0.00    +0.119 C 
BRANCH  19  20
ATOM     20  N   UNL     1      23.279   5.375  57.257  0.00  0.00    -0.302 NA
ATOM     21  C   UNL     1      23.614   5.196  58.740  0.00  0.00    +0.066 C 
ATOM     22  C   UNL     1      24.552   3.966  58.967  0.00  0.00    -0.064 C 
ATOM     23  N   UNL     1      25.828   4.142  58.141  0.00  0.00    +0.379 N 
ATOM     24  C   UNL     1      26.737   3.016  58.398  0.00  0.00    -0.096 C 
ATOM     25  H   UNL     1      26.332   5.072  58.493  0.00  0.00    -0.082 HD
ATOM     26  C   UNL     1      25.504   4.324  56.665  0.00  0.00    -0.064 C 
ATOM     27  C   UNL     1      24.547   5.531  56.454  0.00  0.00    +0.066 C 
ENDBRANCH  19  20
ENDBRANCH  18  19
ENDBRANCH  14  15
ENDBRANCH  12  13
TORSDOF 6
ENDMDL
MODEL 4
REMARK VINA RESULT:      -9.5      1.544      2.617
REMARK  Name = C:\Users\Docking\Desktop\test protocol\1iep_ligandH.pdb
REMARK  8 active torsions:
REMARK  status: ('A' for Active; 'I' for Inactive)
REMARK    1  A    between atoms: _5  and  _11
REMARK    2  A    between atoms: _19  and  _21
REMARK    3  A    between atoms: _22  and  _66
REMARK    4  A    between atoms: _27  and  _30
REMARK    5  A    between atoms: _32  and  _33
REMARK    6  A    between atoms: _38  and  _43
REMARK    7  A    between atoms: _43  and  _46
REMARK    8  A    between atoms: _53  and  _55
REMARK                            x       y       z     vdW  Elec       q    Type
REMARK                         _______ _______ _______ _____ _____    ______ ____
ROOT
ATOM     10  C   UNL     1      24.654  10.013  47.779  0.00  0.00    +0.038 A 
ATOM     11  C   UNL     1      24.857   9.585  49.116  0.00  0.00    +0.047 A 
ATOM     12  C   UNL     1      23.737   9.200  49.961  0.00  0.00    +0.035 A 
ATOM     32  C   UNL     1      22.424   9.260  49.411  0.00  0.00    +0.024 A 
ATOM     33  C   UNL     1      22.199   9.693  48.054  0.00  0.00    +0.007 A 
ATOM     34  C   UNL     1      23.300  10.077  47.217  0.00  0.00    -0.029 A 
ATOM     35  C   UNL     1      22.999  10.540  45.772  0.00  0.00    +0.045 C 
ENDROOT
BRANCH  10   9
ATOM      4  C   UNL     1      28.313   8.934  44.867  0.00  0.00    +0.077 A 
ATOM      5  C   UNL     1      28.001   7.534  44.897  0.00  0.00    +0.048 A 
ATOM      6  C   UNL     1      26.896   7.132  45.679  0.00  0.00    +0.116 A 
ATOM      7  N   UNL     1      26.163   8.069  46.375  0.00  0.00    -0.223 NA
ATOM      8  C   UNL     1      26.492   9.411  46.327  0.00  0.00    +0.220 A 
ATOM      9  N   UNL     1      25.765  10.372  47.013  0.00  0.00    -0.283 N 
ATOM     36  H   UNL     1      26.045  11.351  46.957  0.00  0.00    +0.155 HD
ATOM     37  N   UNL     1      27.545   9.820  45.588  0.00  0.00    -0.214 NA
BRANCH   4   3
ATOM      1  C   UNL     1      31.781   9.423  43.125  0.00  0.00    +0.020 A 
ATOM      2  C   UNL     1      30.716   8.818  43.891  0.00  0.00    +0.013 A 
ATOM      3  C   UNL     1      29.450   9.514  44.084  0.00  0.00    +0.019 A 
ATOM     38  C   UNL     1      29.292  10.830  43.483  0.00  0.00    +0.120 A 
ATOM     39  N   UNL     1      30.337  11.388  42.752  0.00  0.00    -0.263 NA
ATOM     40  C   UNL     1      31.560  10.729  42.561  0.00  0.00    +0.111 A 
ENDBRANCH   4   3
ENDBRANCH  10   9
BRANCH  12  13
ATOM     13  N   UNL     1      23.881   8.765  51.328  0.00  0.00    -0.281 N 
ATOM     14  C   UNL     1      23.480   9.425  52.478  0.00  0.00    +0.248 C 
ATOM     30  O   UNL     1      23.125  10.593  52.517  0.00  0.00    -0.270 OA
ATOM     31  H   UNL     1      24.335   7.862  51.465  0.00  0.00    +0.155 HD
BRANCH  14  15
ATOM     15  C   UNL     1      23.487   8.683  53.776  0.00  0.00    +0.037 A 
ATOM     16  C   UNL     1      23.512   7.218  53.814  0.00  0.00    +0.013 A 
ATOM     17  C   UNL     1      23.501   6.527  55.079  0.00  0.00    +0.005 A 
ATOM     18  C   UNL     1      23.466   7.301  56.317  0.00  0.00    -0.033 A 
ATOM     28  C   UNL     1      23.447   8.753  56.251  0.00  0.00    +0.005 A 
ATOM     29  C   UNL     1      23.457   9.434  55.013  0.00  0.00    +0.013 A 
BRANCH  18  19
ATOM     19  C   UNL     1      23.431   6.648  57.711  0.00  0.00    +0.119 C 
BRANCH  19  20
ATOM     20  N   UNL     1      22.654   5.380  57.853  0.00  0.00    -0.302 NA
ATOM     21  C   UNL     1      21.145   5.616  57.740  0.00  0.00    +0.066 C 
ATOM     22  C   UNL     1      20.349   4.277  57.868  0.00  0.00    -0.064 C 
ATOM     23  N   UNL     1      20.694   3.606  59.199  0.00  0.00    +0.379 N 
ATOM     24  C   UNL     1      19.903   2.376  59.348  0.00  0.00    -0.096 C 
ATOM     25  H   UNL     1      20.394   4.303  60.016  0.00  0.00    -0.082 HD
ATOM     26  C   UNL     1      22.193   3.371  59.320  0.00  0.00    -0.064 C 
ATOM     27  C   UNL     1      22.976   4.704  59.162  0.00  0.00    +0.066 C 
ENDBRANCH  19  20
ENDBRANCH  18  19
ENDBRANCH  14  15
ENDBRANCH  12  13
TORSDOF 6
ENDMDL
MODEL 5
REMARK VINA RESULT:      -9.0      1.700      2.646
REMARK  Name = C:\Users\Docking\Desktop\test protocol\1iep_ligandH.pdb
REMARK  8 active torsions:
REMARK  status: ('A' for Active; 'I' for Inactive)
REMARK    1  A    between atoms: _5  and  _11
REMARK    2  A    between atoms: _19  and  _21
REMARK    3  A    between atoms: _22  and  _66
REMARK    4  A    between atoms: _27  and  _30
REMARK    5  A    between atoms: _32  and  _33
REMARK    6  A    between atoms: _38  and  _43
REMARK    7  A    between atoms: _43  and  _46
REMARK    8  A    between atoms: _53  and  _55
REMARK                            x       y       z     vdW  Elec       q    Type
REMARK                         _______ _______ _______ _____ _____    ______ ____
ROOT
ATOM     10  C   UNL     1      24.412   9.000  47.578  0.00  0.00    +0.038 A 
ATOM     11  C   UNL     1      24.600   8.574  48.918  0.00  0.00    +0.047 A 
ATOM     12  C   UNL     1      23.540   8.708  49.905  0.00  0.00    +0.035 A 
ATOM     32  C   UNL     1      22.301   9.279  49.492  0.00  0.00    +0.024 A 
ATOM     33  C   UNL     1      22.093   9.718  48.135  0.00  0.00    +0.007 A 
ATOM     34  C   UNL     1      23.136   9.591  47.157  0.00  0.00    -0.029 A 
ATOM     35  C   UNL     1      22.861  10.085  45.718  0.00  0.00    +0.045 C 
ENDROOT
BRANCH  10   9
ATOM      4  C   UNL     1      28.858   9.969  46.050  0.00  0.00    +0.077 A 
ATOM      5  C   UNL     1      29.097  10.876  47.135  0.00  0.00    +0.048 A 
ATOM      6  C   UNL     1      28.047  11.072  48.060  0.00  0.00    +0.116 A 
ATOM      7  N   UNL     1      26.852  10.403  47.903  0.00  0.00    -0.223 NA
ATOM      8  C   UNL     1      26.655   9.536  46.845  0.00  0.00    +0.220 A 
ATOM      9  N   UNL     1      25.464   8.847  46.671  0.00  0.00    -0.283 N 
ATOM     36  H   UNL     1      25.355   8.222  45.873  0.00  0.00    +0.155 HD
ATOM     37  N   UNL     1      27.641   9.334  45.946  0.00  0.00    -0.214 NA
BRANCH   4   3
ATOM      1  C   UNL     1      30.699   9.687  42.610  0.00  0.00    +0.020 A 
ATOM      2  C   UNL     1      29.690  10.013  43.592  0.00  0.00    +0.013 A 
ATOM      3  C   UNL     1      29.871   9.655  44.993  0.00  0.00    +0.019 A 
ATOM     38  C   UNL     1      31.094   8.963  45.371  0.00  0.00    +0.120 A 
ATOM     39  N   UNL     1      32.047   8.661  44.404  0.00  0.00    -0.263 NA
ATOM     40  C   UNL     1      31.883   8.999  43.052  0.00  0.00    +0.111 A 
ENDBRANCH   4   3
ENDBRANCH  10   9
BRANCH  12  13
ATOM     13  N   UNL     1      23.675   8.301  51.281  0.00  0.00    -0.281 N 
ATOM     14  C   UNL     1      23.542   9.082  52.418  0.00  0.00    +0.248 C 
ATOM     30  O   UNL     1      23.496  10.303  52.415  0.00  0.00    -0.270 OA
ATOM     31  H   UNL     1      23.895   7.317  51.437  0.00  0.00    +0.155 HD
BRANCH  14  15
ATOM     15  C   UNL     1      23.462   8.411  53.751  0.00  0.00    +0.037 A 
ATOM     16  C   UNL     1      23.275   6.962  53.861  0.00  0.00    +0.013 A 
ATOM     17  C   UNL     1      23.184   6.341  55.159  0.00  0.00    +0.005 A 
ATOM     18  C   UNL     1      23.282   7.171  56.358  0.00  0.00    -0.033 A 
ATOM     28  C   UNL     1      23.472   8.605  56.219  0.00  0.00    +0.005 A 
ATOM     29  C   UNL     1      23.561   9.217  54.949  0.00  0.00    +0.013 A 
BRANCH  18  19
ATOM     19  C   UNL     1      23.174   6.597  57.783  0.00  0.00    +0.119 C 
BRANCH  19  20
ATOM     20  N   UNL     1      22.566   5.241  57.930  0.00  0.00    -0.302 NA
ATOM     21  C   UNL     1      21.036   5.295  57.942  0.00  0.00    +0.066 C 
ATOM     22  C   UNL     1      20.416   3.866  58.074  0.00  0.00    -0.064 C 
ATOM     23  N   UNL     1      20.944   3.200  59.345  0.00  0.00    +0.379 N 
ATOM     24  C   UNL     1      20.319   1.878  59.503  0.00  0.00    -0.096 C 
ATOM     25  H   UNL     1      20.631   3.828  60.211  0.00  0.00    -0.082 HD
ATOM     26  C   UNL     1      22.465   3.144  59.343  0.00  0.00    -0.064 C 
ATOM     27  C   UNL     1      23.071   4.566  59.182  0.00  0.00    +0.066 C 
ENDBRANCH  19  20
ENDBRANCH  18  19
ENDBRANCH  14  15
ENDBRANCH  12  13
TORSDOF 6
ENDMDL
