MODEL 1
REMARK VINA RESULT:      -8.9      0.000      0.000
REMARK  Name = C:\Users\Docking\Desktop\test protocol\1iep_ligandH.pdb
REMARK  8 active torsions:
REMARK  status: ('A' for Active; 'I' for Inactive)
REMARK    1  A    between atoms: _5  and  _11
REMARK    2  A    between atoms: _19  and  _21
REMARK    3  A    between atoms: _22  and  _66
REMARK    4  A    between atoms: _27  and  _30
REMARK    5  A    between atoms: _32  and  _33
REMARK    6  A    between atoms: _38  and  _43
REMARK    7  A    between atoms: _43  and  _46
REMARK    8  A    between atoms: _53  and  _55
REMARK                            x       y       z     vdW  Elec       q    Type
REMARK                         _______ _______ _______ _____ _____    ______ ____
ROOT
ATOM     10  C   UNL     1      16.352  16.816  -6.555  0.00  0.00    +0.038 A 
ATOM     11  C   UNL     1      15.957  15.547  -6.061  0.00  0.00    +0.047 A 
ATOM     12  C   UNL     1      14.770  15.398  -5.233  0.00  0.00    +0.035 A 
ATOM     32  C   UNL     1      14.008  16.563  -4.929  0.00  0.00    +0.024 A 
ATOM     33  C   UNL     1      14.395  17.861  -5.422  0.00  0.00    +0.007 A 
ATOM     34  C   UNL     1      15.566  18.015  -6.238  0.00  0.00    -0.029 A 
ATOM     35  C   UNL     1      15.937  19.432  -6.733  0.00  0.00    +0.045 C 
ENDROOT
BRANCH  10   9
ATOM      4  C   UNL     1      18.641  16.389 -10.752  0.00  0.00    +0.077 A 
ATOM      5  C   UNL     1      17.457  15.931 -11.419  0.00  0.00    +0.048 A 
ATOM      6  C   UNL     1      16.281  15.812 -10.645  0.00  0.00    +0.116 A 
ATOM      7  N   UNL     1      16.300  16.131  -9.304  0.00  0.00    -0.223 NA
ATOM      8  C   UNL     1      17.460  16.568  -8.691  0.00  0.00    +0.220 A 
ATOM      9  N   UNL     1      17.500  16.902  -7.346  0.00  0.00    -0.283 N 
ATOM     36  H   UNL     1      18.377  17.213  -6.930  0.00  0.00    +0.155 HD
ATOM     37  N   UNL     1      18.596  16.689  -9.409  0.00  0.00    -0.214 NA
BRANCH   4   3
ATOM      1  C   UNL     1      22.484  16.610 -11.451  0.00  0.00    +0.020 A 
ATOM      2  C   UNL     1      21.237  16.426 -10.745  0.00  0.00    +0.013 A 
ATOM      3  C   UNL     1      19.961  16.569 -11.435  0.00  0.00    +0.019 A 
ATOM     38  C   UNL     1      19.982  16.901 -12.852  0.00  0.00    +0.120 A 
ATOM     39  N   UNL     1      21.198  17.074 -13.506  0.00  0.00    -0.263 NA
ATOM     40  C   UNL     1      22.432  16.940 -12.851  0.00  0.00    +0.111 A 
ENDBRANCH   4   3
ENDBRANCH  10   9
BRANCH  12  13
ATOM     13  N   UNL     1      14.325  14.136  -4.696  0.00  0.00    -0.281 N 
ATOM     14  C   UNL     1      13.773  13.066  -5.382  0.00  0.00    +0.248 C 
ATOM     30  O   UNL     1      13.380  13.114  -6.538  0.00  0.00    -0.270 OA
ATOM     31  H   UNL     1      14.429  14.017  -3.688  0.00  0.00    +0.155 HD
BRANCH  14  15
ATOM     15  C   UNL     1      13.623  11.756  -4.677  0.00  0.00    +0.037 A 
ATOM     16  C   UNL     1      13.394  11.694  -3.231  0.00  0.00    +0.013 A 
ATOM     17  C   UNL     1      13.271  10.417  -2.573  0.00  0.00    +0.005 A 
ATOM     18  C   UNL     1      13.374   9.192  -3.362  0.00  0.00    -0.033 A 
ATOM     28  C   UNL     1      13.596   9.283  -4.796  0.00  0.00    +0.005 A 
ATOM     29  C   UNL     1      13.719  10.533  -5.444  0.00  0.00    +0.013 A 
BRANCH  18  19
ATOM     19  C   UNL     1      13.275   7.786  -2.741  0.00  0.00    +0.119 C 
BRANCH  19  20
ATOM     20  N   UNL     1      12.133   6.926  -3.172  0.00  0.00    -0.302 NA
ATOM     21  C   UNL     1      10.784   7.498  -2.728  0.00  0.00    +0.066 C 
ATOM     22  C   UNL     1       9.598   6.599  -3.207  0.00  0.00    -0.064 C 
ATOM     23  N   UNL     1       9.789   5.180  -2.668  0.00  0.00    +0.379 N 
ATOM     24  C   UNL     1       8.646   4.346  -3.068  0.00  0.00    -0.096 C 
ATOM     25  H   UNL     1       9.791   5.239  -1.555  0.00  0.00    -0.082 HD
ATOM     26  C   UNL     1      11.129   4.604  -3.103  0.00  0.00    -0.064 C 
ATOM     27  C   UNL     1      12.298   5.521  -2.647  0.00  0.00    +0.066 C 
ENDBRANCH  19  20
ENDBRANCH  18  19
ENDBRANCH  14  15
ENDBRANCH  12  13
TORSDOF 6
ENDMDL
MODEL 2
REMARK VINA RESULT:      -8.5      3.256      5.136
REMARK  Name = C:\Users\Docking\Desktop\test protocol\1iep_ligandH.pdb
REMARK  8 active torsions:
REMARK  status: ('A' for Active; 'I' for Inactive)
REMARK    1  A    between atoms: _5  and  _11
REMARK    2  A    between atoms: _19  and  _21
REMARK    3  A    between atoms: _22  and  _66
REMARK    4  A    between atoms: _27  and  _30
REMARK    5  A    between atoms: _32  and  _33
REMARK    6  A    between atoms: _38  and  _43
REMARK    7  A    between atoms: _43  and  _46
REMARK    8  A    between atoms: _53  and  _55
REMARK                            x       y       z     vdW  Elec       q    Type
REMARK                         _______ _______ _______ _____ _____    ______ ____
ROOT
ATOM     10  C   UNL     1      15.673  16.937  -7.536  0.00  0.00    +0.038 A 
ATOM     11  C   UNL     1      15.610  15.807  -6.680  0.00  0.00    +0.047 A 
ATOM     12  C   UNL     1      14.765  14.667  -6.998  0.00  0.00    +0.035 A 
ATOM     32  C   UNL     1      13.999  14.709  -8.199  0.00  0.00    +0.024 A 
ATOM     33  C   UNL     1      14.049  15.849  -9.080  0.00  0.00    +0.007 A 
ATOM     34  C   UNL     1      14.879  16.978  -8.770  0.00  0.00    -0.029 A 
ATOM     35  C   UNL     1      14.889  18.176  -9.748  0.00  0.00    +0.045 C 
ENDROOT
BRANCH  10   9
ATOM      4  C   UNL     1      16.697  20.795  -4.871  0.00  0.00    +0.077 A 
ATOM      5  C   UNL     1      15.465  20.692  -4.143  0.00  0.00    +0.048 A 
ATOM      6  C   UNL     1      14.593  19.637  -4.489  0.00  0.00    +0.116 A 
ATOM      7  N   UNL     1      14.937  18.755  -5.491  0.00  0.00    -0.223 NA
ATOM      8  C   UNL     1      16.131  18.883  -6.175  0.00  0.00    +0.220 A 
ATOM      9  N   UNL     1      16.501  18.004  -7.181  0.00  0.00    -0.283 N 
ATOM     36  H   UNL     1      17.388  18.137  -7.666  0.00  0.00    +0.155 HD
ATOM     37  N   UNL     1      16.981  19.884  -5.864  0.00  0.00    -0.214 NA
BRANCH   4   3
ATOM      1  C   UNL     1      18.768  23.666  -3.207  0.00  0.00    +0.020 A 
ATOM      2  C   UNL     1      17.754  22.655  -3.401  0.00  0.00    +0.013 A 
ATOM      3  C   UNL     1      17.724  21.855  -4.619  0.00  0.00    +0.019 A 
ATOM     38  C   UNL     1      18.743  22.103  -5.627  0.00  0.00    +0.120 A 
ATOM     39  N   UNL     1      19.706  23.084  -5.413  0.00  0.00    -0.263 NA
ATOM     40  C   UNL     1      19.744  23.862  -4.246  0.00  0.00    +0.111 A 
ENDBRANCH   4   3
ENDBRANCH  10   9
BRANCH  12  13
ATOM     13  N   UNL     1      14.655  13.497  -6.164  0.00  0.00    -0.281 N 
ATOM     14  C   UNL     1      13.689  13.218  -5.210  0.00  0.00    +0.248 C 
ATOM     30  O   UNL     1      12.889  14.035  -4.778  0.00  0.00    -0.270 OA
ATOM     31  H   UNL     1      15.377  12.787  -6.291  0.00  0.00    +0.155 HD
BRANCH  14  15
ATOM     15  C   UNL     1      13.610  11.837  -4.645  0.00  0.00    +0.037 A 
ATOM     16  C   UNL     1      13.670  10.657  -5.511  0.00  0.00    +0.013 A 
ATOM     17  C   UNL     1      13.574   9.336  -4.941  0.00  0.00    +0.005 A 
ATOM     18  C   UNL     1      13.418   9.189  -3.496  0.00  0.00    -0.033 A 
ATOM     28  C   UNL     1      13.367  10.377  -2.660  0.00  0.00    +0.005 A 
ATOM     29  C   UNL     1      13.460  11.673  -3.215  0.00  0.00    +0.013 A 
BRANCH  18  19
ATOM     19  C   UNL     1      13.287   7.819  -2.804  0.00  0.00    +0.119 C 
BRANCH  19  20
ATOM     20  N   UNL     1      12.150   6.947  -3.226  0.00  0.00    -0.302 NA
ATOM     21  C   UNL     1      10.798   7.510  -2.783  0.00  0.00    +0.066 C 
ATOM     22  C   UNL     1       9.619   6.597  -3.251  0.00  0.00    -0.064 C 
ATOM     23  N   UNL     1       9.823   5.184  -2.702  0.00  0.00    +0.379 N 
ATOM     24  C   UNL     1       8.687   4.337  -3.093  0.00  0.00    -0.096 C 
ATOM     25  H   UNL     1       9.828   5.251  -1.590  0.00  0.00    -0.082 HD
ATOM     26  C   UNL     1      11.167   4.616  -3.136  0.00  0.00    -0.064 C 
ATOM     27  C   UNL     1      12.330   5.547  -2.691  0.00  0.00    +0.066 C 
ENDBRANCH  19  20
ENDBRANCH  18  19
ENDBRANCH  14  15
ENDBRANCH  12  13
TORSDOF 6
ENDMDL
MODEL 3
REMARK VINA RESULT:      -7.8      3.816      7.030
REMARK  Name = C:\Users\Docking\Desktop\test protocol\1iep_ligandH.pdb
REMARK  8 active torsions:
REMARK  status: ('A' for Active; 'I' for Inactive)
REMARK    1  A    between atoms: _5  and  _11
REMARK    2  A    between atoms: _19  and  _21
REMARK    3  A    between atoms: _22  and  _66
REMARK    4  A    between atoms: _27  and  _30
REMARK    5  A    between atoms: _32  and  _33
REMARK    6  A    between atoms: _38  and  _43
REMARK    7  A    between atoms: _43  and  _46
REMARK    8  A    between atoms: _53  and  _55
REMARK                            x       y       z     vdW  Elec       q    Type
REMARK                         _______ _______ _______ _____ _____    ______ ____
ROOT
ATOM     10  C   UNL     1      14.726  17.941  -5.519  0.00  0.00    +0.038 A 
ATOM     11  C   UNL     1      14.281  16.714  -4.964  0.00  0.00    +0.047 A 
ATOM     12  C   UNL     1      14.879  15.449  -5.361  0.00  0.00    +0.035 A 
ATOM     32  C   UNL     1      15.931  15.471  -6.323  0.00  0.00    +0.024 A 
ATOM     33  C   UNL     1      16.395  16.709  -6.897  0.00  0.00    +0.007 A 
ATOM     34  C   UNL     1      15.807  17.960  -6.512  0.00  0.00    -0.029 A 
ATOM     35  C   UNL     1      16.339  19.256  -7.165  0.00  0.00    +0.045 C 
ENDROOT
BRANCH  10   9
ATOM      4  C   UNL     1      11.269  21.258  -5.825  0.00  0.00    +0.077 A 
ATOM      5  C   UNL     1      10.641  20.586  -6.925  0.00  0.00    +0.048 A 
ATOM      6  C   UNL     1      11.242  19.394  -7.387  0.00  0.00    +0.116 A 
ATOM      7  N   UNL     1      12.387  18.918  -6.786  0.00  0.00    -0.223 NA
ATOM      8  C   UNL     1      12.969  19.591  -5.727  0.00  0.00    +0.220 A 
ATOM      9  N   UNL     1      14.116  19.127  -5.102  0.00  0.00    -0.283 N 
ATOM     36  H   UNL     1      14.519  19.656  -4.329  0.00  0.00    +0.155 HD
ATOM     37  N   UNL     1      12.415  20.733  -5.268  0.00  0.00    -0.214 NA
BRANCH   4   3
ATOM      1  C   UNL     1       9.072  23.837  -3.871  0.00  0.00    +0.020 A 
ATOM      2  C   UNL     1       9.528  22.586  -4.431  0.00  0.00    +0.013 A 
ATOM      3  C   UNL     1      10.752  22.526  -5.221  0.00  0.00    +0.019 A 
ATOM     38  C   UNL     1      11.496  23.760  -5.426  0.00  0.00    +0.120 A 
ATOM     39  N   UNL     1      11.032  24.950  -4.875  0.00  0.00    -0.263 NA
ATOM     40  C   UNL     1       9.855  25.020  -4.115  0.00  0.00    +0.111 A 
ENDBRANCH   4   3
ENDBRANCH  10   9
BRANCH  12  13
ATOM     13  N   UNL     1      14.463  14.171  -4.838  0.00  0.00    -0.281 N 
ATOM     14  C   UNL     1      13.793  13.156  -5.502  0.00  0.00    +0.248 C 
ATOM     30  O   UNL     1      13.258  13.281  -6.594  0.00  0.00    -0.270 OA
ATOM     31  H   UNL     1      14.691  13.992  -3.860  0.00  0.00    +0.155 HD
BRANCH  14  15
ATOM     15  C   UNL     1      13.690  11.814  -4.854  0.00  0.00    +0.037 A 
ATOM     16  C   UNL     1      13.699  10.583  -5.649  0.00  0.00    +0.013 A 
ATOM     17  C   UNL     1      13.582   9.301  -5.000  0.00  0.00    +0.005 A 
ATOM     18  C   UNL     1      13.455   9.244  -3.546  0.00  0.00    -0.033 A 
ATOM     28  C   UNL     1      13.455  10.480  -2.781  0.00  0.00    +0.005 A 
ATOM     29  C   UNL     1      13.569  11.738  -3.414  0.00  0.00    +0.013 A 
BRANCH  18  19
ATOM     19  C   UNL     1      13.304   7.922  -2.771  0.00  0.00    +0.119 C 
BRANCH  19  20
ATOM     20  N   UNL     1      12.189   7.015  -3.177  0.00  0.00    -0.302 NA
ATOM     21  C   UNL     1      10.824   7.549  -2.733  0.00  0.00    +0.066 C 
ATOM     22  C   UNL     1       9.667   6.600  -3.186  0.00  0.00    -0.064 C 
ATOM     23  N   UNL     1       9.910   5.199  -2.622  0.00  0.00    +0.379 N 
ATOM     24  C   UNL     1       8.795   4.318  -2.998  0.00  0.00    -0.096 C 
ATOM     25  H   UNL     1       9.919   5.278  -1.510  0.00  0.00    -0.082 HD
ATOM     26  C   UNL     1      11.267   4.662  -3.057  0.00  0.00    -0.064 C 
ATOM     27  C   UNL     1      12.407   5.627  -2.627  0.00  0.00    +0.066 C 
ENDBRANCH  19  20
ENDBRANCH  18  19
ENDBRANCH  14  15
ENDBRANCH  12  13
TORSDOF 6
ENDMDL
MODEL 4
REMARK VINA RESULT:      -7.3      3.868      5.170
REMARK  Name = C:\Users\Docking\Desktop\test protocol\1iep_ligandH.pdb
REMARK  8 active torsions:
REMARK  status: ('A' for Active; 'I' for Inactive)
REMARK    1  A    between atoms: _5  and  _11
REMARK    2  A    between atoms: _19  and  _21
REMARK    3  A    between atoms: _22  and  _66
REMARK    4  A    between atoms: _27  and  _30
REMARK    5  A    between atoms: _32  and  _33
REMARK    6  A    between atoms: _38  and  _43
REMARK    7  A    between atoms: _43  and  _46
REMARK    8  A    between atoms: _53  and  _55
REMARK                            x       y       z     vdW  Elec       q    Type
REMARK                         _______ _______ _______ _____ _____    ______ ____
ROOT
ATOM     10  C   UNL     1      13.296  16.966  -5.094  0.00  0.00    +0.038 A 
ATOM     11  C   UNL     1      13.708  15.611  -5.024  0.00  0.00    +0.047 A 
ATOM     12  C   UNL     1      12.852  14.538  -5.507  0.00  0.00    +0.035 A 
ATOM     32  C   UNL     1      11.583  14.882  -6.057  0.00  0.00    +0.024 A 
ATOM     33  C   UNL     1      11.147  16.254  -6.134  0.00  0.00    +0.007 A 
ATOM     34  C   UNL     1      11.986  17.316  -5.658  0.00  0.00    -0.029 A 
ATOM     35  C   UNL     1      11.465  18.769  -5.760  0.00  0.00    +0.045 C 
ENDROOT
BRANCH  10   9
ATOM      4  C   UNL     1      16.648  20.337  -5.753  0.00  0.00    +0.077 A 
ATOM      5  C   UNL     1      16.707  20.087  -7.164  0.00  0.00    +0.048 A 
ATOM      6  C   UNL     1      15.863  19.077  -7.680  0.00  0.00    +0.116 A 
ATOM      7  N   UNL     1      15.027  18.377  -6.838  0.00  0.00    -0.223 NA
ATOM      8  C   UNL     1      14.996  18.642  -5.481  0.00  0.00    +0.220 A 
ATOM      9  N   UNL     1      14.158  17.956  -4.616  0.00  0.00    -0.283 N 
ATOM     36  H   UNL     1      14.170  18.176  -3.621  0.00  0.00    +0.155 HD
ATOM     37  N   UNL     1      15.793  19.600  -4.964  0.00  0.00    -0.214 NA
BRANCH   4   3
ATOM      1  C   UNL     1      18.052  22.809  -3.066  0.00  0.00    +0.020 A 
ATOM      2  C   UNL     1      17.222  21.804  -3.690  0.00  0.00    +0.013 A 
ATOM      3  C   UNL     1      17.476  21.374  -5.059  0.00  0.00    +0.019 A 
ATOM     38  C   UNL     1      18.586  21.984  -5.775  0.00  0.00    +0.120 A 
ATOM     39  N   UNL     1      19.367  22.951  -5.148  0.00  0.00    -0.263 NA
ATOM     40  C   UNL     1      19.131  23.374  -3.832  0.00  0.00    +0.111 A 
ENDBRANCH   4   3
ENDBRANCH  10   9
BRANCH  12  13
ATOM     13  N   UNL     1      13.214  13.143  -5.455  0.00  0.00    -0.281 N 
ATOM     14  C   UNL     1      13.501  12.379  -4.335  0.00  0.00    +0.248 C 
ATOM     30  O   UNL     1      13.700  12.835  -3.219  0.00  0.00    -0.270 OA
ATOM     31  H   UNL     1      13.264  12.660  -6.352  0.00  0.00    +0.155 HD
BRANCH  14  15
ATOM     15  C   UNL     1      13.596  10.894  -4.479  0.00  0.00    +0.037 A 
ATOM     16  C   UNL     1      13.691  10.021  -3.306  0.00  0.00    +0.013 A 
ATOM     17  C   UNL     1      13.798   8.594  -3.474  0.00  0.00    +0.005 A 
ATOM     18  C   UNL     1      13.809   8.030  -4.822  0.00  0.00    -0.033 A 
ATOM     28  C   UNL     1      13.708   8.918  -5.968  0.00  0.00    +0.005 A 
ATOM     29  C   UNL     1      13.604  10.318  -5.807  0.00  0.00    +0.013 A 
BRANCH  18  19
ATOM     19  C   UNL     1      13.942   6.520  -5.095  0.00  0.00    +0.119 C 
BRANCH  19  20
ATOM     20  N   UNL     1      13.165   5.595  -4.217  0.00  0.00    -0.302 NA
ATOM     21  C   UNL     1      13.760   4.184  -4.199  0.00  0.00    +0.066 C 
ATOM     22  C   UNL     1      12.949   3.236  -3.258  0.00  0.00    -0.064 C 
ATOM     23  N   UNL     1      11.488   3.201  -3.710  0.00  0.00    +0.379 N 
ATOM     24  C   UNL     1      10.734   2.266  -2.862  0.00  0.00    -0.096 C 
ATOM     25  H   UNL     1      11.466   2.807  -4.752  0.00  0.00    -0.082 HD
ATOM     26  C   UNL     1      10.889   4.600  -3.733  0.00  0.00    -0.064 C 
ATOM     27  C   UNL     1      11.720   5.543  -4.648  0.00  0.00    +0.066 C 
ENDBRANCH  19  20
ENDBRANCH  18  19
ENDBRANCH  14  15
ENDBRANCH  12  13
TORSDOF 6
ENDMDL
MODEL 5
REMARK VINA RESULT:      -7.0     24.687     27.083
REMARK  Name = C:\Users\Docking\Desktop\test protocol\1iep_ligandH.pdb
REMARK  8 active torsions:
REMARK  status: ('A' for Active; 'I' for Inactive)
REMARK    1  A    between atoms: _5  and  _11
REMARK    2  A    between atoms: _19  and  _21
REMARK    3  A    between atoms: _22  and  _66
REMARK    4  A    between atoms: _27  and  _30
REMARK    5  A    between atoms: _32  and  _33
REMARK    6  A    between atoms: _38  and  _43
REMARK    7  A    between atoms: _43  and  _46
REMARK    8  A    between atoms: _53  and  _55
REMARK                            x       y       z     vdW  Elec       q    Type
REMARK                         _______ _______ _______ _____ _____    ______ ____
ROOT
ATOM     10  C   UNL     1      34.152   7.189  11.651  0.00  0.00    +0.038 A 
ATOM     11  C   UNL     1      32.800   7.503  11.943  0.00  0.00    +0.047 A 
ATOM     12  C   UNL     1      32.142   8.645  11.326  0.00  0.00    +0.035 A 
ATOM     32  C   UNL     1      32.891   9.444  10.414  0.00  0.00    +0.024 A 
ATOM     33  C   UNL     1      34.267   9.140  10.107  0.00  0.00    +0.007 A 
ATOM     34  C   UNL     1      34.921   8.016  10.714  0.00  0.00    -0.029 A 
ATOM     35  C   UNL     1      36.399   7.741  10.352  0.00  0.00    +0.045 C 
ENDROOT
BRANCH  10   9
ATOM      4  C   UNL     1      35.347   2.542  11.761  0.00  0.00    +0.077 A 
ATOM      5  C   UNL     1      34.739   2.294  10.486  0.00  0.00    +0.048 A 
ATOM      6  C   UNL     1      34.123   3.388   9.837  0.00  0.00    +0.116 A 
ATOM      7  N   UNL     1      34.121   4.632  10.430  0.00  0.00    -0.223 NA
ATOM      8  C   UNL     1      34.716   4.837  11.661  0.00  0.00    +0.220 A 
ATOM      9  N   UNL     1      34.733   6.081  12.272  0.00  0.00    -0.283 N 
ATOM     36  H   UNL     1      35.175   6.189  13.184  0.00  0.00    +0.155 HD
ATOM     37  N   UNL     1      35.310   3.808  12.301  0.00  0.00    -0.214 NA
BRANCH   4   3
ATOM      1  C   UNL     1      37.107   0.638  14.690  0.00  0.00    +0.020 A 
ATOM      2  C   UNL     1      36.441   1.688  13.955  0.00  0.00    +0.013 A 
ATOM      3  C   UNL     1      36.041   1.489  12.568  0.00  0.00    +0.019 A 
ATOM     38  C   UNL     1      36.332   0.204  11.949  0.00  0.00    +0.120 A 
ATOM     39  N   UNL     1      36.977  -0.788  12.681  0.00  0.00    -0.263 NA
ATOM     40  C   UNL     1      37.368  -0.606  14.016  0.00  0.00    +0.111 A 
ENDBRANCH   4   3
ENDBRANCH  10   9
BRANCH  12  13
ATOM     13  N   UNL     1      30.774   9.017  11.590  0.00  0.00    -0.281 N 
ATOM     14  C   UNL     1      29.626   8.298  11.303  0.00  0.00    +0.248 C 
ATOM     30  O   UNL     1      29.589   7.314  10.579  0.00  0.00    -0.270 OA
ATOM     31  H   UNL     1      30.637   9.920  12.043  0.00  0.00    +0.155 HD
BRANCH  14  15
ATOM     15  C   UNL     1      28.328   8.745  11.895  0.00  0.00    +0.037 A 
ATOM     16  C   UNL     1      28.098  10.147  12.251  0.00  0.00    +0.013 A 
ATOM     17  C   UNL     1      26.843  10.548  12.836  0.00  0.00    +0.005 A 
ATOM     18  C   UNL     1      25.807   9.544  13.068  0.00  0.00    -0.033 A 
ATOM     28  C   UNL     1      26.060   8.161  12.701  0.00  0.00    +0.005 A 
ATOM     29  C   UNL     1      27.289   7.764  12.128  0.00  0.00    +0.013 A 
BRANCH  18  19
ATOM     19  C   UNL     1      24.446   9.878  13.707  0.00  0.00    +0.119 C 
BRANCH  19  20
ATOM     20  N   UNL     1      24.212   9.404  15.104  0.00  0.00    -0.302 NA
ATOM     21  C   UNL     1      25.483   9.476  15.956  0.00  0.00    +0.066 C 
ATOM     22  C   UNL     1      25.215   8.998  17.420  0.00  0.00    -0.064 C 
ATOM     23  N   UNL     1      24.659   7.573  17.395  0.00  0.00    +0.379 N 
ATOM     24  C   UNL     1      24.461   7.100  18.772  0.00  0.00    -0.096 C 
ATOM     25  H   UNL     1      25.428   6.920  16.920  0.00  0.00    -0.082 HD
ATOM     26  C   UNL     1      23.397   7.492  16.548  0.00  0.00    -0.064 C 
ATOM     27  C   UNL     1      23.668   7.997  15.103  0.00  0.00    +0.066 C 
ENDBRANCH  19  20
ENDBRANCH  18  19
ENDBRANCH  14  15
ENDBRANCH  12  13
TORSDOF 6
ENDMDL
