MODEL 1
REMARK VINA RESULT:      -8.9      0.000      0.000
REMARK  Name = C:\Users\Docking\Desktop\test protocol\1iep_ligandH.pdb
REMARK  8 active torsions:
REMARK  status: ('A' for Active; 'I' for Inactive)
REMARK    1  A    between atoms: _5  and  _11
REMARK    2  A    between atoms: _19  and  _21
REMARK    3  A    between atoms: _22  and  _66
REMARK    4  A    between atoms: _27  and  _30
REMARK    5  A    between atoms: _32  and  _33
REMARK    6  A    between atoms: _38  and  _43
REMARK    7  A    between atoms: _43  and  _46
REMARK    8  A    between atoms: _53  and  _55
REMARK                            x       y       z     vdW  Elec       q    Type
REMARK                         _______ _______ _______ _____ _____    ______ ____
ROOT
ATOM     10  C   UNL     1      16.332  16.834  -6.541  0.00  0.00    +0.038 A 
ATOM     11  C   UNL     1      15.939  15.563  -6.048  0.00  0.00    +0.047 A 
ATOM     12  C   UNL     1      14.750  15.410  -5.225  0.00  0.00    +0.035 A 
ATOM     32  C   UNL     1      13.982  16.573  -4.924  0.00  0.00    +0.024 A 
ATOM     33  C   UNL     1      14.367  17.872  -5.416  0.00  0.00    +0.007 A 
ATOM     34  C   UNL     1      15.541  18.030  -6.227  0.00  0.00    -0.029 A 
ATOM     35  C   UNL     1      15.910  19.448  -6.721  0.00  0.00    +0.045 C 
ENDROOT
BRANCH  10   9
ATOM      4  C   UNL     1      18.641  16.409 -10.727  0.00  0.00    +0.077 A 
ATOM      5  C   UNL     1      17.461  15.945 -11.399  0.00  0.00    +0.048 A 
ATOM      6  C   UNL     1      16.283  15.822 -10.629  0.00  0.00    +0.116 A 
ATOM      7  N   UNL     1      16.295  16.144  -9.289  0.00  0.00    -0.223 NA
ATOM      8  C   UNL     1      17.450  16.587  -8.672  0.00  0.00    +0.220 A 
ATOM      9  N   UNL     1      17.483  16.923  -7.327  0.00  0.00    -0.283 N 
ATOM     36  H   UNL     1      18.357  17.239  -6.908  0.00  0.00    +0.155 HD
ATOM     37  N   UNL     1      18.589  16.711  -9.385  0.00  0.00    -0.214 NA
BRANCH   4   3
ATOM      1  C   UNL     1      22.485  16.562 -11.434  0.00  0.00    +0.020 A 
ATOM      2  C   UNL     1      21.237  16.370 -10.733  0.00  0.00    +0.013 A 
ATOM      3  C   UNL     1      19.963  16.594 -11.405  0.00  0.00    +0.019 A 
ATOM     38  C   UNL     1      19.988  17.015 -12.798  0.00  0.00    +0.120 A 
ATOM     39  N   UNL     1      21.206  17.193 -13.447  0.00  0.00    -0.263 NA
ATOM     40  C   UNL     1      22.438  16.982 -12.809  0.00  0.00    +0.111 A 
ENDBRANCH   4   3
ENDBRANCH  10   9
BRANCH  12  13
ATOM     13  N   UNL     1      14.307  14.147  -4.689  0.00  0.00    -0.281 N 
ATOM     14  C   UNL     1      13.763  13.074  -5.377  0.00  0.00    +0.248 C 
ATOM     30  O   UNL     1      13.377  13.120  -6.536  0.00  0.00    -0.270 OA
ATOM     31  H   UNL     1      14.406  14.029  -3.681  0.00  0.00    +0.155 HD
BRANCH  14  15
ATOM     15  C   UNL     1      13.615  11.765  -4.672  0.00  0.00    +0.037 A 
ATOM     16  C   UNL     1      13.382  11.702  -3.227  0.00  0.00    +0.013 A 
ATOM     17  C   UNL     1      13.259  10.426  -2.569  0.00  0.00    +0.005 A 
ATOM     18  C   UNL     1      13.368   9.200  -3.357  0.00  0.00    -0.033 A 
ATOM     28  C   UNL     1      13.594   9.292  -4.790  0.00  0.00    +0.005 A 
ATOM     29  C   UNL     1      13.716  10.541  -5.438  0.00  0.00    +0.013 A 
BRANCH  18  19
ATOM     19  C   UNL     1      13.271   7.795  -2.735  0.00  0.00    +0.119 C 
BRANCH  19  20
ATOM     20  N   UNL     1      12.133   6.931  -3.171  0.00  0.00    -0.302 NA
ATOM     21  C   UNL     1      10.780   7.504  -2.743  0.00  0.00    +0.066 C 
ATOM     22  C   UNL     1       9.600   6.600  -3.227  0.00  0.00    -0.064 C 
ATOM     23  N   UNL     1       9.787   5.185  -2.678  0.00  0.00    +0.379 N 
ATOM     24  C   UNL     1       8.649   4.347  -3.083  0.00  0.00    -0.096 C 
ATOM     25  H   UNL     1       9.779   5.251  -1.565  0.00  0.00    -0.082 HD
ATOM     26  C   UNL     1      11.132   4.608  -3.096  0.00  0.00    -0.064 C 
ATOM     27  C   UNL     1      12.296   5.529  -2.636  0.00  0.00    +0.066 C 
ENDBRANCH  19  20
ENDBRANCH  18  19
ENDBRANCH  14  15
ENDBRANCH  12  13
TORSDOF 6
ENDMDL
MODEL 2
REMARK VINA RESULT:      -8.7     18.714     22.482
REMARK  Name = C:\Users\Docking\Desktop\test protocol\1iep_ligandH.pdb
REMARK  8 active torsions:
REMARK  status: ('A' for Active; 'I' for Inactive)
REMARK    1  A    between atoms: _5  and  _11
REMARK    2  A    between atoms: _19  and  _21
REMARK    3  A    between atoms: _22  and  _66
REMARK    4  A    between atoms: _27  and  _30
REMARK    5  A    between atoms: _32  and  _33
REMARK    6  A    between atoms: _38  and  _43
REMARK    7  A    between atoms: _43  and  _46
REMARK    8  A    between atoms: _53  and  _55
REMARK                            x       y       z     vdW  Elec       q    Type
REMARK                         _______ _______ _______ _____ _____    ______ ____
ROOT
ATOM     10  C   UNL     1      21.985  11.207  15.208  0.00  0.00    +0.038 A 
ATOM     11  C   UNL     1      20.684  11.205  14.645  0.00  0.00    +0.047 A 
ATOM     12  C   UNL     1      19.937  12.441  14.471  0.00  0.00    +0.035 A 
ATOM     32  C   UNL     1      20.548  13.663  14.879  0.00  0.00    +0.024 A 
ATOM     33  C   UNL     1      21.870  13.683  15.454  0.00  0.00    +0.007 A 
ATOM     34  C   UNL     1      22.610  12.466  15.630  0.00  0.00    -0.029 A 
ATOM     35  C   UNL     1      24.021  12.547  16.258  0.00  0.00    +0.045 C 
ENDROOT
BRANCH  10   9
ATOM      4  C   UNL     1      25.380   8.068  13.918  0.00  0.00    +0.077 A 
ATOM      5  C   UNL     1      25.836   8.910  12.851  0.00  0.00    +0.048 A 
ATOM      6  C   UNL     1      25.166  10.140  12.662  0.00  0.00    +0.116 A 
ATOM      7  N   UNL     1      24.119  10.491  13.486  0.00  0.00    -0.223 NA
ATOM      8  C   UNL     1      23.703   9.655  14.506  0.00  0.00    +0.220 A 
ATOM      9  N   UNL     1      22.657   9.991  15.352  0.00  0.00    -0.283 N 
ATOM     36  H   UNL     1      22.375   9.344  16.087  0.00  0.00    +0.155 HD
ATOM     37  N   UNL     1      24.325   8.474  14.706  0.00  0.00    -0.214 NA
BRANCH   4   3
ATOM      1  C   UNL     1      27.438   4.749  13.699  0.00  0.00    +0.020 A 
ATOM      2  C   UNL     1      26.877   6.029  13.335  0.00  0.00    +0.013 A 
ATOM      3  C   UNL     1      25.988   6.740  14.246  0.00  0.00    +0.019 A 
ATOM     38  C   UNL     1      25.687   6.123  15.529  0.00  0.00    +0.120 A 
ATOM     39  N   UNL     1      26.241   4.889  15.852  0.00  0.00    -0.263 NA
ATOM     40  C   UNL     1      27.096   4.195  14.983  0.00  0.00    +0.111 A 
ENDBRANCH   4   3
ENDBRANCH  10   9
BRANCH  12  13
ATOM     13  N   UNL     1      18.609  12.500  13.912  0.00  0.00    -0.281 N 
ATOM     14  C   UNL     1      17.432  12.018  14.462  0.00  0.00    +0.248 C 
ATOM     30  O   UNL     1      17.375  11.269  15.426  0.00  0.00    -0.270 OA
ATOM     31  H   UNL     1      18.526  12.952  13.002  0.00  0.00    +0.155 HD
BRANCH  14  15
ATOM     15  C   UNL     1      16.131  12.413  13.842  0.00  0.00    +0.037 A 
ATOM     16  C   UNL     1      15.872  12.200  12.416  0.00  0.00    +0.013 A 
ATOM     17  C   UNL     1      14.615  12.607  11.840  0.00  0.00    +0.005 A 
ATOM     18  C   UNL     1      13.605  13.229  12.692  0.00  0.00    -0.033 A 
ATOM     28  C   UNL     1      13.885  13.424  14.105  0.00  0.00    +0.005 A 
ATOM     29  C   UNL     1      15.117  13.028  14.673  0.00  0.00    +0.013 A 
BRANCH  18  19
ATOM     19  C   UNL     1      12.244  13.713  12.159  0.00  0.00    +0.119 C 
BRANCH  19  20
ATOM     20  N   UNL     1      12.260  14.718  11.054  0.00  0.00    -0.302 NA
ATOM     21  C   UNL     1      12.328  14.055   9.676  0.00  0.00    +0.066 C 
ATOM     22  C   UNL     1      12.322  15.120   8.531  0.00  0.00    -0.064 C 
ATOM     23  N   UNL     1      13.494  16.083   8.728  0.00  0.00    +0.379 N 
ATOM     24  C   UNL     1      13.525  17.051   7.621  0.00  0.00    -0.096 C 
ATOM     25  H   UNL     1      14.434  15.486   8.681  0.00  0.00    -0.082 HD
ATOM     26  C   UNL     1      13.435  16.745  10.097  0.00  0.00    -0.064 C 
ATOM     27  C   UNL     1      13.412  15.677  11.226  0.00  0.00    +0.066 C 
ENDBRANCH  19  20
ENDBRANCH  18  19
ENDBRANCH  14  15
ENDBRANCH  12  13
TORSDOF 6
ENDMDL
MODEL 3
REMARK VINA RESULT:      -8.6     18.360     22.089
REMARK  Name = C:\Users\Docking\Desktop\test protocol\1iep_ligandH.pdb
REMARK  8 active torsions:
REMARK  status: ('A' for Active; 'I' for Inactive)
REMARK    1  A    between atoms: _5  and  _11
REMARK    2  A    between atoms: _19  and  _21
REMARK    3  A    between atoms: _22  and  _66
REMARK    4  A    between atoms: _27  and  _30
REMARK    5  A    between atoms: _32  and  _33
REMARK    6  A    between atoms: _38  and  _43
REMARK    7  A    between atoms: _43  and  _46
REMARK    8  A    between atoms: _53  and  _55
REMARK                            x       y       z     vdW  Elec       q    Type
REMARK                         _______ _______ _______ _____ _____    ______ ____
ROOT
ATOM     10  C   UNL     1      25.626  12.235  12.291  0.00  0.00    +0.038 A 
ATOM     11  C   UNL     1      24.360  12.779  11.954  0.00  0.00    +0.047 A 
ATOM     12  C   UNL     1      24.210  14.188  11.626  0.00  0.00    +0.035 A 
ATOM     32  C   UNL     1      25.371  15.015  11.649  0.00  0.00    +0.024 A 
ATOM     33  C   UNL     1      26.665  14.479  11.991  0.00  0.00    +0.007 A 
ATOM     34  C   UNL     1      26.819  13.090  12.318  0.00  0.00    -0.029 A 
ATOM     35  C   UNL     1      28.229  12.572  12.683  0.00  0.00    +0.045 C 
ENDROOT
BRANCH  10   9
ATOM      4  C   UNL     1      25.555   8.586  15.408  0.00  0.00    +0.077 A 
ATOM      5  C   UNL     1      25.355   9.466  16.524  0.00  0.00    +0.048 A 
ATOM      6  C   UNL     1      25.283  10.851  16.254  0.00  0.00    +0.116 A 
ATOM      7  N   UNL     1      25.403  11.311  14.960  0.00  0.00    -0.223 NA
ATOM      8  C   UNL     1      25.597  10.436  13.907  0.00  0.00    +0.220 A 
ATOM      9  N   UNL     1      25.712  10.876  12.598  0.00  0.00    -0.283 N 
ATOM     36  H   UNL     1      25.862  10.199  11.850  0.00  0.00    +0.155 HD
ATOM     37  N   UNL     1      25.670   9.108  14.139  0.00  0.00    -0.214 NA
BRANCH   4   3
ATOM      1  C   UNL     1      25.221   4.922  16.737  0.00  0.00    +0.020 A 
ATOM      2  C   UNL     1      25.104   6.360  16.666  0.00  0.00    +0.013 A 
ATOM      3  C   UNL     1      25.648   7.097  15.532  0.00  0.00    +0.019 A 
ATOM     38  C   UNL     1      26.309   6.342  14.478  0.00  0.00    +0.120 A 
ATOM     39  N   UNL     1      26.408   4.958  14.574  0.00  0.00    -0.263 NA
ATOM     40  C   UNL     1      25.890   4.238  15.661  0.00  0.00    +0.111 A 
ENDBRANCH   4   3
ENDBRANCH  10   9
BRANCH  12  13
ATOM     13  N   UNL     1      22.949  14.798  11.283  0.00  0.00    -0.281 N 
ATOM     14  C   UNL     1      22.458  15.088  10.020  0.00  0.00    +0.248 C 
ATOM     30  O   UNL     1      23.125  15.061   8.997  0.00  0.00    -0.270 OA
ATOM     31  H   UNL     1      22.345  15.047  12.067  0.00  0.00    +0.155 HD
BRANCH  14  15
ATOM     15  C   UNL     1      21.023  15.478   9.876  0.00  0.00    +0.037 A 
ATOM     16  C   UNL     1      19.945  14.514  10.112  0.00  0.00    +0.013 A 
ATOM     17  C   UNL     1      18.570  14.912   9.949  0.00  0.00    +0.005 A 
ATOM     18  C   UNL     1      18.264  16.283   9.548  0.00  0.00    -0.033 A 
ATOM     28  C   UNL     1      19.352  17.221   9.326  0.00  0.00    +0.005 A 
ATOM     29  C   UNL     1      20.701  16.834   9.484  0.00  0.00    +0.013 A 
BRANCH  18  19
ATOM     19  C   UNL     1      16.826  16.790   9.330  0.00  0.00    +0.119 C 
BRANCH  19  20
ATOM     20  N   UNL     1      16.159  16.422   8.045  0.00  0.00    -0.302 NA
ATOM     21  C   UNL     1      16.342  17.501   6.974  0.00  0.00    +0.066 C 
ATOM     22  C   UNL     1      15.657  17.090   5.630  0.00  0.00    -0.064 C 
ATOM     23  N   UNL     1      14.172  16.820   5.878  0.00  0.00    +0.379 N 
ATOM     24  C   UNL     1      13.514  16.489   4.606  0.00  0.00    -0.096 C 
ATOM     25  H   UNL     1      13.716  17.763   6.261  0.00  0.00    -0.082 HD
ATOM     26  C   UNL     1      13.982  15.750   6.944  0.00  0.00    -0.064 C 
ATOM     27  C   UNL     1      14.690  16.155   8.267  0.00  0.00    +0.066 C 
ENDBRANCH  19  20
ENDBRANCH  18  19
ENDBRANCH  14  15
ENDBRANCH  12  13
TORSDOF 6
ENDMDL
MODEL 4
REMARK VINA RESULT:      -8.2     15.944     20.798
REMARK  Name = C:\Users\Docking\Desktop\test protocol\1iep_ligandH.pdb
REMARK  8 active torsions:
REMARK  status: ('A' for Active; 'I' for Inactive)
REMARK    1  A    between atoms: _5  and  _11
REMARK    2  A    between atoms: _19  and  _21
REMARK    3  A    between atoms: _22  and  _66
REMARK    4  A    between atoms: _27  and  _30
REMARK    5  A    between atoms: _32  and  _33
REMARK    6  A    between atoms: _38  and  _43
REMARK    7  A    between atoms: _43  and  _46
REMARK    8  A    between atoms: _53  and  _55
REMARK                            x       y       z     vdW  Elec       q    Type
REMARK                         _______ _______ _______ _____ _____    ______ ____
ROOT
ATOM     10  C   UNL     1      17.505  15.339   8.685  0.00  0.00    +0.038 A 
ATOM     11  C   UNL     1      18.405  16.435   8.646  0.00  0.00    +0.047 A 
ATOM     12  C   UNL     1      19.659  16.405   9.382  0.00  0.00    +0.035 A 
ATOM     32  C   UNL     1      19.967  15.242  10.145  0.00  0.00    +0.024 A 
ATOM     33  C   UNL     1      19.063  14.119  10.197  0.00  0.00    +0.007 A 
ATOM     34  C   UNL     1      17.823  14.144   9.475  0.00  0.00    -0.029 A 
ATOM     35  C   UNL     1      16.890  12.915   9.572  0.00  0.00    +0.045 C 
ENDROOT
BRANCH  10   9
ATOM      4  C   UNL     1      12.937  16.728   8.190  0.00  0.00    +0.077 A 
ATOM      5  C   UNL     1      12.912  17.315   9.499  0.00  0.00    +0.048 A 
ATOM      6  C   UNL     1      14.093  17.232  10.270  0.00  0.00    +0.116 A 
ATOM      7  N   UNL     1      15.210  16.607   9.760  0.00  0.00    -0.223 NA
ATOM      8  C   UNL     1      15.200  16.049   8.495  0.00  0.00    +0.220 A 
ATOM      9  N   UNL     1      16.315  15.422   7.959  0.00  0.00    -0.283 N 
ATOM     36  H   UNL     1      16.265  15.016   7.025  0.00  0.00    +0.155 HD
ATOM     37  N   UNL     1      14.084  16.113   7.739  0.00  0.00    -0.214 NA
BRANCH   4   3
ATOM      1  C   UNL     1       9.474  17.512   6.550  0.00  0.00    +0.020 A 
ATOM      2  C   UNL     1      10.574  17.539   7.486  0.00  0.00    +0.013 A 
ATOM      3  C   UNL     1      11.769  16.737   7.254  0.00  0.00    +0.019 A 
ATOM     38  C   UNL     1      11.819  15.913   6.055  0.00  0.00    +0.120 A 
ATOM     39  N   UNL     1      10.744  15.906   5.173  0.00  0.00    -0.263 NA
ATOM     40  C   UNL     1       9.588  16.672   5.386  0.00  0.00    +0.111 A 
ENDBRANCH   4   3
ENDBRANCH  10   9
BRANCH  12  13
ATOM     13  N   UNL     1      20.608  17.491   9.387  0.00  0.00    -0.281 N 
ATOM     14  C   UNL     1      21.693  17.677   8.546  0.00  0.00    +0.248 C 
ATOM     30  O   UNL     1      22.140  16.823   7.794  0.00  0.00    -0.270 OA
ATOM     31  H   UNL     1      20.462  18.209  10.096  0.00  0.00    +0.155 HD
BRANCH  14  15
ATOM     15  C   UNL     1      22.392  18.998   8.551  0.00  0.00    +0.037 A 
ATOM     16  C   UNL     1      22.281  19.921   7.419  0.00  0.00    +0.013 A 
ATOM     17  C   UNL     1      22.980  21.182   7.442  0.00  0.00    +0.005 A 
ATOM     18  C   UNL     1      23.795  21.528   8.604  0.00  0.00    -0.033 A 
ATOM     28  C   UNL     1      23.883  20.596   9.716  0.00  0.00    +0.005 A 
ATOM     29  C   UNL     1      23.201  19.359   9.696  0.00  0.00    +0.013 A 
BRANCH  18  19
ATOM     19  C   UNL     1      24.591  22.842   8.706  0.00  0.00    +0.119 C 
BRANCH  19  20
ATOM     20  N   UNL     1      25.262  23.136  10.008  0.00  0.00    -0.302 NA
ATOM     21  C   UNL     1      25.009  24.573  10.473  0.00  0.00    +0.066 C 
ATOM     22  C   UNL     1      25.699  24.856  11.847  0.00  0.00    -0.064 C 
ATOM     23  N   UNL     1      27.199  24.582  11.727  0.00  0.00    +0.379 N 
ATOM     24  C   UNL     1      27.860  24.903  13.000  0.00  0.00    -0.096 C 
ATOM     25  H   UNL     1      27.608  25.270  10.951  0.00  0.00    -0.082 HD
ATOM     26  C   UNL     1      27.460  23.156  11.262  0.00  0.00    -0.064 C 
ATOM     27  C   UNL     1      26.745  22.876   9.910  0.00  0.00    +0.066 C 
ENDBRANCH  19  20
ENDBRANCH  18  19
ENDBRANCH  14  15
ENDBRANCH  12  13
TORSDOF 6
ENDMDL
MODEL 5
REMARK VINA RESULT:      -8.2     14.906     20.106
REMARK  Name = C:\Users\Docking\Desktop\test protocol\1iep_ligandH.pdb
REMARK  8 active torsions:
REMARK  status: ('A' for Active; 'I' for Inactive)
REMARK    1  A    between atoms: _5  and  _11
REMARK    2  A    between atoms: _19  and  _21
REMARK    3  A    between atoms: _22  and  _66
REMARK    4  A    between atoms: _27  and  _30
REMARK    5  A    between atoms: _32  and  _33
REMARK    6  A    between atoms: _38  and  _43
REMARK    7  A    between atoms: _43  and  _46
REMARK    8  A    between atoms: _53  and  _55
REMARK                            x       y       z     vdW  Elec       q    Type
REMARK                         _______ _______ _______ _____ _____    ______ ____
ROOT
ATOM     10  C   UNL     1      17.325  14.905   8.790  0.00  0.00    +0.038 A 
ATOM     11  C   UNL     1      18.276  15.954   8.718  0.00  0.00    +0.047 A 
ATOM     12  C   UNL     1      19.484  15.932   9.528  0.00  0.00    +0.035 A 
ATOM     32  C   UNL     1      19.692  14.823  10.400  0.00  0.00    +0.024 A 
ATOM     33  C   UNL     1      18.734  13.749  10.486  0.00  0.00    +0.007 A 
ATOM     34  C   UNL     1      17.540  13.767   9.691  0.00  0.00    -0.029 A 
ATOM     35  C   UNL     1      16.545  12.591   9.830  0.00  0.00    +0.045 C 
ENDROOT
BRANCH  10   9
ATOM      4  C   UNL     1      12.960  16.633   7.789  0.00  0.00    +0.077 A 
ATOM      5  C   UNL     1      12.941  17.438   8.977  0.00  0.00    +0.048 A 
ATOM      6  C   UNL     1      14.072  17.373   9.822  0.00  0.00    +0.116 A 
ATOM      7  N   UNL     1      15.136  16.561   9.494  0.00  0.00    -0.223 NA
ATOM      8  C   UNL     1      15.120  15.796   8.342  0.00  0.00    +0.220 A 
ATOM      9  N   UNL     1      16.183  14.978   7.989  0.00  0.00    -0.283 N 
ATOM     36  H   UNL     1      16.130  14.424   7.135  0.00  0.00    +0.155 HD
ATOM     37  N   UNL     1      14.052  15.839   7.519  0.00  0.00    -0.214 NA
BRANCH   4   3
ATOM      1  C   UNL     1       9.395  16.634   6.179  0.00  0.00    +0.020 A 
ATOM      2  C   UNL     1      10.437  16.674   7.179  0.00  0.00    +0.013 A 
ATOM      3  C   UNL     1      11.841  16.595   6.795  0.00  0.00    +0.019 A 
ATOM     38  C   UNL     1      12.159  16.476   5.380  0.00  0.00    +0.120 A 
ATOM     39  N   UNL     1      11.134  16.439   4.440  0.00  0.00    -0.263 NA
ATOM     40  C   UNL     1       9.779  16.512   4.797  0.00  0.00    +0.111 A 
ENDBRANCH   4   3
ENDBRANCH  10   9
BRANCH  12  13
ATOM     13  N   UNL     1      20.482  16.972   9.503  0.00  0.00    -0.281 N 
ATOM     14  C   UNL     1      21.397  17.251   8.502  0.00  0.00    +0.248 C 
ATOM     30  O   UNL     1      21.640  16.508   7.562  0.00  0.00    -0.270 OA
ATOM     31  H   UNL     1      20.518  17.577  10.324  0.00  0.00    +0.155 HD
BRANCH  14  15
ATOM     15  C   UNL     1      22.165  18.532   8.560  0.00  0.00    +0.037 A 
ATOM     16  C   UNL     1      22.039  19.542   7.507  0.00  0.00    +0.013 A 
ATOM     17  C   UNL     1      22.804  20.762   7.579  0.00  0.00    +0.005 A 
ATOM     18  C   UNL     1      23.701  20.978   8.712  0.00  0.00    -0.033 A 
ATOM     28  C   UNL     1      23.803  19.962   9.745  0.00  0.00    +0.005 A 
ATOM     29  C   UNL     1      23.056  18.764   9.677  0.00  0.00    +0.013 A 
BRANCH  18  19
ATOM     19  C   UNL     1      24.571  22.241   8.860  0.00  0.00    +0.119 C 
BRANCH  19  20
ATOM     20  N   UNL     1      25.469  22.590   7.719  0.00  0.00    -0.302 NA
ATOM     21  C   UNL     1      26.890  22.917   8.186  0.00  0.00    +0.066 C 
ATOM     22  C   UNL     1      27.822  23.258   6.978  0.00  0.00    -0.064 C 
ATOM     23  N   UNL     1      27.227  24.429   6.194  0.00  0.00    +0.379 N 
ATOM     24  C   UNL     1      28.129  24.790   5.091  0.00  0.00    -0.096 C 
ATOM     25  H   UNL     1      27.169  25.303   6.883  0.00  0.00    -0.082 HD
ATOM     26  C   UNL     1      25.812  24.114   5.728  0.00  0.00    -0.064 C 
ATOM     27  C   UNL     1      24.902  23.747   6.934  0.00  0.00    +0.066 C 
ENDBRANCH  19  20
ENDBRANCH  18  19
ENDBRANCH  14  15
ENDBRANCH  12  13
TORSDOF 6
ENDMDL
