MODEL 1
REMARK VINA RESULT:      -8.2      0.000      0.000
REMARK  Name = C:\Users\Docking\Desktop\test protocol\1iep_ligandH.pdb
REMARK  8 active torsions:
REMARK  status: ('A' for Active; 'I' for Inactive)
REMARK    1  A    between atoms: _5  and  _11
REMARK    2  A    between atoms: _19  and  _21
REMARK    3  A    between atoms: _22  and  _66
REMARK    4  A    between atoms: _27  and  _30
REMARK    5  A    between atoms: _32  and  _33
REMARK    6  A    between atoms: _38  and  _43
REMARK    7  A    between atoms: _43  and  _46
REMARK    8  A    between atoms: _53  and  _55
REMARK                            x       y       z     vdW  Elec       q    Type
REMARK                         _______ _______ _______ _____ _____    ______ ____
ROOT
ATOM     10  C   UNL     1      14.199  10.274  29.768  0.00  0.00    +0.038 A 
ATOM     11  C   UNL     1      15.288  11.110  29.412  0.00  0.00    +0.047 A 
ATOM     12  C   UNL     1      16.434  11.269  30.295  0.00  0.00    +0.035 A 
ATOM     32  C   UNL     1      16.437  10.560  31.531  0.00  0.00    +0.024 A 
ATOM     33  C   UNL     1      15.338   9.707  31.909  0.00  0.00    +0.007 A 
ATOM     34  C   UNL     1      14.204   9.548  31.043  0.00  0.00    -0.029 A 
ATOM     35  C   UNL     1      13.051   8.626  31.502  0.00  0.00    +0.045 C 
ENDROOT
BRANCH  10   9
ATOM      4  C   UNL     1      10.057  11.834  27.909  0.00  0.00    +0.077 A 
ATOM      5  C   UNL     1      10.016  12.961  28.795  0.00  0.00    +0.048 A 
ATOM      6  C   UNL     1      11.076  13.099  29.719  0.00  0.00    +0.116 A 
ATOM      7  N   UNL     1      12.096  12.173  29.746  0.00  0.00    -0.223 NA
ATOM      8  C   UNL     1      12.105  11.097  28.878  0.00  0.00    +0.220 A 
ATOM      9  N   UNL     1      13.125  10.158  28.882  0.00  0.00    -0.283 N 
ATOM     36  H   UNL     1      13.091   9.374  28.231  0.00  0.00    +0.155 HD
ATOM     37  N   UNL     1      11.103  10.942  27.988  0.00  0.00    -0.214 NA
BRANCH   4   3
ATOM      1  C   UNL     1       6.677  11.757  25.943  0.00  0.00    +0.020 A 
ATOM      2  C   UNL     1       7.648  12.057  26.969  0.00  0.00    +0.013 A 
ATOM      3  C   UNL     1       9.012  11.552  26.875  0.00  0.00    +0.019 A 
ATOM     38  C   UNL     1       9.364  10.741  25.720  0.00  0.00    +0.120 A 
ATOM     39  N   UNL     1       8.407  10.467  24.747  0.00  0.00    -0.263 NA
ATOM     40  C   UNL     1       7.091  10.946  24.829  0.00  0.00    +0.111 A 
ENDBRANCH   4   3
ENDBRANCH  10   9
BRANCH  12  13
ATOM     13  N   UNL     1      17.565  12.110  29.991  0.00  0.00    -0.281 N 
ATOM     14  C   UNL     1      18.821  11.723  29.555  0.00  0.00    +0.248 C 
ATOM     30  O   UNL     1      19.231  10.571  29.564  0.00  0.00    -0.270 OA
ATOM     31  H   UNL     1      17.422  13.113  30.113  0.00  0.00    +0.155 HD
BRANCH  14  15
ATOM     15  C   UNL     1      19.763  12.766  29.049  0.00  0.00    +0.037 A 
ATOM     16  C   UNL     1      20.761  12.456  28.022  0.00  0.00    +0.013 A 
ATOM     17  C   UNL     1      21.669  13.477  27.564  0.00  0.00    +0.005 A 
ATOM     18  C   UNL     1      21.582  14.820  28.132  0.00  0.00    -0.033 A 
ATOM     28  C   UNL     1      20.580  15.102  29.146  0.00  0.00    +0.005 A 
ATOM     29  C   UNL     1      19.689  14.104  29.598  0.00  0.00    +0.013 A 
BRANCH  18  19
ATOM     19  C   UNL     1      22.525  15.966  27.718  0.00  0.00    +0.119 C 
BRANCH  19  20
ATOM     20  N   UNL     1      22.941  16.025  26.285  0.00  0.00    -0.302 NA
ATOM     21  C   UNL     1      24.293  16.723  26.108  0.00  0.00    +0.066 C 
ATOM     22  C   UNL     1      24.723  16.756  24.605  0.00  0.00    -0.064 C 
ATOM     23  N   UNL     1      23.640  17.456  23.782  0.00  0.00    +0.379 N 
ATOM     24  C   UNL     1      24.069  17.540  22.378  0.00  0.00    -0.096 C 
ATOM     25  H   UNL     1      23.542  18.497  24.169  0.00  0.00    -0.082 HD
ATOM     26  C   UNL     1      22.292  16.771  23.955  0.00  0.00    -0.064 C 
ATOM     27  C   UNL     1      21.888  16.717  25.455  0.00  0.00    +0.066 C 
ENDBRANCH  19  20
ENDBRANCH  18  19
ENDBRANCH  14  15
ENDBRANCH  12  13
TORSDOF 6
ENDMDL
MODEL 2
REMARK VINA RESULT:      -7.4     17.815     23.848
REMARK  Name = C:\Users\Docking\Desktop\test protocol\1iep_ligandH.pdb
REMARK  8 active torsions:
REMARK  status: ('A' for Active; 'I' for Inactive)
REMARK    1  A    between atoms: _5  and  _11
REMARK    2  A    between atoms: _19  and  _21
REMARK    3  A    between atoms: _22  and  _66
REMARK    4  A    between atoms: _27  and  _30
REMARK    5  A    between atoms: _32  and  _33
REMARK    6  A    between atoms: _38  and  _43
REMARK    7  A    between atoms: _43  and  _46
REMARK    8  A    between atoms: _53  and  _55
REMARK                            x       y       z     vdW  Elec       q    Type
REMARK                         _______ _______ _______ _____ _____    ______ ____
ROOT
ATOM     10  C   UNL     1       0.490   2.275  18.435  0.00  0.00    +0.038 A 
ATOM     11  C   UNL     1       0.058   2.447  19.775  0.00  0.00    +0.047 A 
ATOM     12  C   UNL     1      -1.339   2.704  20.089  0.00  0.00    +0.035 A 
ATOM     32  C   UNL     1      -2.270   2.778  19.012  0.00  0.00    +0.024 A 
ATOM     33  C   UNL     1      -1.849   2.608  17.644  0.00  0.00    +0.007 A 
ATOM     34  C   UNL     1      -0.472   2.356  17.329  0.00  0.00    -0.029 A 
ATOM     35  C   UNL     1      -0.075   2.187  15.843  0.00  0.00    +0.045 C 
ENDROOT
BRANCH  10   9
ATOM      4  C   UNL     1       4.968   3.759  17.553  0.00  0.00    +0.077 A 
ATOM      5  C   UNL     1       4.574   5.138  17.550  0.00  0.00    +0.048 A 
ATOM      6  C   UNL     1       3.208   5.423  17.773  0.00  0.00    +0.116 A 
ATOM      7  N   UNL     1       2.312   4.397  17.982  0.00  0.00    -0.223 NA
ATOM      8  C   UNL     1       2.725   3.077  17.976  0.00  0.00    +0.220 A 
ATOM      9  N   UNL     1       1.843   2.030  18.191  0.00  0.00    -0.283 N 
ATOM     36  H   UNL     1       2.186   1.070  18.172  0.00  0.00    +0.155 HD
ATOM     37  N   UNL     1       4.024   2.779  17.764  0.00  0.00    -0.214 NA
BRANCH   4   3
ATOM      1  C   UNL     1       8.428   1.988  17.998  0.00  0.00    +0.020 A 
ATOM      2  C   UNL     1       7.068   2.404  18.255  0.00  0.00    +0.013 A 
ATOM      3  C   UNL     1       6.376   3.298  17.335  0.00  0.00    +0.019 A 
ATOM     38  C   UNL     1       7.094   3.756  16.155  0.00  0.00    +0.120 A 
ATOM     39  N   UNL     1       8.403   3.341  15.934  0.00  0.00    -0.263 NA
ATOM     40  C   UNL     1       9.080   2.482  16.814  0.00  0.00    +0.111 A 
ENDBRANCH   4   3
ENDBRANCH  10   9
BRANCH  12  13
ATOM     13  N   UNL     1      -1.834   2.895  21.429  0.00  0.00    -0.281 N 
ATOM     14  C   UNL     1      -2.024   4.089  22.105  0.00  0.00    +0.248 C 
ATOM     30  O   UNL     1      -1.594   5.171  21.733  0.00  0.00    -0.270 OA
ATOM     31  H   UNL     1      -2.073   2.047  21.943  0.00  0.00    +0.155 HD
BRANCH  14  15
ATOM     15  C   UNL     1      -2.792   4.079  23.388  0.00  0.00    +0.037 A 
ATOM     16  C   UNL     1      -3.074   5.319  24.115  0.00  0.00    +0.013 A 
ATOM     17  C   UNL     1      -3.802   5.279  25.358  0.00  0.00    +0.005 A 
ATOM     18  C   UNL     1      -4.254   3.992  25.882  0.00  0.00    -0.033 A 
ATOM     28  C   UNL     1      -3.965   2.778  25.138  0.00  0.00    +0.005 A 
ATOM     29  C   UNL     1      -3.251   2.813  23.919  0.00  0.00    +0.013 A 
BRANCH  18  19
ATOM     19  C   UNL     1      -5.019   3.853  27.212  0.00  0.00    +0.119 C 
BRANCH  19  20
ATOM     20  N   UNL     1      -5.751   2.573  27.449  0.00  0.00    -0.302 NA
ATOM     21  C   UNL     1      -7.197   2.638  26.950  0.00  0.00    +0.066 C 
ATOM     22  C   UNL     1      -7.941   1.283  27.186  0.00  0.00    -0.064 C 
ATOM     23  N   UNL     1      -7.896   0.931  28.674  0.00  0.00    +0.379 N 
ATOM     24  C   UNL     1      -8.645  -0.312  28.907  0.00  0.00    -0.096 C 
ATOM     25  H   UNL     1      -8.414   1.747  29.230  0.00  0.00    -0.082 HD
ATOM     26  C   UNL     1      -6.462   0.868  29.178  0.00  0.00    -0.064 C 
ATOM     27  C   UNL     1      -5.722   2.209  28.913  0.00  0.00    +0.066 C 
ENDBRANCH  19  20
ENDBRANCH  18  19
ENDBRANCH  14  15
ENDBRANCH  12  13
TORSDOF 6
ENDMDL
MODEL 3
REMARK VINA RESULT:      -7.4     37.111     42.064
REMARK  Name = C:\Users\Docking\Desktop\test protocol\1iep_ligandH.pdb
REMARK  8 active torsions:
REMARK  status: ('A' for Active; 'I' for Inactive)
REMARK    1  A    between atoms: _5  and  _11
REMARK    2  A    between atoms: _19  and  _21
REMARK    3  A    between atoms: _22  and  _66
REMARK    4  A    between atoms: _27  and  _30
REMARK    5  A    between atoms: _32  and  _33
REMARK    6  A    between atoms: _38  and  _43
REMARK    7  A    between atoms: _43  and  _46
REMARK    8  A    between atoms: _53  and  _55
REMARK                            x       y       z     vdW  Elec       q    Type
REMARK                         _______ _______ _______ _____ _____    ______ ____
ROOT
ATOM     10  C   UNL     1      -2.049 -25.051  37.926  0.00  0.00    +0.038 A 
ATOM     11  C   UNL     1      -0.823 -24.378  38.166  0.00  0.00    +0.047 A 
ATOM     12  C   UNL     1      -0.753 -23.241  39.070  0.00  0.00    +0.035 A 
ATOM     32  C   UNL     1      -1.951 -22.817  39.717  0.00  0.00    +0.024 A 
ATOM     33  C   UNL     1      -3.205 -23.489  39.484  0.00  0.00    +0.007 A 
ATOM     34  C   UNL     1      -3.281 -24.610  38.591  0.00  0.00    -0.029 A 
ATOM     35  C   UNL     1      -4.654 -25.288  38.374  0.00  0.00    +0.045 C 
ENDROOT
BRANCH  10   9
ATOM      4  C   UNL     1      -1.370 -29.698  36.934  0.00  0.00    +0.077 A 
ATOM      5  C   UNL     1      -0.934 -29.980  38.271  0.00  0.00    +0.048 A 
ATOM      6  C   UNL     1      -0.892 -28.901  39.182  0.00  0.00    +0.116 A 
ATOM      7  N   UNL     1      -1.261 -27.637  38.775  0.00  0.00    -0.223 NA
ATOM      8  C   UNL     1      -1.675 -27.398  37.477  0.00  0.00    +0.220 A 
ATOM      9  N   UNL     1      -2.058 -26.137  37.048  0.00  0.00    -0.283 N 
ATOM     36  H   UNL     1      -2.351 -26.000  36.081  0.00  0.00    +0.155 HD
ATOM     37  N   UNL     1      -1.723 -28.412  36.588  0.00  0.00    -0.214 NA
BRANCH   4   3
ATOM      1  C   UNL     1      -0.477 -32.181  34.046  0.00  0.00    +0.020 A 
ATOM      2  C   UNL     1      -0.325 -31.177  35.074  0.00  0.00    +0.013 A 
ATOM      3  C   UNL     1      -1.472 -30.733  35.858  0.00  0.00    +0.019 A 
ATOM     38  C   UNL     1      -2.768 -31.331  35.574  0.00  0.00    +0.120 A 
ATOM     39  N   UNL     1      -2.884 -32.295  34.577  0.00  0.00    -0.263 NA
ATOM     40  C   UNL     1      -1.788 -32.728  33.816  0.00  0.00    +0.111 A 
ENDBRANCH   4   3
ENDBRANCH  10   9
BRANCH  12  13
ATOM     13  N   UNL     1       0.461 -22.513  39.346  0.00  0.00    -0.281 N 
ATOM     14  C   UNL     1       1.326 -22.676  40.415  0.00  0.00    +0.248 C 
ATOM     30  O   UNL     1       1.074 -23.330  41.416  0.00  0.00    -0.270 OA
ATOM     31  H   UNL     1       0.712 -21.791  38.671  0.00  0.00    +0.155 HD
BRANCH  14  15
ATOM     15  C   UNL     1       2.660 -22.001  40.373  0.00  0.00    +0.037 A 
ATOM     16  C   UNL     1       3.891 -22.734  40.679  0.00  0.00    +0.013 A 
ATOM     17  C   UNL     1       5.163 -22.055  40.648  0.00  0.00    +0.005 A 
ATOM     18  C   UNL     1       5.209 -20.635  40.308  0.00  0.00    -0.033 A 
ATOM     28  C   UNL     1       3.972 -19.934  40.004  0.00  0.00    +0.005 A 
ATOM     29  C   UNL     1       2.724 -20.596  40.035  0.00  0.00    +0.013 A 
BRANCH  18  19
ATOM     19  C   UNL     1       6.518 -19.825  40.271  0.00  0.00    +0.119 C 
BRANCH  19  20
ATOM     20  N   UNL     1       7.554 -20.153  41.296  0.00  0.00    -0.302 NA
ATOM     21  C   UNL     1       7.666 -19.065  42.368  0.00  0.00    +0.066 C 
ATOM     22  C   UNL     1       8.738 -19.435  43.444  0.00  0.00    -0.064 C 
ATOM     23  N   UNL     1      10.087 -19.662  42.760  0.00  0.00    +0.379 N 
ATOM     24  C   UNL     1      11.109 -19.953  43.776  0.00  0.00    -0.096 C 
ATOM     25  H   UNL     1      10.373 -18.711  42.254  0.00  0.00    -0.082 HD
ATOM     26  C   UNL     1       9.983 -20.741  41.691  0.00  0.00    -0.064 C 
ATOM     27  C   UNL     1       8.895 -20.378  40.643  0.00  0.00    +0.066 C 
ENDBRANCH  19  20
ENDBRANCH  18  19
ENDBRANCH  14  15
ENDBRANCH  12  13
TORSDOF 6
ENDMDL
MODEL 4
REMARK VINA RESULT:      -7.3     31.455     34.834
REMARK  Name = C:\Users\Docking\Desktop\test protocol\1iep_ligandH.pdb
REMARK  8 active torsions:
REMARK  status: ('A' for Active; 'I' for Inactive)
REMARK    1  A    between atoms: _5  and  _11
REMARK    2  A    between atoms: _19  and  _21
REMARK    3  A    between atoms: _22  and  _66
REMARK    4  A    between atoms: _27  and  _30
REMARK    5  A    between atoms: _32  and  _33
REMARK    6  A    between atoms: _38  and  _43
REMARK    7  A    between atoms: _43  and  _46
REMARK    8  A    between atoms: _53  and  _55
REMARK                            x       y       z     vdW  Elec       q    Type
REMARK                         _______ _______ _______ _____ _____    ______ ____
ROOT
ATOM     10  C   UNL     1      19.683 -12.872  13.032  0.00  0.00    +0.038 A 
ATOM     11  C   UNL     1      18.803 -13.969  12.846  0.00  0.00    +0.047 A 
ATOM     12  C   UNL     1      17.562 -14.074  13.596  0.00  0.00    +0.035 A 
ATOM     32  C   UNL     1      17.246 -13.041  14.527  0.00  0.00    +0.024 A 
ATOM     33  C   UNL     1      18.129 -11.920  14.729  0.00  0.00    +0.007 A 
ATOM     34  C   UNL     1      19.357 -11.813  13.994  0.00  0.00    -0.029 A 
ATOM     35  C   UNL     1      20.269 -10.592  14.256  0.00  0.00    +0.045 C 
ENDROOT
BRANCH  10   9
ATOM      4  C   UNL     1      22.183 -11.552   9.153  0.00  0.00    +0.077 A 
ATOM      5  C   UNL     1      21.037 -10.932   8.553  0.00  0.00    +0.048 A 
ATOM      6  C   UNL     1      19.822 -10.981   9.272  0.00  0.00    +0.116 A 
ATOM      7  N   UNL     1      19.768 -11.606  10.499  0.00  0.00    -0.223 NA
ATOM      8  C   UNL     1      20.891 -12.196  11.048  0.00  0.00    +0.220 A 
ATOM      9  N   UNL     1      20.862 -12.823  12.284  0.00  0.00    -0.283 N 
ATOM     36  H   UNL     1      21.710 -13.252  12.652  0.00  0.00    +0.155 HD
ATOM     37  N   UNL     1      22.064 -12.164  10.381  0.00  0.00    -0.214 NA
BRANCH   4   3
ATOM      1  C   UNL     1      25.884 -12.482   8.295  0.00  0.00    +0.020 A 
ATOM      2  C   UNL     1      24.592 -12.495   8.941  0.00  0.00    +0.013 A 
ATOM      3  C   UNL     1      23.539 -11.581   8.519  0.00  0.00    +0.019 A 
ATOM     38  C   UNL     1      23.827 -10.659   7.430  0.00  0.00    +0.120 A 
ATOM     39  N   UNL     1      25.081 -10.669   6.827  0.00  0.00    -0.263 NA
ATOM     40  C   UNL     1      26.103 -11.543   7.227  0.00  0.00    +0.111 A 
ENDBRANCH   4   3
ENDBRANCH  10   9
BRANCH  12  13
ATOM     13  N   UNL     1      16.633 -15.168  13.456  0.00  0.00    -0.281 N 
ATOM     14  C   UNL     1      15.924 -15.543  12.327  0.00  0.00    +0.248 C 
ATOM     30  O   UNL     1      15.819 -14.861  11.318  0.00  0.00    -0.270 OA
ATOM     31  H   UNL     1      16.480 -15.734  14.290  0.00  0.00    +0.155 HD
BRANCH  14  15
ATOM     15  C   UNL     1      15.218 -16.861  12.322  0.00  0.00    +0.037 A 
ATOM     16  C   UNL     1      13.823 -16.977  12.755  0.00  0.00    +0.013 A 
ATOM     17  C   UNL     1      13.171 -18.263  12.757  0.00  0.00    +0.005 A 
ATOM     18  C   UNL     1      13.914 -19.443  12.323  0.00  0.00    -0.033 A 
ATOM     28  C   UNL     1      15.295 -19.298  11.893  0.00  0.00    +0.005 A 
ATOM     29  C   UNL     1      15.938 -18.040  11.891  0.00  0.00    +0.013 A 
BRANCH  18  19
ATOM     19  C   UNL     1      13.305 -20.858  12.312  0.00  0.00    +0.119 C 
BRANCH  19  20
ATOM     20  N   UNL     1      13.178 -21.557  13.626  0.00  0.00    -0.302 NA
ATOM     21  C   UNL     1      13.781 -22.964  13.589  0.00  0.00    +0.066 C 
ATOM     22  C   UNL     1      13.659 -23.672  14.977  0.00  0.00    -0.064 C 
ATOM     23  N   UNL     1      12.188 -23.725  15.392  0.00  0.00    +0.379 N 
ATOM     24  C   UNL     1      12.064 -24.441  16.670  0.00  0.00    -0.096 C 
ATOM     25  H   UNL     1      11.640 -24.312  14.620  0.00  0.00    -0.082 HD
ATOM     26  C   UNL     1      11.579 -22.330  15.429  0.00  0.00    -0.064 C 
ATOM     27  C   UNL     1      11.732 -21.624  14.053  0.00  0.00    +0.066 C 
ENDBRANCH  19  20
ENDBRANCH  18  19
ENDBRANCH  14  15
ENDBRANCH  12  13
TORSDOF 6
ENDMDL
MODEL 5
REMARK VINA RESULT:      -7.2     31.948     34.246
REMARK  Name = C:\Users\Docking\Desktop\test protocol\1iep_ligandH.pdb
REMARK  8 active torsions:
REMARK  status: ('A' for Active; 'I' for Inactive)
REMARK    1  A    between atoms: _5  and  _11
REMARK    2  A    between atoms: _19  and  _21
REMARK    3  A    between atoms: _22  and  _66
REMARK    4  A    between atoms: _27  and  _30
REMARK    5  A    between atoms: _32  and  _33
REMARK    6  A    between atoms: _38  and  _43
REMARK    7  A    between atoms: _43  and  _46
REMARK    8  A    between atoms: _53  and  _55
REMARK                            x       y       z     vdW  Elec       q    Type
REMARK                         _______ _______ _______ _____ _____    ______ ____
ROOT
ATOM     10  C   UNL     1      12.615 -19.703  12.315  0.00  0.00    +0.038 A 
ATOM     11  C   UNL     1      13.502 -18.791  12.940  0.00  0.00    +0.047 A 
ATOM     12  C   UNL     1      13.981 -17.608  12.241  0.00  0.00    +0.035 A 
ATOM     32  C   UNL     1      13.532 -17.384  10.907  0.00  0.00    +0.024 A 
ATOM     33  C   UNL     1      12.631 -18.301  10.256  0.00  0.00    +0.007 A 
ATOM     34  C   UNL     1      12.157 -19.471  10.939  0.00  0.00    -0.029 A 
ATOM     35  C   UNL     1      11.197 -20.424  10.190  0.00  0.00    +0.045 C 
ENDROOT
BRANCH  10   9
ATOM      4  C   UNL     1      13.417 -23.940  14.422  0.00  0.00    +0.077 A 
ATOM      5  C   UNL     1      14.799 -23.936  14.039  0.00  0.00    +0.048 A 
ATOM      6  C   UNL     1      15.262 -22.829  13.293  0.00  0.00    +0.116 A 
ATOM      7  N   UNL     1      14.399 -21.807  12.963  0.00  0.00    -0.223 NA
ATOM      8  C   UNL     1      13.071 -21.843  13.347  0.00  0.00    +0.220 A 
ATOM      9  N   UNL     1      12.187 -20.823  13.032  0.00  0.00    -0.283 N 
ATOM     36  H   UNL     1      11.213 -20.890  13.328  0.00  0.00    +0.155 HD
ATOM     37  N   UNL     1      12.604 -22.890  14.058  0.00  0.00    -0.214 NA
BRANCH   4   3
ATOM      1  C   UNL     1      11.645 -25.937  17.281  0.00  0.00    +0.020 A 
ATOM      2  C   UNL     1      12.252 -24.843  16.559  0.00  0.00    +0.013 A 
ATOM      3  C   UNL     1      12.779 -25.039  15.215  0.00  0.00    +0.019 A 
ATOM     38  C   UNL     1      12.675 -26.365  14.624  0.00  0.00    +0.120 A 
ATOM     39  N   UNL     1      12.086 -27.400  15.344  0.00  0.00    -0.263 NA
ATOM     40  C   UNL     1      11.577 -27.224  16.639  0.00  0.00    +0.111 A 
ENDBRANCH   4   3
ENDBRANCH  10   9
BRANCH  12  13
ATOM     13  N   UNL     1      14.890 -16.651  12.822  0.00  0.00    -0.281 N 
ATOM     14  C   UNL     1      16.217 -16.430  12.495  0.00  0.00    +0.248 C 
ATOM     30  O   UNL     1      16.889 -17.173  11.795  0.00  0.00    -0.270 OA
ATOM     31  H   UNL     1      14.507 -16.065  13.564  0.00  0.00    +0.155 HD
BRANCH  14  15
ATOM     15  C   UNL     1      16.902 -15.216  13.034  0.00  0.00    +0.037 A 
ATOM     16  C   UNL     1      16.145 -14.143  13.684  0.00  0.00    +0.013 A 
ATOM     17  C   UNL     1      16.828 -12.974  14.181  0.00  0.00    +0.005 A 
ATOM     18  C   UNL     1      18.277 -12.874  14.031  0.00  0.00    -0.033 A 
ATOM     28  C   UNL     1      19.004 -13.956  13.387  0.00  0.00    +0.005 A 
ATOM     29  C   UNL     1      18.338 -15.102  12.898  0.00  0.00    +0.013 A 
BRANCH  18  19
ATOM     19  C   UNL     1      19.086 -11.655  14.512  0.00  0.00    +0.119 C 
BRANCH  19  20
ATOM     20  N   UNL     1      18.336 -10.570  15.213  0.00  0.00    -0.302 NA
ATOM     21  C   UNL     1      18.123  -9.347  14.317  0.00  0.00    +0.066 C 
ATOM     22  C   UNL     1      17.318  -8.231  15.059  0.00  0.00    -0.064 C 
ATOM     23  N   UNL     1      18.054  -7.842  16.343  0.00  0.00    +0.379 N 
ATOM     24  C   UNL     1      17.328  -6.753  17.013  0.00  0.00    -0.096 C 
ATOM     25  H   UNL     1      19.057  -7.452  16.052  0.00  0.00    -0.082 HD
ATOM     26  C   UNL     1      18.271  -9.054  17.238  0.00  0.00    -0.064 C 
ATOM     27  C   UNL     1      19.047 -10.168  16.481  0.00  0.00    +0.066 C 
ENDBRANCH  19  20
ENDBRANCH  18  19
ENDBRANCH  14  15
ENDBRANCH  12  13
TORSDOF 6
ENDMDL
