MODEL 1
REMARK VINA RESULT:      -8.1      0.000      0.000
REMARK  Name = C:\Users\Docking\Desktop\test protocol\1iep_ligandH.pdb
REMARK  8 active torsions:
REMARK  status: ('A' for Active; 'I' for Inactive)
REMARK    1  A    between atoms: _5  and  _11
REMARK    2  A    between atoms: _19  and  _21
REMARK    3  A    between atoms: _22  and  _66
REMARK    4  A    between atoms: _27  and  _30
REMARK    5  A    between atoms: _32  and  _33
REMARK    6  A    between atoms: _38  and  _43
REMARK    7  A    between atoms: _43  and  _46
REMARK    8  A    between atoms: _53  and  _55
REMARK                            x       y       z     vdW  Elec       q    Type
REMARK                         _______ _______ _______ _____ _____    ______ ____
ROOT
ATOM     10  C   UNL     1      24.997  16.386  47.704  0.00  0.00    +0.038 A 
ATOM     11  C   UNL     1      24.806  16.650  46.323  0.00  0.00    +0.047 A 
ATOM     12  C   UNL     1      25.905  16.535  45.377  0.00  0.00    +0.035 A 
ATOM     32  C   UNL     1      27.184  16.146  45.871  0.00  0.00    +0.024 A 
ATOM     33  C   UNL     1      27.396  15.875  47.271  0.00  0.00    +0.007 A 
ATOM     34  C   UNL     1      26.316  15.989  48.210  0.00  0.00    -0.029 A 
ATOM     35  C   UNL     1      26.602  15.693  49.700  0.00  0.00    +0.045 C 
ENDROOT
BRANCH  10   9
ATOM      4  C   UNL     1      22.081  18.990  50.488  0.00  0.00    +0.077 A 
ATOM      5  C   UNL     1      22.806  20.199  50.219  0.00  0.00    +0.048 A 
ATOM      6  C   UNL     1      23.928  20.106  49.365  0.00  0.00    +0.116 A 
ATOM      7  N   UNL     1      24.288  18.890  48.825  0.00  0.00    -0.223 NA
ATOM      8  C   UNL     1      23.567  17.743  49.106  0.00  0.00    +0.220 A 
ATOM      9  N   UNL     1      23.907  16.512  48.568  0.00  0.00    -0.283 N 
ATOM     36  H   UNL     1      23.354  15.688  48.806  0.00  0.00    +0.155 HD
ATOM     37  N   UNL     1      22.493  17.806  49.920  0.00  0.00    -0.214 NA
BRANCH   4   3
ATOM      1  C   UNL     1      19.753  18.721  53.620  0.00  0.00    +0.020 A 
ATOM      2  C   UNL     1      20.952  18.776  52.815  0.00  0.00    +0.013 A 
ATOM      3  C   UNL     1      20.871  18.927  51.368  0.00  0.00    +0.019 A 
ATOM     38  C   UNL     1      19.552  19.022  50.761  0.00  0.00    +0.120 A 
ATOM     39  N   UNL     1      18.415  18.965  51.561  0.00  0.00    -0.263 NA
ATOM     40  C   UNL     1      18.480  18.817  52.955  0.00  0.00    +0.111 A 
ENDBRANCH   4   3
ENDBRANCH  10   9
BRANCH  12  13
ATOM     13  N   UNL     1      25.774  16.798  43.965  0.00  0.00    -0.281 N 
ATOM     14  C   UNL     1      26.274  17.873  43.249  0.00  0.00    +0.248 C 
ATOM     30  O   UNL     1      26.732  18.888  43.755  0.00  0.00    -0.270 OA
ATOM     31  H   UNL     1      25.248  16.108  43.429  0.00  0.00    +0.155 HD
BRANCH  14  15
ATOM     15  C   UNL     1      26.249  17.821  41.756  0.00  0.00    +0.037 A 
ATOM     16  C   UNL     1      27.274  17.091  41.004  0.00  0.00    +0.013 A 
ATOM     17  C   UNL     1      27.236  17.070  39.563  0.00  0.00    +0.005 A 
ATOM     18  C   UNL     1      26.168  17.781  38.864  0.00  0.00    -0.033 A 
ATOM     28  C   UNL     1      25.162  18.492  39.635  0.00  0.00    +0.005 A 
ATOM     29  C   UNL     1      25.196  18.516  41.047  0.00  0.00    +0.013 A 
BRANCH  18  19
ATOM     19  C   UNL     1      26.062  17.830  37.329  0.00  0.00    +0.119 C 
BRANCH  19  20
ATOM     20  N   UNL     1      26.236  19.161  36.673  0.00  0.00    -0.302 NA
ATOM     21  C   UNL     1      25.204  19.396  35.567  0.00  0.00    +0.066 C 
ATOM     22  C   UNL     1      25.387  20.802  34.908  0.00  0.00    -0.064 C 
ATOM     23  N   UNL     1      26.809  20.922  34.356  0.00  0.00    +0.379 N 
ATOM     24  C   UNL     1      26.966  22.221  33.685  0.00  0.00    -0.096 C 
ATOM     25  H   UNL     1      26.942  20.125  33.588  0.00  0.00    -0.082 HD
ATOM     26  C   UNL     1      27.842  20.687  35.449  0.00  0.00    -0.064 C 
ATOM     27  C   UNL     1      27.633  19.300  36.118  0.00  0.00    +0.066 C 
ENDBRANCH  19  20
ENDBRANCH  18  19
ENDBRANCH  14  15
ENDBRANCH  12  13
TORSDOF 6
ENDMDL
MODEL 2
REMARK VINA RESULT:      -7.5      6.813     12.066
REMARK  Name = C:\Users\Docking\Desktop\test protocol\1iep_ligandH.pdb
REMARK  8 active torsions:
REMARK  status: ('A' for Active; 'I' for Inactive)
REMARK    1  A    between atoms: _5  and  _11
REMARK    2  A    between atoms: _19  and  _21
REMARK    3  A    between atoms: _22  and  _66
REMARK    4  A    between atoms: _27  and  _30
REMARK    5  A    between atoms: _32  and  _33
REMARK    6  A    between atoms: _38  and  _43
REMARK    7  A    between atoms: _43  and  _46
REMARK    8  A    between atoms: _53  and  _55
REMARK                            x       y       z     vdW  Elec       q    Type
REMARK                         _______ _______ _______ _____ _____    ______ ____
ROOT
ATOM     10  C   UNL     1      27.239  20.740  36.231  0.00  0.00    +0.038 A 
ATOM     11  C   UNL     1      26.354  20.820  35.125  0.00  0.00    +0.047 A 
ATOM     12  C   UNL     1      26.368  21.968  34.232  0.00  0.00    +0.035 A 
ATOM     32  C   UNL     1      27.299  23.015  34.492  0.00  0.00    +0.024 A 
ATOM     33  C   UNL     1      28.205  22.951  35.611  0.00  0.00    +0.007 A 
ATOM     34  C   UNL     1      28.194  21.823  36.498  0.00  0.00    -0.029 A 
ATOM     35  C   UNL     1      29.183  21.811  37.686  0.00  0.00    +0.045 C 
ENDROOT
BRANCH  10   9
ATOM      4  C   UNL     1      25.524  18.360  40.030  0.00  0.00    +0.077 A 
ATOM      5  C   UNL     1      24.690  19.461  40.417  0.00  0.00    +0.048 A 
ATOM      6  C   UNL     1      24.737  20.624  39.616  0.00  0.00    +0.116 A 
ATOM      7  N   UNL     1      25.560  20.672  38.512  0.00  0.00    -0.223 NA
ATOM      8  C   UNL     1      26.353  19.593  38.167  0.00  0.00    +0.220 A 
ATOM      9  N   UNL     1      27.183  19.616  37.057  0.00  0.00    -0.283 N 
ATOM     36  H   UNL     1      27.758  18.802  36.840  0.00  0.00    +0.155 HD
ATOM     37  N   UNL     1      26.328  18.471  38.917  0.00  0.00    -0.214 NA
BRANCH   4   3
ATOM      1  C   UNL     1      25.095  14.599  41.013  0.00  0.00    +0.020 A 
ATOM      2  C   UNL     1      25.011  15.826  40.255  0.00  0.00    +0.013 A 
ATOM      3  C   UNL     1      25.583  17.062  40.773  0.00  0.00    +0.019 A 
ATOM     38  C   UNL     1      26.240  17.022  42.071  0.00  0.00    +0.120 A 
ATOM     39  N   UNL     1      26.305  15.826  42.778  0.00  0.00    -0.263 NA
ATOM     40  C   UNL     1      25.756  14.630  42.291  0.00  0.00    +0.111 A 
ENDBRANCH   4   3
ENDBRANCH  10   9
BRANCH  12  13
ATOM     13  N   UNL     1      25.488  22.107  33.098  0.00  0.00    -0.281 N 
ATOM     14  C   UNL     1      24.129  22.377  33.103  0.00  0.00    +0.248 C 
ATOM     30  O   UNL     1      23.418  22.328  34.096  0.00  0.00    -0.270 OA
ATOM     31  H   UNL     1      25.919  21.994  32.181  0.00  0.00    +0.155 HD
BRANCH  14  15
ATOM     15  C   UNL     1      23.460  22.740  31.817  0.00  0.00    +0.037 A 
ATOM     16  C   UNL     1      23.246  21.744  30.764  0.00  0.00    +0.013 A 
ATOM     17  C   UNL     1      22.614  22.125  29.526  0.00  0.00    +0.005 A 
ATOM     18  C   UNL     1      22.189  23.510  29.335  0.00  0.00    -0.033 A 
ATOM     28  C   UNL     1      22.409  24.477  30.398  0.00  0.00    +0.005 A 
ATOM     29  C   UNL     1      23.030  24.107  31.612  0.00  0.00    +0.013 A 
BRANCH  18  19
ATOM     19  C   UNL     1      21.526  24.010  28.038  0.00  0.00    +0.119 C 
BRANCH  19  20
ATOM     20  N   UNL     1      20.685  23.036  27.280  0.00  0.00    -0.302 NA
ATOM     21  C   UNL     1      20.521  23.439  25.812  0.00  0.00    +0.066 C 
ATOM     22  C   UNL     1      19.658  22.397  25.029  0.00  0.00    -0.064 C 
ATOM     23  N   UNL     1      18.294  22.256  25.708  0.00  0.00    +0.379 N 
ATOM     24  C   UNL     1      17.459  21.320  24.940  0.00  0.00    -0.096 C 
ATOM     25  H   UNL     1      17.798  23.254  25.679  0.00  0.00    -0.082 HD
ATOM     26  C   UNL     1      18.448  21.858  27.169  0.00  0.00    -0.064 C 
ATOM     27  C   UNL     1      19.332  22.885  27.931  0.00  0.00    +0.066 C 
ENDBRANCH  19  20
ENDBRANCH  18  19
ENDBRANCH  14  15
ENDBRANCH  12  13
TORSDOF 6
ENDMDL
MODEL 3
REMARK VINA RESULT:      -7.5     48.435     50.143
REMARK  Name = C:\Users\Docking\Desktop\test protocol\1iep_ligandH.pdb
REMARK  8 active torsions:
REMARK  status: ('A' for Active; 'I' for Inactive)
REMARK    1  A    between atoms: _5  and  _11
REMARK    2  A    between atoms: _19  and  _21
REMARK    3  A    between atoms: _22  and  _66
REMARK    4  A    between atoms: _27  and  _30
REMARK    5  A    between atoms: _32  and  _33
REMARK    6  A    between atoms: _38  and  _43
REMARK    7  A    between atoms: _43  and  _46
REMARK    8  A    between atoms: _53  and  _55
REMARK                            x       y       z     vdW  Elec       q    Type
REMARK                         _______ _______ _______ _____ _____    ______ ____
ROOT
ATOM     10  C   UNL     1      -2.056 -25.059  37.953  0.00  0.00    +0.038 A 
ATOM     11  C   UNL     1      -0.858 -24.338  38.190  0.00  0.00    +0.047 A 
ATOM     12  C   UNL     1      -0.824 -23.220  39.120  0.00  0.00    +0.035 A 
ATOM     32  C   UNL     1      -2.029 -22.865  39.794  0.00  0.00    +0.024 A 
ATOM     33  C   UNL     1      -3.256 -23.587  39.565  0.00  0.00    +0.007 A 
ATOM     34  C   UNL     1      -3.296 -24.689  38.647  0.00  0.00    -0.029 A 
ATOM     35  C   UNL     1      -4.641 -25.423  38.436  0.00  0.00    +0.045 C 
ENDROOT
BRANCH  10   9
ATOM      4  C   UNL     1      -1.323 -29.678  36.874  0.00  0.00    +0.077 A 
ATOM      5  C   UNL     1      -0.930 -29.991  38.218  0.00  0.00    +0.048 A 
ATOM      6  C   UNL     1      -0.922 -28.933  39.155  0.00  0.00    +0.116 A 
ATOM      7  N   UNL     1      -1.284 -27.662  38.766  0.00  0.00    -0.223 NA
ATOM      8  C   UNL     1      -1.657 -27.394  37.461  0.00  0.00    +0.220 A 
ATOM      9  N   UNL     1      -2.032 -26.124  37.050  0.00  0.00    -0.283 N 
ATOM     36  H   UNL     1      -2.293 -25.966  36.077  0.00  0.00    +0.155 HD
ATOM     37  N   UNL     1      -1.670 -28.387  36.547  0.00  0.00    -0.214 NA
BRANCH   4   3
ATOM      1  C   UNL     1      -0.317 -32.131  33.998  0.00  0.00    +0.020 A 
ATOM      2  C   UNL     1      -0.203 -31.153  35.055  0.00  0.00    +0.013 A 
ATOM      3  C   UNL     1      -1.384 -30.689  35.771  0.00  0.00    +0.019 A 
ATOM     38  C   UNL     1      -2.676 -31.239  35.390  0.00  0.00    +0.120 A 
ATOM     39  N   UNL     1      -2.756 -32.179  34.367  0.00  0.00    -0.263 NA
ATOM     40  C   UNL     1      -1.625 -32.632  33.670  0.00  0.00    +0.111 A 
ENDBRANCH   4   3
ENDBRANCH  10   9
BRANCH  12  13
ATOM     13  N   UNL     1       0.361 -22.445  39.394  0.00  0.00    -0.281 N 
ATOM     14  C   UNL     1       1.340 -22.694  40.341  0.00  0.00    +0.248 C 
ATOM     30  O   UNL     1       1.236 -23.509  41.246  0.00  0.00    -0.270 OA
ATOM     31  H   UNL     1       0.493 -21.612  38.820  0.00  0.00    +0.155 HD
BRANCH  14  15
ATOM     15  C   UNL     1       2.615 -21.915  40.284  0.00  0.00    +0.037 A 
ATOM     16  C   UNL     1       2.629 -20.511  39.864  0.00  0.00    +0.013 A 
ATOM     17  C   UNL     1       3.874 -19.788  39.801  0.00  0.00    +0.005 A 
ATOM     18  C   UNL     1       5.116 -20.467  40.161  0.00  0.00    -0.033 A 
ATOM     28  C   UNL     1       5.072 -21.858  40.579  0.00  0.00    +0.005 A 
ATOM     29  C   UNL     1       3.854 -22.571  40.641  0.00  0.00    +0.013 A 
BRANCH  18  19
ATOM     19  C   UNL     1       6.493 -19.779  40.103  0.00  0.00    +0.119 C 
BRANCH  19  20
ATOM     20  N   UNL     1       7.475 -20.123  41.174  0.00  0.00    -0.302 NA
ATOM     21  C   UNL     1       7.579 -19.021  42.233  0.00  0.00    +0.066 C 
ATOM     22  C   UNL     1       8.593 -19.407  43.358  0.00  0.00    -0.064 C 
ATOM     23  N   UNL     1       9.961 -19.689  42.733  0.00  0.00    +0.379 N 
ATOM     24  C   UNL     1      10.931 -19.995  43.794  0.00  0.00    -0.096 C 
ATOM     25  H   UNL     1      10.299 -18.756  42.225  0.00  0.00    -0.082 HD
ATOM     26  C   UNL     1       9.866 -20.781  41.677  0.00  0.00    -0.064 C 
ATOM     27  C   UNL     1       8.833 -20.401  40.580  0.00  0.00    +0.066 C 
ENDBRANCH  19  20
ENDBRANCH  18  19
ENDBRANCH  14  15
ENDBRANCH  12  13
TORSDOF 6
ENDMDL
MODEL 4
REMARK VINA RESULT:      -7.3     35.619     39.686
REMARK  Name = C:\Users\Docking\Desktop\test protocol\1iep_ligandH.pdb
REMARK  8 active torsions:
REMARK  status: ('A' for Active; 'I' for Inactive)
REMARK    1  A    between atoms: _5  and  _11
REMARK    2  A    between atoms: _19  and  _21
REMARK    3  A    between atoms: _22  and  _66
REMARK    4  A    between atoms: _27  and  _30
REMARK    5  A    between atoms: _32  and  _33
REMARK    6  A    between atoms: _38  and  _43
REMARK    7  A    between atoms: _43  and  _46
REMARK    8  A    between atoms: _53  and  _55
REMARK                            x       y       z     vdW  Elec       q    Type
REMARK                         _______ _______ _______ _____ _____    ______ ____
ROOT
ATOM     10  C   UNL     1       0.412   2.372  18.488  0.00  0.00    +0.038 A 
ATOM     11  C   UNL     1      -0.017   2.477  19.836  0.00  0.00    +0.047 A 
ATOM     12  C   UNL     1      -1.418   2.684  20.166  0.00  0.00    +0.035 A 
ATOM     32  C   UNL     1      -2.357   2.777  19.097  0.00  0.00    +0.024 A 
ATOM     33  C   UNL     1      -1.939   2.674  17.722  0.00  0.00    +0.007 A 
ATOM     34  C   UNL     1      -0.557   2.472  17.390  0.00  0.00    -0.029 A 
ATOM     35  C   UNL     1      -0.165   2.375  15.897  0.00  0.00    +0.045 C 
ENDROOT
BRANCH  10   9
ATOM      4  C   UNL     1       4.831   4.010  17.578  0.00  0.00    +0.077 A 
ATOM      5  C   UNL     1       4.392   5.376  17.594  0.00  0.00    +0.048 A 
ATOM      6  C   UNL     1       3.020   5.614  17.833  0.00  0.00    +0.116 A 
ATOM      7  N   UNL     1       2.160   4.557  18.039  0.00  0.00    -0.223 NA
ATOM      8  C   UNL     1       2.615   3.252  18.016  0.00  0.00    +0.220 A 
ATOM      9  N   UNL     1       1.770   2.174  18.229  0.00  0.00    -0.283 N 
ATOM     36  H   UNL     1       2.143   1.226  18.196  0.00  0.00    +0.155 HD
ATOM     37  N   UNL     1       3.921   2.998  17.788  0.00  0.00    -0.214 NA
BRANCH   4   3
ATOM      1  C   UNL     1       8.265   2.152  17.805  0.00  0.00    +0.020 A 
ATOM      2  C   UNL     1       6.891   2.511  18.071  0.00  0.00    +0.013 A 
ATOM      3  C   UNL     1       6.250   3.597  17.342  0.00  0.00    +0.019 A 
ATOM     38  C   UNL     1       7.033   4.306  16.340  0.00  0.00    +0.120 A 
ATOM     39  N   UNL     1       8.355   3.939  16.106  0.00  0.00    -0.263 NA
ATOM     40  C   UNL     1       8.983   2.896  16.804  0.00  0.00    +0.111 A 
ENDBRANCH   4   3
ENDBRANCH  10   9
BRANCH  12  13
ATOM     13  N   UNL     1      -1.911   2.807  21.515  0.00  0.00    -0.281 N 
ATOM     14  C   UNL     1      -2.209   3.967  22.211  0.00  0.00    +0.248 C 
ATOM     30  O   UNL     1      -1.893   5.090  21.850  0.00  0.00    -0.270 OA
ATOM     31  H   UNL     1      -2.059   1.932  22.019  0.00  0.00    +0.155 HD
BRANCH  14  15
ATOM     15  C   UNL     1      -2.954   3.863  23.503  0.00  0.00    +0.037 A 
ATOM     16  C   UNL     1      -2.629   4.729  24.639  0.00  0.00    +0.013 A 
ATOM     17  C   UNL     1      -3.352   4.596  25.879  0.00  0.00    +0.005 A 
ATOM     18  C   UNL     1      -4.409   3.593  25.989  0.00  0.00    -0.033 A 
ATOM     28  C   UNL     1      -4.714   2.751  24.844  0.00  0.00    +0.005 A 
ATOM     29  C   UNL     1      -4.007   2.877  23.628  0.00  0.00    +0.013 A 
BRANCH  18  19
ATOM     19  C   UNL     1      -5.217   3.367  27.280  0.00  0.00    +0.119 C 
BRANCH  19  20
ATOM     20  N   UNL     1      -6.074   2.146  27.346  0.00  0.00    -0.302 NA
ATOM     21  C   UNL     1      -7.554   2.470  27.125  0.00  0.00    +0.066 C 
ATOM     22  C   UNL     1      -8.433   1.178  27.174  0.00  0.00    -0.064 C 
ATOM     23  N   UNL     1      -8.227   0.476  28.517  0.00  0.00    +0.379 N 
ATOM     24  C   UNL     1      -9.096  -0.708  28.590  0.00  0.00    -0.096 C 
ATOM     25  H   UNL     1      -8.547   1.180  29.320  0.00  0.00    -0.082 HD
ATOM     26  C   UNL     1      -6.758   0.152  28.747  0.00  0.00    -0.064 C 
ATOM     27  C   UNL     1      -5.889   1.439  28.666  0.00  0.00    +0.066 C 
ENDBRANCH  19  20
ENDBRANCH  18  19
ENDBRANCH  14  15
ENDBRANCH  12  13
TORSDOF 6
ENDMDL
MODEL 5
REMARK VINA RESULT:      -7.3      9.440     14.079
REMARK  Name = C:\Users\Docking\Desktop\test protocol\1iep_ligandH.pdb
REMARK  8 active torsions:
REMARK  status: ('A' for Active; 'I' for Inactive)
REMARK    1  A    between atoms: _5  and  _11
REMARK    2  A    between atoms: _19  and  _21
REMARK    3  A    between atoms: _22  and  _66
REMARK    4  A    between atoms: _27  and  _30
REMARK    5  A    between atoms: _32  and  _33
REMARK    6  A    between atoms: _38  and  _43
REMARK    7  A    between atoms: _43  and  _46
REMARK    8  A    between atoms: _53  and  _55
REMARK                            x       y       z     vdW  Elec       q    Type
REMARK                         _______ _______ _______ _____ _____    ______ ____
ROOT
ATOM     10  C   UNL     1      14.312  24.259  43.778  0.00  0.00    +0.038 A 
ATOM     11  C   UNL     1      15.053  23.449  44.677  0.00  0.00    +0.047 A 
ATOM     12  C   UNL     1      16.499  23.334  44.569  0.00  0.00    +0.035 A 
ATOM     32  C   UNL     1      17.159  24.061  43.535  0.00  0.00    +0.024 A 
ATOM     33  C   UNL     1      16.421  24.888  42.613  0.00  0.00    +0.007 A 
ATOM     34  C   UNL     1      14.994  25.003  42.713  0.00  0.00    -0.029 A 
ATOM     35  C   UNL     1      14.254  25.899  41.693  0.00  0.00    +0.045 C 
ENDROOT
BRANCH  10   9
ATOM      4  C   UNL     1      10.354  26.247  45.628  0.00  0.00    +0.077 A 
ATOM      5  C   UNL     1      11.114  27.202  46.381  0.00  0.00    +0.048 A 
ATOM      6  C   UNL     1      12.522  27.144  46.270  0.00  0.00    +0.116 A 
ATOM      7  N   UNL     1      13.114  26.197  45.463  0.00  0.00    -0.223 NA
ATOM      8  C   UNL     1      12.351  25.289  44.752  0.00  0.00    +0.220 A 
ATOM      9  N   UNL     1      12.925  24.333  43.928  0.00  0.00    -0.283 N 
ATOM     36  H   UNL     1      12.328  23.676  43.426  0.00  0.00    +0.155 HD
ATOM     37  N   UNL     1      11.005  25.323  44.842  0.00  0.00    -0.214 NA
BRANCH   4   3
ATOM      1  C   UNL     1       6.673  25.003  46.082  0.00  0.00    +0.020 A 
ATOM      2  C   UNL     1       8.118  25.013  46.092  0.00  0.00    +0.013 A 
ATOM      3  C   UNL     1       8.858  26.183  45.638  0.00  0.00    +0.019 A 
ATOM     38  C   UNL     1       8.100  27.337  45.177  0.00  0.00    +0.120 A 
ATOM     39  N   UNL     1       6.710  27.298  45.178  0.00  0.00    -0.263 NA
ATOM     40  C   UNL     1       5.986  26.177  45.610  0.00  0.00    +0.111 A 
ENDBRANCH   4   3
ENDBRANCH  10   9
BRANCH  12  13
ATOM     13  N   UNL     1      17.303  22.521  45.447  0.00  0.00    -0.281 N 
ATOM     14  C   UNL     1      18.327  22.929  46.285  0.00  0.00    +0.248 C 
ATOM     30  O   UNL     1      18.853  24.032  46.249  0.00  0.00    -0.270 OA
ATOM     31  H   UNL     1      17.092  21.523  45.451  0.00  0.00    +0.155 HD
BRANCH  14  15
ATOM     15  C   UNL     1      18.854  21.969  47.302  0.00  0.00    +0.037 A 
ATOM     16  C   UNL     1      19.534  22.440  48.512  0.00  0.00    +0.013 A 
ATOM     17  C   UNL     1      20.048  21.492  49.468  0.00  0.00    +0.005 A 
ATOM     18  C   UNL     1      19.882  20.062  49.220  0.00  0.00    -0.033 A 
ATOM     28  C   UNL     1      19.198  19.622  48.014  0.00  0.00    +0.005 A 
ATOM     29  C   UNL     1      18.695  20.549  47.074  0.00  0.00    +0.013 A 
BRANCH  18  19
ATOM     19  C   UNL     1      20.416  18.979  50.175  0.00  0.00    +0.119 C 
BRANCH  19  20
ATOM     20  N   UNL     1      21.886  18.713  50.153  0.00  0.00    -0.302 NA
ATOM     21  C   UNL     1      22.262  17.655  49.112  0.00  0.00    +0.066 C 
ATOM     22  C   UNL     1      23.806  17.406  49.086  0.00  0.00    -0.064 C 
ATOM     23  N   UNL     1      24.274  16.984  50.480  0.00  0.00    +0.379 N 
ATOM     24  C   UNL     1      25.714  16.692  50.446  0.00  0.00    -0.096 C 
ATOM     25  H   UNL     1      23.743  16.039  50.743  0.00  0.00    -0.082 HD
ATOM     26  C   UNL     1      23.901  18.028  51.522  0.00  0.00    -0.064 C 
ATOM     27  C   UNL     1      22.369  18.291  51.519  0.00  0.00    +0.066 C 
ENDBRANCH  19  20
ENDBRANCH  18  19
ENDBRANCH  14  15
ENDBRANCH  12  13
TORSDOF 6
ENDMDL
