MODEL 1
REMARK VINA RESULT:      -8.0      0.000      0.000
REMARK  Name = C:\Users\Docking\Desktop\test protocol\1iep_ligandH.pdb
REMARK  8 active torsions:
REMARK  status: ('A' for Active; 'I' for Inactive)
REMARK    1  A    between atoms: _5  and  _11
REMARK    2  A    between atoms: _19  and  _21
REMARK    3  A    between atoms: _22  and  _66
REMARK    4  A    between atoms: _27  and  _30
REMARK    5  A    between atoms: _32  and  _33
REMARK    6  A    between atoms: _38  and  _43
REMARK    7  A    between atoms: _43  and  _46
REMARK    8  A    between atoms: _53  and  _55
REMARK                            x       y       z     vdW  Elec       q    Type
REMARK                         _______ _______ _______ _____ _____    ______ ____
ROOT
ATOM     10  C   UNL     1      14.264  10.257  29.794  0.00  0.00    +0.038 A 
ATOM     11  C   UNL     1      15.371  11.083  29.474  0.00  0.00    +0.047 A 
ATOM     12  C   UNL     1      16.497  11.218  30.385  0.00  0.00    +0.035 A 
ATOM     32  C   UNL     1      16.463  10.495  31.613  0.00  0.00    +0.024 A 
ATOM     33  C   UNL     1      15.345   9.652  31.955  0.00  0.00    +0.007 A 
ATOM     34  C   UNL     1      14.230   9.516  31.061  0.00  0.00    -0.029 A 
ATOM     35  C   UNL     1      13.055   8.603  31.482  0.00  0.00    +0.045 C 
ENDROOT
BRANCH  10   9
ATOM      4  C   UNL     1      10.143  11.841  27.911  0.00  0.00    +0.077 A 
ATOM      5  C   UNL     1      10.069  12.932  28.840  0.00  0.00    +0.048 A 
ATOM      6  C   UNL     1      11.108  13.046  29.791  0.00  0.00    +0.116 A 
ATOM      7  N   UNL     1      12.139  12.131  29.802  0.00  0.00    -0.223 NA
ATOM      8  C   UNL     1      12.179  11.090  28.894  0.00  0.00    +0.220 A 
ATOM      9  N   UNL     1      13.210  10.163  28.882  0.00  0.00    -0.283 N 
ATOM     36  H   UNL     1      13.199   9.405  28.200  0.00  0.00    +0.155 HD
ATOM     37  N   UNL     1      11.198  10.959  27.976  0.00  0.00    -0.214 NA
BRANCH   4   3
ATOM      1  C   UNL     1       8.361  10.536  24.683  0.00  0.00    +0.020 A 
ATOM      2  C   UNL     1       9.381  10.747  25.684  0.00  0.00    +0.013 A 
ATOM      3  C   UNL     1       9.123  11.589  26.845  0.00  0.00    +0.019 A 
ATOM     38  C   UNL     1       7.811  12.207  26.964  0.00  0.00    +0.120 A 
ATOM     39  N   UNL     1       6.848  11.987  25.984  0.00  0.00    -0.263 NA
ATOM     40  C   UNL     1       7.087  11.180  24.861  0.00  0.00    +0.111 A 
ENDBRANCH   4   3
ENDBRANCH  10   9
BRANCH  12  13
ATOM     13  N   UNL     1      17.645  12.049  30.118  0.00  0.00    -0.281 N 
ATOM     14  C   UNL     1      18.745  11.753  29.330  0.00  0.00    +0.248 C 
ATOM     30  O   UNL     1      19.010  10.639  28.903  0.00  0.00    -0.270 OA
ATOM     31  H   UNL     1      17.647  12.966  30.565  0.00  0.00    +0.155 HD
BRANCH  14  15
ATOM     15  C   UNL     1      19.695  12.851  28.976  0.00  0.00    +0.037 A 
ATOM     16  C   UNL     1      19.553  14.193  29.546  0.00  0.00    +0.013 A 
ATOM     17  C   UNL     1      20.473  15.238  29.174  0.00  0.00    +0.005 A 
ATOM     18  C   UNL     1      21.547  14.944  28.228  0.00  0.00    -0.033 A 
ATOM     28  C   UNL     1      21.668  13.602  27.682  0.00  0.00    +0.005 A 
ATOM     29  C   UNL     1      20.767  12.576  28.043  0.00  0.00    +0.013 A 
BRANCH  18  19
ATOM     19  C   UNL     1      22.562  16.003  27.759  0.00  0.00    +0.119 C 
BRANCH  19  20
ATOM     20  N   UNL     1      22.946  15.990  26.315  0.00  0.00    -0.302 NA
ATOM     21  C   UNL     1      24.266  16.725  26.066  0.00  0.00    +0.066 C 
ATOM     22  C   UNL     1      24.664  16.682  24.554  0.00  0.00    -0.064 C 
ATOM     23  N   UNL     1      23.538  17.291  23.716  0.00  0.00    +0.379 N 
ATOM     24  C   UNL     1      23.934  17.306  22.300  0.00  0.00    -0.096 C 
ATOM     25  H   UNL     1      23.409  18.349  24.042  0.00  0.00    -0.082 HD
ATOM     26  C   UNL     1      22.221  16.569  23.961  0.00  0.00    -0.064 C 
ATOM     27  C   UNL     1      21.850  16.591  25.470  0.00  0.00    +0.066 C 
ENDBRANCH  19  20
ENDBRANCH  18  19
ENDBRANCH  14  15
ENDBRANCH  12  13
TORSDOF 6
ENDMDL
MODEL 2
REMARK VINA RESULT:      -7.4     37.063     42.025
REMARK  Name = C:\Users\Docking\Desktop\test protocol\1iep_ligandH.pdb
REMARK  8 active torsions:
REMARK  status: ('A' for Active; 'I' for Inactive)
REMARK    1  A    between atoms: _5  and  _11
REMARK    2  A    between atoms: _19  and  _21
REMARK    3  A    between atoms: _22  and  _66
REMARK    4  A    between atoms: _27  and  _30
REMARK    5  A    between atoms: _32  and  _33
REMARK    6  A    between atoms: _38  and  _43
REMARK    7  A    between atoms: _43  and  _46
REMARK    8  A    between atoms: _53  and  _55
REMARK                            x       y       z     vdW  Elec       q    Type
REMARK                         _______ _______ _______ _____ _____    ______ ____
ROOT
ATOM     10  C   UNL     1      -2.016 -24.946  37.957  0.00  0.00    +0.038 A 
ATOM     11  C   UNL     1      -0.790 -24.275  38.197  0.00  0.00    +0.047 A 
ATOM     12  C   UNL     1      -0.719 -23.142  39.106  0.00  0.00    +0.035 A 
ATOM     32  C   UNL     1      -1.915 -22.721  39.756  0.00  0.00    +0.024 A 
ATOM     33  C   UNL     1      -3.170 -23.391  39.523  0.00  0.00    +0.007 A 
ATOM     34  C   UNL     1      -3.247 -24.508  38.625  0.00  0.00    -0.029 A 
ATOM     35  C   UNL     1      -4.621 -25.185  38.408  0.00  0.00    +0.045 C 
ENDROOT
BRANCH  10   9
ATOM      4  C   UNL     1      -1.349 -29.591  36.945  0.00  0.00    +0.077 A 
ATOM      5  C   UNL     1      -0.915 -29.880  38.281  0.00  0.00    +0.048 A 
ATOM      6  C   UNL     1      -0.871 -28.805  39.197  0.00  0.00    +0.116 A 
ATOM      7  N   UNL     1      -1.236 -27.538  38.795  0.00  0.00    -0.223 NA
ATOM      8  C   UNL     1      -1.648 -27.293  37.498  0.00  0.00    +0.220 A 
ATOM      9  N   UNL     1      -2.028 -26.029  37.074  0.00  0.00    -0.283 N 
ATOM     36  H   UNL     1      -2.318 -25.887  36.107  0.00  0.00    +0.155 HD
ATOM     37  N   UNL     1      -1.697 -28.303  36.604  0.00  0.00    -0.214 NA
BRANCH   4   3
ATOM      1  C   UNL     1      -2.762 -32.206  34.402  0.00  0.00    +0.020 A 
ATOM      2  C   UNL     1      -2.718 -31.214  35.452  0.00  0.00    +0.013 A 
ATOM      3  C   UNL     1      -1.451 -30.622  35.864  0.00  0.00    +0.019 A 
ATOM     38  C   UNL     1      -0.239 -31.057  35.188  0.00  0.00    +0.120 A 
ATOM     39  N   UNL     1      -0.312 -32.015  34.181  0.00  0.00    -0.263 NA
ATOM     40  C   UNL     1      -1.525 -32.594  33.777  0.00  0.00    +0.111 A 
ENDBRANCH   4   3
ENDBRANCH  10   9
BRANCH  12  13
ATOM     13  N   UNL     1       0.496 -22.416  39.383  0.00  0.00    -0.281 N 
ATOM     14  C   UNL     1       1.407 -22.638  40.402  0.00  0.00    +0.248 C 
ATOM     30  O   UNL     1       1.205 -23.364  41.364  0.00  0.00    -0.270 OA
ATOM     31  H   UNL     1       0.710 -21.645  38.750  0.00  0.00    +0.155 HD
BRANCH  14  15
ATOM     15  C   UNL     1       2.729 -21.941  40.354  0.00  0.00    +0.037 A 
ATOM     16  C   UNL     1       2.824 -20.514  40.033  0.00  0.00    +0.013 A 
ATOM     17  C   UNL     1       4.113 -19.871  39.977  0.00  0.00    +0.005 A 
ATOM     18  C   UNL     1       5.317 -20.654  40.243  0.00  0.00    -0.033 A 
ATOM     28  C   UNL     1       5.193 -22.066  40.564  0.00  0.00    +0.005 A 
ATOM     29  C   UNL     1       3.932 -22.701  40.619  0.00  0.00    +0.013 A 
BRANCH  18  19
ATOM     19  C   UNL     1       6.734 -20.054  40.184  0.00  0.00    +0.119 C 
BRANCH  19  20
ATOM     20  N   UNL     1       7.612 -20.254  41.376  0.00  0.00    -0.302 NA
ATOM     21  C   UNL     1       7.497 -19.099  42.374  0.00  0.00    +0.066 C 
ATOM     22  C   UNL     1       8.404 -19.335  43.625  0.00  0.00    -0.064 C 
ATOM     23  N   UNL     1       9.854 -19.518  43.173  0.00  0.00    +0.379 N 
ATOM     24  C   UNL     1      10.718 -19.683  44.352  0.00  0.00    -0.096 C 
ATOM     25  H   UNL     1      10.166 -18.583  42.653  0.00  0.00    -0.082 HD
ATOM     26  C   UNL     1       9.977 -20.663  42.179  0.00  0.00    -0.064 C 
ATOM     27  C   UNL     1       9.049 -20.433  40.953  0.00  0.00    +0.066 C 
ENDBRANCH  19  20
ENDBRANCH  18  19
ENDBRANCH  14  15
ENDBRANCH  12  13
TORSDOF 6
ENDMDL
MODEL 3
REMARK VINA RESULT:      -7.4     17.589     23.720
REMARK  Name = C:\Users\Docking\Desktop\test protocol\1iep_ligandH.pdb
REMARK  8 active torsions:
REMARK  status: ('A' for Active; 'I' for Inactive)
REMARK    1  A    between atoms: _5  and  _11
REMARK    2  A    between atoms: _19  and  _21
REMARK    3  A    between atoms: _22  and  _66
REMARK    4  A    between atoms: _27  and  _30
REMARK    5  A    between atoms: _32  and  _33
REMARK    6  A    between atoms: _38  and  _43
REMARK    7  A    between atoms: _43  and  _46
REMARK    8  A    between atoms: _53  and  _55
REMARK                            x       y       z     vdW  Elec       q    Type
REMARK                         _______ _______ _______ _____ _____    ______ ____
ROOT
ATOM     10  C   UNL     1       0.687   2.325  18.453  0.00  0.00    +0.038 A 
ATOM     11  C   UNL     1       0.239   2.513  19.786  0.00  0.00    +0.047 A 
ATOM     12  C   UNL     1      -1.167   2.745  20.081  0.00  0.00    +0.035 A 
ATOM     32  C   UNL     1      -2.089   2.775  18.995  0.00  0.00    +0.024 A 
ATOM     33  C   UNL     1      -1.651   2.587  17.634  0.00  0.00    +0.007 A 
ATOM     34  C   UNL     1      -0.265   2.360  17.337  0.00  0.00    -0.029 A 
ATOM     35  C   UNL     1       0.149   2.171  15.859  0.00  0.00    +0.045 C 
ENDROOT
BRANCH  10   9
ATOM      4  C   UNL     1       5.132   3.891  17.546  0.00  0.00    +0.077 A 
ATOM      5  C   UNL     1       4.703   5.259  17.492  0.00  0.00    +0.048 A 
ATOM      6  C   UNL     1       3.329   5.516  17.696  0.00  0.00    +0.116 A 
ATOM      7  N   UNL     1       2.458   4.475  17.936  0.00  0.00    -0.223 NA
ATOM      8  C   UNL     1       2.905   3.167  17.980  0.00  0.00    +0.220 A 
ATOM      9  N   UNL     1       2.048   2.106  18.227  0.00  0.00    -0.283 N 
ATOM     36  H   UNL     1       2.415   1.155  18.244  0.00  0.00    +0.155 HD
ATOM     37  N   UNL     1       4.212   2.895  17.787  0.00  0.00    -0.214 NA
BRANCH   4   3
ATOM      1  C   UNL     1       8.551   2.028  17.923  0.00  0.00    +0.020 A 
ATOM      2  C   UNL     1       7.176   2.408  18.148  0.00  0.00    +0.013 A 
ATOM      3  C   UNL     1       6.553   3.459  17.354  0.00  0.00    +0.019 A 
ATOM     38  C   UNL     1       7.356   4.112  16.331  0.00  0.00    +0.120 A 
ATOM     39  N   UNL     1       8.679   3.726  16.137  0.00  0.00    -0.263 NA
ATOM     40  C   UNL     1       9.289   2.716  16.896  0.00  0.00    +0.111 A 
ENDBRANCH   4   3
ENDBRANCH  10   9
BRANCH  12  13
ATOM     13  N   UNL     1      -1.679   2.951  21.413  0.00  0.00    -0.281 N 
ATOM     14  C   UNL     1      -1.954   4.154  22.043  0.00  0.00    +0.248 C 
ATOM     30  O   UNL     1      -1.598   5.247  21.630  0.00  0.00    -0.270 OA
ATOM     31  H   UNL     1      -1.861   2.108  21.958  0.00  0.00    +0.155 HD
BRANCH  14  15
ATOM     15  C   UNL     1      -2.724   4.138  23.324  0.00  0.00    +0.037 A 
ATOM     16  C   UNL     1      -3.051   5.380  24.029  0.00  0.00    +0.013 A 
ATOM     17  C   UNL     1      -3.780   5.336  25.272  0.00  0.00    +0.005 A 
ATOM     18  C   UNL     1      -4.189   4.044  25.817  0.00  0.00    -0.033 A 
ATOM     28  C   UNL     1      -3.856   2.827  25.094  0.00  0.00    +0.005 A 
ATOM     29  C   UNL     1      -3.141   2.867  23.876  0.00  0.00    +0.013 A 
BRANCH  18  19
ATOM     19  C   UNL     1      -4.951   3.900  27.147  0.00  0.00    +0.119 C 
BRANCH  19  20
ATOM     20  N   UNL     1      -5.673   2.615  27.387  0.00  0.00    -0.302 NA
ATOM     21  C   UNL     1      -7.092   2.638  26.813  0.00  0.00    +0.066 C 
ATOM     22  C   UNL     1      -7.825   1.277  27.052  0.00  0.00    -0.064 C 
ATOM     23  N   UNL     1      -7.852   0.973  28.551  0.00  0.00    +0.379 N 
ATOM     24  C   UNL     1      -8.590  -0.276  28.785  0.00  0.00    -0.096 C 
ATOM     25  H   UNL     1      -8.411   1.796  29.053  0.00  0.00    -0.082 HD
ATOM     26  C   UNL     1      -6.444   0.951  29.130  0.00  0.00    -0.064 C 
ATOM     27  C   UNL     1      -5.715   2.297  28.861  0.00  0.00    +0.066 C 
ENDBRANCH  19  20
ENDBRANCH  18  19
ENDBRANCH  14  15
ENDBRANCH  12  13
TORSDOF 6
ENDMDL
MODEL 4
REMARK VINA RESULT:      -7.1     17.624     22.306
REMARK  Name = C:\Users\Docking\Desktop\test protocol\1iep_ligandH.pdb
REMARK  8 active torsions:
REMARK  status: ('A' for Active; 'I' for Inactive)
REMARK    1  A    between atoms: _5  and  _11
REMARK    2  A    between atoms: _19  and  _21
REMARK    3  A    between atoms: _22  and  _66
REMARK    4  A    between atoms: _27  and  _30
REMARK    5  A    between atoms: _32  and  _33
REMARK    6  A    between atoms: _38  and  _43
REMARK    7  A    between atoms: _43  and  _46
REMARK    8  A    between atoms: _53  and  _55
REMARK                            x       y       z     vdW  Elec       q    Type
REMARK                         _______ _______ _______ _____ _____    ______ ____
ROOT
ATOM     10  C   UNL     1      27.333  17.923  42.570  0.00  0.00    +0.038 A 
ATOM     11  C   UNL     1      26.241  18.084  43.461  0.00  0.00    +0.047 A 
ATOM     12  C   UNL     1      26.167  17.332  44.704  0.00  0.00    +0.035 A 
ATOM     32  C   UNL     1      27.224  16.427  45.011  0.00  0.00    +0.024 A 
ATOM     33  C   UNL     1      28.341  16.250  44.116  0.00  0.00    +0.007 A 
ATOM     34  C   UNL     1      28.418  16.987  42.887  0.00  0.00    -0.029 A 
ATOM     35  C   UNL     1      29.636  16.752  41.963  0.00  0.00    +0.045 C 
ENDROOT
BRANCH  10   9
ATOM      4  C   UNL     1      26.364  18.492  37.904  0.00  0.00    +0.077 A 
ATOM      5  C   UNL     1      25.793  17.179  37.802  0.00  0.00    +0.048 A 
ATOM      6  C   UNL     1      25.775  16.387  38.972  0.00  0.00    +0.116 A 
ATOM      7  N   UNL     1      26.291  16.881  40.150  0.00  0.00    -0.223 NA
ATOM      8  C   UNL     1      26.835  18.150  40.214  0.00  0.00    +0.220 A 
ATOM      9  N   UNL     1      27.353  18.670  41.390  0.00  0.00    -0.283 N 
ATOM     36  H   UNL     1      27.753  19.608  41.394  0.00  0.00    +0.155 HD
ATOM     37  N   UNL     1      26.866  18.926  39.110  0.00  0.00    -0.214 NA
BRANCH   4   3
ATOM      1  C   UNL     1      25.551  21.331  35.340  0.00  0.00    +0.020 A 
ATOM      2  C   UNL     1      25.415  20.429  36.460  0.00  0.00    +0.013 A 
ATOM      3  C   UNL     1      26.453  19.449  36.756  0.00  0.00    +0.019 A 
ATOM     38  C   UNL     1      27.624  19.408  35.894  0.00  0.00    +0.120 A 
ATOM     39  N   UNL     1      27.726  20.289  34.821  0.00  0.00    -0.263 NA
ATOM     40  C   UNL     1      26.733  21.235  34.525  0.00  0.00    +0.111 A 
ENDBRANCH   4   3
ENDBRANCH  10   9
BRANCH  12  13
ATOM     13  N   UNL     1      25.079  17.448  45.643  0.00  0.00    -0.281 N 
ATOM     14  C   UNL     1      25.153  17.652  47.012  0.00  0.00    +0.248 C 
ATOM     30  O   UNL     1      26.177  17.552  47.671  0.00  0.00    -0.270 OA
ATOM     31  H   UNL     1      24.140  17.370  45.252  0.00  0.00    +0.155 HD
BRANCH  14  15
ATOM     15  C   UNL     1      23.907  18.004  47.758  0.00  0.00    +0.037 A 
ATOM     16  C   UNL     1      23.240  19.293  47.559  0.00  0.00    +0.013 A 
ATOM     17  C   UNL     1      22.048  19.614  48.304  0.00  0.00    +0.005 A 
ATOM     18  C   UNL     1      21.515  18.641  49.255  0.00  0.00    -0.033 A 
ATOM     28  C   UNL     1      22.193  17.368  49.429  0.00  0.00    +0.005 A 
ATOM     29  C   UNL     1      23.362  17.050  48.701  0.00  0.00    +0.013 A 
BRANCH  18  19
ATOM     19  C   UNL     1      20.261  18.907  50.109  0.00  0.00    +0.119 C 
BRANCH  19  20
ATOM     20  N   UNL     1      20.390  19.890  51.226  0.00  0.00    -0.302 NA
ATOM     21  C   UNL     1      20.003  19.279  52.576  0.00  0.00    +0.066 C 
ATOM     22  C   UNL     1      20.165  20.314  53.736  0.00  0.00    -0.064 C 
ATOM     23  N   UNL     1      19.314  21.549  53.437  0.00  0.00    +0.379 N 
ATOM     24  C   UNL     1      19.419  22.500  54.554  0.00  0.00    -0.096 C 
ATOM     25  H   UNL     1      18.251  21.219  53.372  0.00  0.00    -0.082 HD
ATOM     26  C   UNL     1      19.690  22.161  52.095  0.00  0.00    -0.064 C 
ATOM     27  C   UNL     1      19.554  21.116  50.953  0.00  0.00    +0.066 C 
ENDBRANCH  19  20
ENDBRANCH  18  19
ENDBRANCH  14  15
ENDBRANCH  12  13
TORSDOF 6
ENDMDL
MODEL 5
REMARK VINA RESULT:      -7.1     25.157     28.097
REMARK  Name = C:\Users\Docking\Desktop\test protocol\1iep_ligandH.pdb
REMARK  8 active torsions:
REMARK  status: ('A' for Active; 'I' for Inactive)
REMARK    1  A    between atoms: _5  and  _11
REMARK    2  A    between atoms: _19  and  _21
REMARK    3  A    between atoms: _22  and  _66
REMARK    4  A    between atoms: _27  and  _30
REMARK    5  A    between atoms: _32  and  _33
REMARK    6  A    between atoms: _38  and  _43
REMARK    7  A    between atoms: _43  and  _46
REMARK    8  A    between atoms: _53  and  _55
REMARK                            x       y       z     vdW  Elec       q    Type
REMARK                         _______ _______ _______ _____ _____    ______ ____
ROOT
ATOM     10  C   UNL     1      20.010 -11.404  31.443  0.00  0.00    +0.038 A 
ATOM     11  C   UNL     1      21.301 -11.971  31.288  0.00  0.00    +0.047 A 
ATOM     12  C   UNL     1      21.665 -12.695  30.080  0.00  0.00    +0.035 A 
ATOM     32  C   UNL     1      20.690 -12.819  29.047  0.00  0.00    +0.024 A 
ATOM     33  C   UNL     1      19.373 -12.249  29.188  0.00  0.00    +0.007 A 
ATOM     34  C   UNL     1      19.008 -11.536  30.379  0.00  0.00    -0.029 A 
ATOM     35  C   UNL     1      17.579 -10.952  30.478  0.00  0.00    +0.045 C 
ENDROOT
BRANCH  10   9
ATOM      4  C   UNL     1      18.417 -11.265  35.968  0.00  0.00    +0.077 A 
ATOM      5  C   UNL     1      18.124 -12.669  35.971  0.00  0.00    +0.048 A 
ATOM      6  C   UNL     1      18.392 -13.390  34.785  0.00  0.00    +0.116 A 
ATOM      7  N   UNL     1      18.913 -12.744  33.685  0.00  0.00    -0.223 NA
ATOM      8  C   UNL     1      19.182 -11.388  33.716  0.00  0.00    +0.220 A 
ATOM      9  N   UNL     1      19.715 -10.719  32.624  0.00  0.00    -0.283 N 
ATOM     36  H   UNL     1      19.892  -9.717  32.684  0.00  0.00    +0.155 HD
ATOM     37  N   UNL     1      18.935 -10.677  34.835  0.00  0.00    -0.214 NA
BRANCH   4   3
ATOM      1  C   UNL     1      16.743  -8.888  38.586  0.00  0.00    +0.020 A 
ATOM      2  C   UNL     1      16.907  -9.746  37.434  0.00  0.00    +0.013 A 
ATOM      3  C   UNL     1      18.193 -10.368  37.146  0.00  0.00    +0.019 A 
ATOM     38  C   UNL     1      19.301 -10.101  38.050  0.00  0.00    +0.120 A 
ATOM     39  N   UNL     1      19.114  -9.270  39.150  0.00  0.00    -0.263 NA
ATOM     40  C   UNL     1      17.882  -8.664  39.437  0.00  0.00    +0.111 A 
ENDBRANCH   4   3
ENDBRANCH  10   9
BRANCH  12  13
ATOM     13  N   UNL     1      22.957 -13.299  29.870  0.00  0.00    -0.281 N 
ATOM     14  C   UNL     1      23.540 -14.332  30.585  0.00  0.00    +0.248 C 
ATOM     30  O   UNL     1      23.125 -14.752  31.655  0.00  0.00    -0.270 OA
ATOM     31  H   UNL     1      23.509 -12.919  29.100  0.00  0.00    +0.155 HD
BRANCH  14  15
ATOM     15  C   UNL     1      24.771 -14.983  30.040  0.00  0.00    +0.037 A 
ATOM     16  C   UNL     1      25.554 -15.923  30.847  0.00  0.00    +0.013 A 
ATOM     17  C   UNL     1      26.746 -16.523  30.303  0.00  0.00    +0.005 A 
ATOM     18  C   UNL     1      27.162 -16.186  28.944  0.00  0.00    -0.033 A 
ATOM     28  C   UNL     1      26.363 -15.255  28.164  0.00  0.00    +0.005 A 
ATOM     29  C   UNL     1      25.195 -14.663  28.694  0.00  0.00    +0.013 A 
BRANCH  18  19
ATOM     19  C   UNL     1      28.431 -16.763  28.290  0.00  0.00    +0.119 C 
BRANCH  19  20
ATOM     20  N   UNL     1      29.713 -16.622  29.044  0.00  0.00    -0.302 NA
ATOM     21  C   UNL     1      30.303 -15.215  28.916  0.00  0.00    +0.066 C 
ATOM     22  C   UNL     1      31.631 -15.078  29.729  0.00  0.00    -0.064 C 
ATOM     23  N   UNL     1      32.631 -16.130  29.247  0.00  0.00    +0.379 N 
ATOM     24  C   UNL     1      33.901 -15.967  29.969  0.00  0.00    -0.096 C 
ATOM     25  H   UNL     1      32.829 -15.939  28.166  0.00  0.00    -0.082 HD
ATOM     26  C   UNL     1      32.052 -17.533  29.368  0.00  0.00    -0.064 C 
ATOM     27  C   UNL     1      30.717 -17.649  28.581  0.00  0.00    +0.066 C 
ENDBRANCH  19  20
ENDBRANCH  18  19
ENDBRANCH  14  15
ENDBRANCH  12  13
TORSDOF 6
ENDMDL
