MODEL 1
REMARK VINA RESULT:      -8.2      0.000      0.000
REMARK  Name = C:\Users\Docking\Desktop\test protocol\1iep_ligandH.pdb
REMARK  8 active torsions:
REMARK  status: ('A' for Active; 'I' for Inactive)
REMARK    1  A    between atoms: _5  and  _11
REMARK    2  A    between atoms: _19  and  _21
REMARK    3  A    between atoms: _22  and  _66
REMARK    4  A    between atoms: _27  and  _30
REMARK    5  A    between atoms: _32  and  _33
REMARK    6  A    between atoms: _38  and  _43
REMARK    7  A    between atoms: _43  and  _46
REMARK    8  A    between atoms: _53  and  _55
REMARK                            x       y       z     vdW  Elec       q    Type
REMARK                         _______ _______ _______ _____ _____    ______ ____
ROOT
ATOM     10  C   UNL     1     -14.449 -30.278 -21.911  0.00  0.00    +0.038 A 
ATOM     11  C   UNL     1     -13.240 -29.537 -21.914  0.00  0.00    +0.047 A 
ATOM     12  C   UNL     1     -11.996 -30.124 -21.441  0.00  0.00    +0.035 A 
ATOM     32  C   UNL     1     -12.020 -31.470 -20.973  0.00  0.00    +0.024 A 
ATOM     33  C   UNL     1     -13.240 -32.238 -20.961  0.00  0.00    +0.007 A 
ATOM     34  C   UNL     1     -14.470 -31.663 -21.425  0.00  0.00    -0.029 A 
ATOM     35  C   UNL     1     -15.750 -32.530 -21.384  0.00  0.00    +0.045 C 
ENDROOT
BRANCH  10   9
ATOM      4  C   UNL     1     -18.417 -27.664 -21.236  0.00  0.00    +0.077 A 
ATOM      5  C   UNL     1     -18.162 -27.531 -19.831  0.00  0.00    +0.048 A 
ATOM      6  C   UNL     1     -17.002 -28.156 -19.320  0.00  0.00    +0.116 A 
ATOM      7  N   UNL     1     -16.167 -28.859 -20.161  0.00  0.00    -0.223 NA
ATOM      8  C   UNL     1     -16.444 -28.969 -21.512  0.00  0.00    +0.220 A 
ATOM      9  N   UNL     1     -15.614 -29.665 -22.377  0.00  0.00    -0.283 N 
ATOM     36  H   UNL     1     -15.857 -29.729 -23.366  0.00  0.00    +0.155 HD
ATOM     37  N   UNL     1     -17.546 -28.382 -22.024  0.00  0.00    -0.214 NA
BRANCH   4   3
ATOM      1  C   UNL     1     -20.793 -25.136 -23.044  0.00  0.00    +0.020 A 
ATOM      2  C   UNL     1     -19.626 -25.673 -22.383  0.00  0.00    +0.013 A 
ATOM      3  C   UNL     1     -19.599 -27.057 -21.926  0.00  0.00    +0.019 A 
ATOM     38  C   UNL     1     -20.779 -27.877 -22.155  0.00  0.00    +0.120 A 
ATOM     39  N   UNL     1     -21.889 -27.333 -22.793  0.00  0.00    -0.263 NA
ATOM     40  C   UNL     1     -21.927 -26.002 -23.236  0.00  0.00    +0.111 A 
ENDBRANCH   4   3
ENDBRANCH  10   9
BRANCH  12  13
ATOM     13  N   UNL     1     -10.739 -29.418 -21.413  0.00  0.00    -0.281 N 
ATOM     14  C   UNL     1      -9.805 -29.301 -22.429  0.00  0.00    +0.248 C 
ATOM     30  O   UNL     1      -9.811 -29.968 -23.453  0.00  0.00    -0.270 OA
ATOM     31  H   UNL     1     -10.510 -28.947 -20.537  0.00  0.00    +0.155 HD
BRANCH  14  15
ATOM     15  C   UNL     1      -8.697 -28.309 -22.281  0.00  0.00    +0.037 A 
ATOM     16  C   UNL     1      -8.410 -27.328 -23.330  0.00  0.00    +0.013 A 
ATOM     17  C   UNL     1      -7.324 -26.394 -23.169  0.00  0.00    +0.005 A 
ATOM     18  C   UNL     1      -6.518 -26.436 -21.952  0.00  0.00    -0.033 A 
ATOM     28  C   UNL     1      -6.828 -27.416 -20.924  0.00  0.00    +0.005 A 
ATOM     29  C   UNL     1      -7.891 -28.334 -21.079  0.00  0.00    +0.013 A 
BRANCH  18  19
ATOM     19  C   UNL     1      -5.327 -25.491 -21.704  0.00  0.00    +0.119 C 
BRANCH  19  20
ATOM     20  N   UNL     1      -5.051 -24.452 -22.741  0.00  0.00    -0.302 NA
ATOM     21  C   UNL     1      -3.897 -24.854 -23.664  0.00  0.00    +0.066 C 
ATOM     22  C   UNL     1      -3.637 -23.767 -24.757  0.00  0.00    -0.064 C 
ATOM     23  N   UNL     1      -3.347 -22.427 -24.080  0.00  0.00    +0.379 N 
ATOM     24  C   UNL     1      -3.044 -21.415 -25.103  0.00  0.00    -0.096 C 
ATOM     25  H   UNL     1      -2.434 -22.556 -23.452  0.00  0.00    -0.082 HD
ATOM     26  C   UNL     1      -4.487 -22.021 -23.157  0.00  0.00    -0.064 C 
ATOM     27  C   UNL     1      -4.757 -23.121 -22.094  0.00  0.00    +0.066 C 
ENDBRANCH  19  20
ENDBRANCH  18  19
ENDBRANCH  14  15
ENDBRANCH  12  13
TORSDOF 6
ENDMDL
MODEL 2
REMARK VINA RESULT:      -8.1     30.046     36.348
REMARK  Name = C:\Users\Docking\Desktop\test protocol\1iep_ligandH.pdb
REMARK  8 active torsions:
REMARK  status: ('A' for Active; 'I' for Inactive)
REMARK    1  A    between atoms: _5  and  _11
REMARK    2  A    between atoms: _19  and  _21
REMARK    3  A    between atoms: _22  and  _66
REMARK    4  A    between atoms: _27  and  _30
REMARK    5  A    between atoms: _32  and  _33
REMARK    6  A    between atoms: _38  and  _43
REMARK    7  A    between atoms: _43  and  _46
REMARK    8  A    between atoms: _53  and  _55
REMARK                            x       y       z     vdW  Elec       q    Type
REMARK                         _______ _______ _______ _____ _____    ______ ____
ROOT
ATOM     10  C   UNL     1      12.450 -36.833 -44.910  0.00  0.00    +0.038 A 
ATOM     11  C   UNL     1      11.748 -36.206 -45.971  0.00  0.00    +0.047 A 
ATOM     12  C   UNL     1      12.050 -36.516 -47.360  0.00  0.00    +0.035 A 
ATOM     32  C   UNL     1      13.071 -37.473 -47.632  0.00  0.00    +0.024 A 
ATOM     33  C   UNL     1      13.794 -38.120 -46.565  0.00  0.00    +0.007 A 
ATOM     34  C   UNL     1      13.503 -37.815 -45.194  0.00  0.00    -0.029 A 
ATOM     35  C   UNL     1      14.315 -38.534 -44.091  0.00  0.00    +0.045 C 
ENDROOT
BRANCH  10   9
ATOM      4  C   UNL     1      13.137 -34.307 -40.887  0.00  0.00    +0.077 A 
ATOM      5  C   UNL     1      14.266 -33.618 -41.442  0.00  0.00    +0.048 A 
ATOM      6  C   UNL     1      14.642 -33.948 -42.763  0.00  0.00    +0.116 A 
ATOM      7  N   UNL     1      13.934 -34.897 -43.468  0.00  0.00    -0.223 NA
ATOM      8  C   UNL     1      12.851 -35.544 -42.902  0.00  0.00    +0.220 A 
ATOM      9  N   UNL     1      12.120 -36.497 -43.595  0.00  0.00    -0.283 N 
ATOM     36  H   UNL     1      11.332 -36.957 -43.140  0.00  0.00    +0.155 HD
ATOM     37  N   UNL     1      12.473 -35.249 -41.641  0.00  0.00    -0.214 NA
BRANCH   4   3
ATOM      1  C   UNL     1      11.054 -32.952 -37.865  0.00  0.00    +0.020 A 
ATOM      2  C   UNL     1      11.521 -33.148 -39.219  0.00  0.00    +0.013 A 
ATOM      3  C   UNL     1      12.615 -34.067 -39.504  0.00  0.00    +0.019 A 
ATOM     38  C   UNL     1      13.221 -34.778 -38.388  0.00  0.00    +0.120 A 
ATOM     39  N   UNL     1      12.752 -34.568 -37.095  0.00  0.00    -0.263 NA
ATOM     40  C   UNL     1      11.700 -33.685 -36.809  0.00  0.00    +0.111 A 
ENDBRANCH   4   3
ENDBRANCH  10   9
BRANCH  12  13
ATOM     13  N   UNL     1      11.377 -35.906 -48.479  0.00  0.00    -0.281 N 
ATOM     14  C   UNL     1      11.242 -34.556 -48.758  0.00  0.00    +0.248 C 
ATOM     30  O   UNL     1      11.498 -33.658 -47.970  0.00  0.00    -0.270 OA
ATOM     31  H   UNL     1      10.947 -36.547 -49.147  0.00  0.00    +0.155 HD
BRANCH  14  15
ATOM     15  C   UNL     1      10.735 -34.143 -50.103  0.00  0.00    +0.037 A 
ATOM     16  C   UNL     1      10.727 -32.737 -50.513  0.00  0.00    +0.013 A 
ATOM     17  C   UNL     1      10.217 -32.365 -51.809  0.00  0.00    +0.005 A 
ATOM     18  C   UNL     1       9.712 -33.403 -52.705  0.00  0.00    -0.033 A 
ATOM     28  C   UNL     1       9.737 -34.791 -52.275  0.00  0.00    +0.005 A 
ATOM     29  C   UNL     1      10.235 -35.159 -51.005  0.00  0.00    +0.013 A 
BRANCH  18  19
ATOM     19  C   UNL     1       9.130 -33.095 -54.098  0.00  0.00    +0.119 C 
BRANCH  19  20
ATOM     20  N   UNL     1       7.931 -33.875 -54.525  0.00  0.00    -0.302 NA
ATOM     21  C   UNL     1       8.302 -35.039 -55.449  0.00  0.00    +0.066 C 
ATOM     22  C   UNL     1       7.038 -35.858 -55.869  0.00  0.00    -0.064 C 
ATOM     23  N   UNL     1       6.033 -34.927 -56.548  0.00  0.00    +0.379 N 
ATOM     24  C   UNL     1       4.868 -35.705 -56.995  0.00  0.00    -0.096 C 
ATOM     25  H   UNL     1       6.524 -34.502 -57.454  0.00  0.00    -0.082 HD
ATOM     26  C   UNL     1       5.660 -33.766 -55.637  0.00  0.00    -0.064 C 
ATOM     27  C   UNL     1       6.926 -32.976 -55.202  0.00  0.00    +0.066 C 
ENDBRANCH  19  20
ENDBRANCH  18  19
ENDBRANCH  14  15
ENDBRANCH  12  13
TORSDOF 6
ENDMDL
MODEL 3
REMARK VINA RESULT:      -7.8     30.153     35.453
REMARK  Name = C:\Users\Docking\Desktop\test protocol\1iep_ligandH.pdb
REMARK  8 active torsions:
REMARK  status: ('A' for Active; 'I' for Inactive)
REMARK    1  A    between atoms: _5  and  _11
REMARK    2  A    between atoms: _19  and  _21
REMARK    3  A    between atoms: _22  and  _66
REMARK    4  A    between atoms: _27  and  _30
REMARK    5  A    between atoms: _32  and  _33
REMARK    6  A    between atoms: _38  and  _43
REMARK    7  A    between atoms: _43  and  _46
REMARK    8  A    between atoms: _53  and  _55
REMARK                            x       y       z     vdW  Elec       q    Type
REMARK                         _______ _______ _______ _____ _____    ______ ____
ROOT
ATOM     10  C   UNL     1      13.225 -34.494 -38.342  0.00  0.00    +0.038 A 
ATOM     11  C   UNL     1      13.021 -34.678 -39.733  0.00  0.00    +0.047 A 
ATOM     12  C   UNL     1      11.891 -34.065 -40.415  0.00  0.00    +0.035 A 
ATOM     32  C   UNL     1      10.991 -33.269 -39.649  0.00  0.00    +0.024 A 
ATOM     33  C   UNL     1      11.183 -33.072 -38.234  0.00  0.00    +0.007 A 
ATOM     34  C   UNL     1      12.294 -33.676 -37.555  0.00  0.00    -0.029 A 
ATOM     35  C   UNL     1      12.447 -33.436 -36.035  0.00  0.00    +0.045 C 
ENDROOT
BRANCH  10   9
ATOM      4  C   UNL     1      17.845 -34.560 -37.042  0.00  0.00    +0.077 A 
ATOM      5  C   UNL     1      18.093 -33.280 -37.640  0.00  0.00    +0.048 A 
ATOM      6  C   UNL     1      17.006 -32.640 -38.279  0.00  0.00    +0.116 A 
ATOM      7  N   UNL     1      15.769 -33.246 -38.310  0.00  0.00    -0.223 NA
ATOM      8  C   UNL     1      15.564 -34.482 -37.725  0.00  0.00    +0.220 A 
ATOM      9  N   UNL     1      14.326 -35.105 -37.738  0.00  0.00    -0.283 N 
ATOM     36  H   UNL     1      14.218 -36.021 -37.301  0.00  0.00    +0.155 HD
ATOM     37  N   UNL     1      16.586 -35.113 -37.110  0.00  0.00    -0.214 NA
BRANCH   4   3
ATOM      1  C   UNL     1      21.278 -36.080 -35.942  0.00  0.00    +0.020 A 
ATOM      2  C   UNL     1      20.308 -35.288 -36.663  0.00  0.00    +0.013 A 
ATOM      3  C   UNL     1      18.891 -35.358 -36.328  0.00  0.00    +0.019 A 
ATOM     38  C   UNL     1      18.486 -36.246 -35.249  0.00  0.00    +0.120 A 
ATOM     39  N   UNL     1      19.442 -36.998 -34.573  0.00  0.00    -0.263 NA
ATOM     40  C   UNL     1      20.808 -36.940 -34.888  0.00  0.00    +0.111 A 
ENDBRANCH   4   3
ENDBRANCH  10   9
BRANCH  12  13
ATOM     13  N   UNL     1      11.628 -34.224 -41.824  0.00  0.00    -0.281 N 
ATOM     14  C   UNL     1      12.383 -33.759 -42.889  0.00  0.00    +0.248 C 
ATOM     30  O   UNL     1      13.292 -32.948 -42.790  0.00  0.00    -0.270 OA
ATOM     31  H   UNL     1      10.783 -34.741 -42.065  0.00  0.00    +0.155 HD
BRANCH  14  15
ATOM     15  C   UNL     1      12.073 -34.256 -44.264  0.00  0.00    +0.037 A 
ATOM     16  C   UNL     1      11.136 -35.361 -44.480  0.00  0.00    +0.013 A 
ATOM     17  C   UNL     1      10.868 -35.832 -45.816  0.00  0.00    +0.005 A 
ATOM     18  C   UNL     1      11.539 -35.196 -46.947  0.00  0.00    -0.033 A 
ATOM     28  C   UNL     1      12.461 -34.099 -46.705  0.00  0.00    +0.005 A 
ATOM     29  C   UNL     1      12.726 -33.635 -45.397  0.00  0.00    +0.013 A 
BRANCH  18  19
ATOM     19  C   UNL     1      11.330 -35.647 -48.405  0.00  0.00    +0.119 C 
BRANCH  19  20
ATOM     20  N   UNL     1      12.183 -36.767 -48.903  0.00  0.00    -0.302 NA
ATOM     21  C   UNL     1      11.673 -37.330 -50.232  0.00  0.00    +0.066 C 
ATOM     22  C   UNL     1      12.590 -38.486 -50.750  0.00  0.00    -0.064 C 
ATOM     23  N   UNL     1      12.667 -39.586 -49.690  0.00  0.00    +0.379 N 
ATOM     24  C   UNL     1      13.481 -40.700 -50.198  0.00  0.00    -0.096 C 
ATOM     25  H   UNL     1      11.633 -39.970 -49.526  0.00  0.00    -0.082 HD
ATOM     26  C   UNL     1      13.170 -39.034 -48.364  0.00  0.00    -0.064 C 
ATOM     27  C   UNL     1      12.269 -37.867 -47.873  0.00  0.00    +0.066 C 
ENDBRANCH  19  20
ENDBRANCH  18  19
ENDBRANCH  14  15
ENDBRANCH  12  13
TORSDOF 6
ENDMDL
MODEL 4
REMARK VINA RESULT:      -7.5     30.417     36.623
REMARK  Name = C:\Users\Docking\Desktop\test protocol\1iep_ligandH.pdb
REMARK  8 active torsions:
REMARK  status: ('A' for Active; 'I' for Inactive)
REMARK    1  A    between atoms: _5  and  _11
REMARK    2  A    between atoms: _19  and  _21
REMARK    3  A    between atoms: _22  and  _66
REMARK    4  A    between atoms: _27  and  _30
REMARK    5  A    between atoms: _32  and  _33
REMARK    6  A    between atoms: _38  and  _43
REMARK    7  A    between atoms: _43  and  _46
REMARK    8  A    between atoms: _53  and  _55
REMARK                            x       y       z     vdW  Elec       q    Type
REMARK                         _______ _______ _______ _____ _____    ______ ____
ROOT
ATOM     10  C   UNL     1      12.921 -37.225 -44.689  0.00  0.00    +0.038 A 
ATOM     11  C   UNL     1      12.126 -36.623 -45.697  0.00  0.00    +0.047 A 
ATOM     12  C   UNL     1      12.343 -36.920 -47.104  0.00  0.00    +0.035 A 
ATOM     32  C   UNL     1      13.378 -37.837 -47.450  0.00  0.00    +0.024 A 
ATOM     33  C   UNL     1      14.197 -38.457 -46.438  0.00  0.00    +0.007 A 
ATOM     34  C   UNL     1      13.989 -38.167 -45.048  0.00  0.00    -0.029 A 
ATOM     35  C   UNL     1      14.901 -38.856 -44.007  0.00  0.00    +0.045 C 
ENDROOT
BRANCH  10   9
ATOM      4  C   UNL     1      12.723 -34.101 -41.051  0.00  0.00    +0.077 A 
ATOM      5  C   UNL     1      13.187 -33.022 -41.875  0.00  0.00    +0.048 A 
ATOM      6  C   UNL     1      13.472 -33.314 -43.227  0.00  0.00    +0.116 A 
ATOM      7  N   UNL     1      13.302 -34.594 -43.709  0.00  0.00    -0.223 NA
ATOM      8  C   UNL     1      12.855 -35.612 -42.888  0.00  0.00    +0.220 A 
ATOM      9  N   UNL     1      12.669 -36.905 -43.353  0.00  0.00    -0.283 N 
ATOM     36  H   UNL     1      12.345 -37.629 -42.713  0.00  0.00    +0.155 HD
ATOM     37  N   UNL     1      12.577 -35.359 -41.592  0.00  0.00    -0.214 NA
BRANCH   4   3
ATOM      1  C   UNL     1      11.059 -32.918 -37.714  0.00  0.00    +0.020 A 
ATOM      2  C   UNL     1      11.356 -33.026 -39.124  0.00  0.00    +0.013 A 
ATOM      3  C   UNL     1      12.377 -33.949 -39.602  0.00  0.00    +0.019 A 
ATOM     38  C   UNL     1      13.086 -34.756 -38.620  0.00  0.00    +0.120 A 
ATOM     39  N   UNL     1      12.780 -34.629 -37.268  0.00  0.00    -0.263 NA
ATOM     40  C   UNL     1      11.800 -33.743 -36.796  0.00  0.00    +0.111 A 
ENDBRANCH   4   3
ENDBRANCH  10   9
BRANCH  12  13
ATOM     13  N   UNL     1      11.572 -36.333 -48.172  0.00  0.00    -0.281 N 
ATOM     14  C   UNL     1      11.869 -35.202 -48.915  0.00  0.00    +0.248 C 
ATOM     30  O   UNL     1      12.743 -34.397 -48.629  0.00  0.00    -0.270 OA
ATOM     31  H   UNL     1      10.701 -36.809 -48.409  0.00  0.00    +0.155 HD
BRANCH  14  15
ATOM     15  C   UNL     1      11.070 -34.916 -50.146  0.00  0.00    +0.037 A 
ATOM     16  C   UNL     1      10.391 -33.631 -50.329  0.00  0.00    +0.013 A 
ATOM     17  C   UNL     1       9.613 -33.388 -51.518  0.00  0.00    +0.005 A 
ATOM     18  C   UNL     1       9.512 -34.433 -52.534  0.00  0.00    -0.033 A 
ATOM     28  C   UNL     1      10.200 -35.696 -52.329  0.00  0.00    +0.005 A 
ATOM     29  C   UNL     1      10.962 -35.939 -51.164  0.00  0.00    +0.013 A 
BRANCH  18  19
ATOM     19  C   UNL     1       8.686 -34.268 -53.824  0.00  0.00    +0.119 C 
BRANCH  19  20
ATOM     20  N   UNL     1       9.291 -33.459 -54.924  0.00  0.00    -0.302 NA
ATOM     21  C   UNL     1       8.413 -32.265 -55.309  0.00  0.00    +0.066 C 
ATOM     22  C   UNL     1       9.072 -31.418 -56.446  0.00  0.00    -0.064 C 
ATOM     23  N   UNL     1       9.332 -32.312 -57.659  0.00  0.00    +0.379 N 
ATOM     24  C   UNL     1       9.898 -31.506 -58.751  0.00  0.00    -0.096 C 
ATOM     25  H   UNL     1       8.349 -32.707 -58.005  0.00  0.00    -0.082 HD
ATOM     26  C   UNL     1      10.202 -33.503 -57.285  0.00  0.00    -0.064 C 
ATOM     27  C   UNL     1       9.553 -34.322 -56.134  0.00  0.00    +0.066 C 
ENDBRANCH  19  20
ENDBRANCH  18  19
ENDBRANCH  14  15
ENDBRANCH  12  13
TORSDOF 6
ENDMDL
MODEL 5
REMARK VINA RESULT:      -7.4      1.737      2.527
REMARK  Name = C:\Users\Docking\Desktop\test protocol\1iep_ligandH.pdb
REMARK  8 active torsions:
REMARK  status: ('A' for Active; 'I' for Inactive)
REMARK    1  A    between atoms: _5  and  _11
REMARK    2  A    between atoms: _19  and  _21
REMARK    3  A    between atoms: _22  and  _66
REMARK    4  A    between atoms: _27  and  _30
REMARK    5  A    between atoms: _32  and  _33
REMARK    6  A    between atoms: _38  and  _43
REMARK    7  A    between atoms: _43  and  _46
REMARK    8  A    between atoms: _53  and  _55
REMARK                            x       y       z     vdW  Elec       q    Type
REMARK                         _______ _______ _______ _____ _____    ______ ____
ROOT
ATOM     10  C   UNL     1     -14.463 -30.415 -21.718  0.00  0.00    +0.038 A 
ATOM     11  C   UNL     1     -13.270 -29.649 -21.662  0.00  0.00    +0.047 A 
ATOM     12  C   UNL     1     -12.035 -30.216 -21.144  0.00  0.00    +0.035 A 
ATOM     32  C   UNL     1     -12.049 -31.568 -20.692  0.00  0.00    +0.024 A 
ATOM     33  C   UNL     1     -13.253 -32.361 -20.741  0.00  0.00    +0.007 A 
ATOM     34  C   UNL     1     -14.475 -31.806 -21.249  0.00  0.00    -0.029 A 
ATOM     35  C   UNL     1     -15.736 -32.700 -21.271  0.00  0.00    +0.045 C 
ENDROOT
BRANCH  10   9
ATOM      4  C   UNL     1     -18.441 -27.779 -21.205  0.00  0.00    +0.077 A 
ATOM      5  C   UNL     1     -18.208 -27.593 -19.802  0.00  0.00    +0.048 A 
ATOM      6  C   UNL     1     -17.056 -28.198 -19.249  0.00  0.00    +0.116 A 
ATOM      7  N   UNL     1     -16.208 -28.932 -20.050  0.00  0.00    -0.223 NA
ATOM      8  C   UNL     1     -16.463 -29.093 -21.399  0.00  0.00    +0.220 A 
ATOM      9  N   UNL     1     -15.620 -29.821 -22.225  0.00  0.00    -0.283 N 
ATOM     36  H   UNL     1     -15.847 -29.922 -23.214  0.00  0.00    +0.155 HD
ATOM     37  N   UNL     1     -17.557 -28.527 -21.951  0.00  0.00    -0.214 NA
BRANCH   4   3
ATOM      1  C   UNL     1     -21.893 -27.373 -22.998  0.00  0.00    +0.020 A 
ATOM      2  C   UNL     1     -20.789 -27.981 -22.292  0.00  0.00    +0.013 A 
ATOM      3  C   UNL     1     -19.612 -27.199 -21.935  0.00  0.00    +0.019 A 
ATOM     38  C   UNL     1     -19.584 -25.793 -22.309  0.00  0.00    +0.120 A 
ATOM     39  N   UNL     1     -20.662 -25.235 -22.989  0.00  0.00    -0.263 NA
ATOM     40  C   UNL     1     -21.799 -25.978 -23.339  0.00  0.00    +0.111 A 
ENDBRANCH   4   3
ENDBRANCH  10   9
BRANCH  12  13
ATOM     13  N   UNL     1     -10.796 -29.484 -21.056  0.00  0.00    -0.281 N 
ATOM     14  C   UNL     1      -9.943 -29.126 -22.087  0.00  0.00    +0.248 C 
ATOM     30  O   UNL     1     -10.009 -29.569 -23.224  0.00  0.00    -0.270 OA
ATOM     31  H   UNL     1     -10.513 -29.195 -20.119  0.00  0.00    +0.155 HD
BRANCH  14  15
ATOM     15  C   UNL     1      -8.849 -28.146 -21.812  0.00  0.00    +0.037 A 
ATOM     16  C   UNL     1      -8.368 -27.906 -20.448  0.00  0.00    +0.013 A 
ATOM     17  C   UNL     1      -7.324 -26.942 -20.209  0.00  0.00    +0.005 A 
ATOM     18  C   UNL     1      -6.751 -26.212 -21.337  0.00  0.00    -0.033 A 
ATOM     28  C   UNL     1      -7.243 -26.473 -22.679  0.00  0.00    +0.005 A 
ATOM     29  C   UNL     1      -8.267 -27.416 -22.918  0.00  0.00    +0.013 A 
BRANCH  18  19
ATOM     19  C   UNL     1      -5.648 -25.150 -21.172  0.00  0.00    +0.119 C 
BRANCH  19  20
ATOM     20  N   UNL     1      -4.336 -25.606 -20.622  0.00  0.00    -0.302 NA
ATOM     21  C   UNL     1      -3.785 -24.638 -19.572  0.00  0.00    +0.066 C 
ATOM     22  C   UNL     1      -2.424 -25.142 -18.991  0.00  0.00    -0.064 C 
ATOM     23  N   UNL     1      -1.424 -25.329 -20.133  0.00  0.00    +0.379 N 
ATOM     24  C   UNL     1      -0.125 -25.747 -19.584  0.00  0.00    -0.096 C 
ATOM     25  H   UNL     1      -1.280 -24.337 -20.622  0.00  0.00    -0.082 HD
ATOM     26  C   UNL     1      -1.965 -26.288 -21.184  0.00  0.00    -0.064 C 
ATOM     27  C   UNL     1      -3.332 -25.793 -21.733  0.00  0.00    +0.066 C 
ENDBRANCH  19  20
ENDBRANCH  18  19
ENDBRANCH  14  15
ENDBRANCH  12  13
TORSDOF 6
ENDMDL
