MODEL 1
REMARK VINA RESULT:      -7.9      0.000      0.000
REMARK  Name = C:\Users\Docking\Desktop\test protocol\1iep_ligandH.pdb
REMARK  8 active torsions:
REMARK  status: ('A' for Active; 'I' for Inactive)
REMARK    1  A    between atoms: _5  and  _11
REMARK    2  A    between atoms: _19  and  _21
REMARK    3  A    between atoms: _22  and  _66
REMARK    4  A    between atoms: _27  and  _30
REMARK    5  A    between atoms: _32  and  _33
REMARK    6  A    between atoms: _38  and  _43
REMARK    7  A    between atoms: _43  and  _46
REMARK    8  A    between atoms: _53  and  _55
REMARK                            x       y       z     vdW  Elec       q    Type
REMARK                         _______ _______ _______ _____ _____    ______ ____
ROOT
ATOM     10  C   UNL     1      12.304 -36.617 -44.861  0.00  0.00    +0.038 A 
ATOM     11  C   UNL     1      11.671 -35.895 -45.905  0.00  0.00    +0.047 A 
ATOM     12  C   UNL     1      11.957 -36.185 -47.302  0.00  0.00    +0.035 A 
ATOM     32  C   UNL     1      12.893 -37.218 -47.599  0.00  0.00    +0.024 A 
ATOM     33  C   UNL     1      13.546 -37.961 -46.551  0.00  0.00    +0.007 A 
ATOM     34  C   UNL     1      13.269 -37.679 -45.171  0.00  0.00    -0.029 A 
ATOM     35  C   UNL     1      14.004 -38.503 -44.088  0.00  0.00    +0.045 C 
ENDROOT
BRANCH  10   9
ATOM      4  C   UNL     1      13.081 -34.183 -40.798  0.00  0.00    +0.077 A 
ATOM      5  C   UNL     1      14.223 -33.511 -41.349  0.00  0.00    +0.048 A 
ATOM      6  C   UNL     1      14.581 -33.826 -42.680  0.00  0.00    +0.116 A 
ATOM      7  N   UNL     1      13.845 -34.745 -43.396  0.00  0.00    -0.223 NA
ATOM      8  C   UNL     1      12.751 -35.376 -42.834  0.00  0.00    +0.220 A 
ATOM      9  N   UNL     1      11.992 -36.297 -43.538  0.00  0.00    -0.283 N 
ATOM     36  H   UNL     1      11.196 -36.747 -43.085  0.00  0.00    +0.155 HD
ATOM     37  N   UNL     1      12.389 -35.094 -41.565  0.00  0.00    -0.214 NA
BRANCH   4   3
ATOM      1  C   UNL     1      10.986 -32.915 -37.749  0.00  0.00    +0.020 A 
ATOM      2  C   UNL     1      11.433 -33.101 -39.110  0.00  0.00    +0.013 A 
ATOM      3  C   UNL     1      12.576 -33.955 -39.407  0.00  0.00    +0.019 A 
ATOM     38  C   UNL     1      13.249 -34.612 -38.297  0.00  0.00    +0.120 A 
ATOM     39  N   UNL     1      12.796 -34.413 -36.996  0.00  0.00    -0.263 NA
ATOM     40  C   UNL     1      11.698 -33.592 -36.697  0.00  0.00    +0.111 A 
ENDBRANCH   4   3
ENDBRANCH  10   9
BRANCH  12  13
ATOM     13  N   UNL     1      11.352 -35.480 -48.404  0.00  0.00    -0.281 N 
ATOM     14  C   UNL     1      11.955 -34.597 -49.285  0.00  0.00    +0.248 C 
ATOM     30  O   UNL     1      13.066 -34.113 -49.126  0.00  0.00    -0.270 OA
ATOM     31  H   UNL     1      10.357 -35.652 -48.553  0.00  0.00    +0.155 HD
BRANCH  14  15
ATOM     15  C   UNL     1      11.211 -34.180 -50.512  0.00  0.00    +0.037 A 
ATOM     16  C   UNL     1       9.823 -34.592 -50.736  0.00  0.00    +0.013 A 
ATOM     17  C   UNL     1       9.133 -34.191 -51.937  0.00  0.00    +0.005 A 
ATOM     18  C   UNL     1       9.832 -33.370 -52.923  0.00  0.00    -0.033 A 
ATOM     28  C   UNL     1      11.207 -32.971 -52.673  0.00  0.00    +0.005 A 
ATOM     29  C   UNL     1      11.886 -33.364 -51.498  0.00  0.00    +0.013 A 
BRANCH  18  19
ATOM     19  C   UNL     1       9.182 -32.913 -54.242  0.00  0.00    +0.119 C 
BRANCH  19  20
ATOM     20  N   UNL     1       8.093 -33.769 -54.801  0.00  0.00    -0.302 NA
ATOM     21  C   UNL     1       8.602 -34.695 -55.910  0.00  0.00    +0.066 C 
ATOM     22  C   UNL     1       7.455 -35.599 -56.467  0.00  0.00    -0.064 C 
ATOM     23  N   UNL     1       6.316 -34.716 -56.979  0.00  0.00    +0.379 N 
ATOM     24  C   UNL     1       5.261 -35.562 -57.556  0.00  0.00    -0.096 C 
ATOM     25  H   UNL     1       6.724 -34.078 -57.797  0.00  0.00    -0.082 HD
ATOM     26  C   UNL     1       5.806 -33.791 -55.883  0.00  0.00    -0.064 C 
ATOM     27  C   UNL     1       6.959 -32.918 -55.315  0.00  0.00    +0.066 C 
ENDBRANCH  19  20
ENDBRANCH  18  19
ENDBRANCH  14  15
ENDBRANCH  12  13
TORSDOF 6
ENDMDL
MODEL 2
REMARK VINA RESULT:      -7.8     31.334     34.992
REMARK  Name = C:\Users\Docking\Desktop\test protocol\1iep_ligandH.pdb
REMARK  8 active torsions:
REMARK  status: ('A' for Active; 'I' for Inactive)
REMARK    1  A    between atoms: _5  and  _11
REMARK    2  A    between atoms: _19  and  _21
REMARK    3  A    between atoms: _22  and  _66
REMARK    4  A    between atoms: _27  and  _30
REMARK    5  A    between atoms: _32  and  _33
REMARK    6  A    between atoms: _38  and  _43
REMARK    7  A    between atoms: _43  and  _46
REMARK    8  A    between atoms: _53  and  _55
REMARK                            x       y       z     vdW  Elec       q    Type
REMARK                         _______ _______ _______ _____ _____    ______ ____
ROOT
ATOM     10  C   UNL     1      -2.407  -1.652 -52.619  0.00  0.00    +0.038 A 
ATOM     11  C   UNL     1      -3.037  -2.387 -53.656  0.00  0.00    +0.047 A 
ATOM     12  C   UNL     1      -4.176  -1.844 -54.379  0.00  0.00    +0.035 A 
ATOM     32  C   UNL     1      -4.647  -0.547 -54.021  0.00  0.00    +0.024 A 
ATOM     33  C   UNL     1      -4.020   0.213 -52.969  0.00  0.00    +0.007 A 
ATOM     34  C   UNL     1      -2.897  -0.318 -52.251  0.00  0.00    -0.029 A 
ATOM     35  C   UNL     1      -2.268   0.539 -51.128  0.00  0.00    +0.045 C 
ENDROOT
BRANCH  10   9
ATOM      4  C   UNL     1       2.311  -2.266 -51.990  0.00  0.00    +0.077 A 
ATOM      5  C   UNL     1       2.630  -1.400 -53.088  0.00  0.00    +0.048 A 
ATOM      6  C   UNL     1       1.551  -0.821 -53.793  0.00  0.00    +0.116 A 
ATOM      7  N   UNL     1       0.253  -1.096 -53.419  0.00  0.00    -0.223 NA
ATOM      8  C   UNL     1      -0.020  -1.938 -52.357  0.00  0.00    +0.220 A 
ATOM      9  N   UNL     1      -1.317  -2.222 -51.958  0.00  0.00    -0.283 N 
ATOM     36  H   UNL     1      -1.476  -2.854 -51.174  0.00  0.00    +0.155 HD
ATOM     37  N   UNL     1       0.994  -2.504 -51.668  0.00  0.00    -0.214 NA
BRANCH   4   3
ATOM      1  C   UNL     1       4.308  -3.644 -48.922  0.00  0.00    +0.020 A 
ATOM      2  C   UNL     1       3.287  -2.969 -49.690  0.00  0.00    +0.013 A 
ATOM      3  C   UNL     1       3.342  -2.950 -51.146  0.00  0.00    +0.019 A 
ATOM     38  C   UNL     1       4.450  -3.630 -51.800  0.00  0.00    +0.120 A 
ATOM     39  N   UNL     1       5.419  -4.271 -51.034  0.00  0.00    -0.263 NA
ATOM     40  C   UNL     1       5.378  -4.294 -49.631  0.00  0.00    +0.111 A 
ENDBRANCH   4   3
ENDBRANCH  10   9
BRANCH  12  13
ATOM     13  N   UNL     1      -4.861  -2.547 -55.435  0.00  0.00    -0.281 N 
ATOM     14  C   UNL     1      -4.356  -2.940 -56.664  0.00  0.00    +0.248 C 
ATOM     30  O   UNL     1      -3.293  -2.555 -57.129  0.00  0.00    -0.270 OA
ATOM     31  H   UNL     1      -5.837  -2.785 -55.255  0.00  0.00    +0.155 HD
BRANCH  14  15
ATOM     15  C   UNL     1      -5.153  -3.885 -57.503  0.00  0.00    +0.037 A 
ATOM     16  C   UNL     1      -6.600  -4.024 -57.325  0.00  0.00    +0.013 A 
ATOM     17  C   UNL     1      -7.343  -4.956 -58.137  0.00  0.00    +0.005 A 
ATOM     18  C   UNL     1      -6.638  -5.755 -59.137  0.00  0.00    -0.033 A 
ATOM     28  C   UNL     1      -5.202  -5.593 -59.296  0.00  0.00    +0.005 A 
ATOM     29  C   UNL     1      -4.471  -4.682 -58.501  0.00  0.00    +0.013 A 
BRANCH  18  19
ATOM     19  C   UNL     1      -7.346  -6.789 -60.032  0.00  0.00    +0.119 C 
BRANCH  19  20
ATOM     20  N   UNL     1      -7.296  -8.217 -59.599  0.00  0.00    -0.302 NA
ATOM     21  C   UNL     1      -6.422  -9.068 -60.524  0.00  0.00    +0.066 C 
ATOM     22  C   UNL     1      -6.363 -10.554 -60.043  0.00  0.00    -0.064 C 
ATOM     23  N   UNL     1      -7.782 -11.120 -59.968  0.00  0.00    +0.379 N 
ATOM     24  C   UNL     1      -7.726 -12.535 -59.572  0.00  0.00    -0.096 C 
ATOM     25  H   UNL     1      -8.219 -11.072 -60.992  0.00  0.00    -0.082 HD
ATOM     26  C   UNL     1      -8.659 -10.278 -59.052  0.00  0.00    -0.064 C 
ATOM     27  C   UNL     1      -8.687  -8.797 -59.522  0.00  0.00    +0.066 C 
ENDBRANCH  19  20
ENDBRANCH  18  19
ENDBRANCH  14  15
ENDBRANCH  12  13
TORSDOF 6
ENDMDL
MODEL 3
REMARK VINA RESULT:      -7.7     23.987     25.216
REMARK  Name = C:\Users\Docking\Desktop\test protocol\1iep_ligandH.pdb
REMARK  8 active torsions:
REMARK  status: ('A' for Active; 'I' for Inactive)
REMARK    1  A    between atoms: _5  and  _11
REMARK    2  A    between atoms: _19  and  _21
REMARK    3  A    between atoms: _22  and  _66
REMARK    4  A    between atoms: _27  and  _30
REMARK    5  A    between atoms: _32  and  _33
REMARK    6  A    between atoms: _38  and  _43
REMARK    7  A    between atoms: _43  and  _46
REMARK    8  A    between atoms: _53  and  _55
REMARK                            x       y       z     vdW  Elec       q    Type
REMARK                         _______ _______ _______ _____ _____    ______ ____
ROOT
ATOM     10  C   UNL     1      13.538 -12.625 -44.997  0.00  0.00    +0.038 A 
ATOM     11  C   UNL     1      12.467 -11.967 -45.655  0.00  0.00    +0.047 A 
ATOM     12  C   UNL     1      12.312 -12.041 -47.099  0.00  0.00    +0.035 A 
ATOM     32  C   UNL     1      13.264 -12.797 -47.843  0.00  0.00    +0.024 A 
ATOM     33  C   UNL     1      14.359 -13.471 -47.191  0.00  0.00    +0.007 A 
ATOM     34  C   UNL     1      14.519 -13.400 -45.767  0.00  0.00    -0.029 A 
ATOM     35  C   UNL     1      15.715 -14.137 -45.122  0.00  0.00    +0.045 C 
ENDROOT
BRANCH  10   9
ATOM      4  C   UNL     1      14.696 -10.222 -41.007  0.00  0.00    +0.077 A 
ATOM      5  C   UNL     1      15.164  -9.090 -41.754  0.00  0.00    +0.048 A 
ATOM      6  C   UNL     1      15.096  -9.169 -43.163  0.00  0.00    +0.116 A 
ATOM      7  N   UNL     1      14.595 -10.301 -43.769  0.00  0.00    -0.223 NA
ATOM      8  C   UNL     1      14.154 -11.376 -43.020  0.00  0.00    +0.220 A 
ATOM      9  N   UNL     1      13.639 -12.520 -43.608  0.00  0.00    -0.283 N 
ATOM     36  H   UNL     1      13.331 -13.295 -43.021  0.00  0.00    +0.155 HD
ATOM     37  N   UNL     1      14.210 -11.325 -41.672  0.00  0.00    -0.214 NA
BRANCH   4   3
ATOM      1  C   UNL     1      13.538 -10.405 -37.275  0.00  0.00    +0.020 A 
ATOM      2  C   UNL     1      13.479 -10.341 -38.717  0.00  0.00    +0.013 A 
ATOM      3  C   UNL     1      14.700 -10.289 -39.511  0.00  0.00    +0.019 A 
ATOM     38  C   UNL     1      15.975 -10.304 -38.810  0.00  0.00    +0.120 A 
ATOM     39  N   UNL     1      16.001 -10.364 -37.420  0.00  0.00    -0.263 NA
ATOM     40  C   UNL     1      14.832 -10.414 -36.645  0.00  0.00    +0.111 A 
ENDBRANCH   4   3
ENDBRANCH  10   9
BRANCH  12  13
ATOM     13  N   UNL     1      11.249 -11.387 -47.822  0.00  0.00    -0.281 N 
ATOM     14  C   UNL     1      11.138 -10.043 -48.142  0.00  0.00    +0.248 C 
ATOM     30  O   UNL     1      11.836  -9.160 -47.666  0.00  0.00    -0.270 OA
ATOM     31  H   UNL     1      10.487 -11.987 -48.137  0.00  0.00    +0.155 HD
BRANCH  14  15
ATOM     15  C   UNL     1      10.092  -9.618 -49.121  0.00  0.00    +0.037 A 
ATOM     16  C   UNL     1       8.699 -10.051 -48.980  0.00  0.00    +0.013 A 
ATOM     17  C   UNL     1       7.713  -9.640 -49.947  0.00  0.00    +0.005 A 
ATOM     18  C   UNL     1       8.116  -8.790 -51.065  0.00  0.00    -0.033 A 
ATOM     28  C   UNL     1       9.504  -8.372 -51.178  0.00  0.00    +0.005 A 
ATOM     29  C   UNL     1      10.473  -8.773 -50.232  0.00  0.00    +0.013 A 
BRANCH  18  19
ATOM     19  C   UNL     1       7.136  -8.322 -52.156  0.00  0.00    +0.119 C 
BRANCH  19  20
ATOM     20  N   UNL     1       6.341  -7.088 -51.877  0.00  0.00    -0.302 NA
ATOM     21  C   UNL     1       6.566  -6.570 -50.454  0.00  0.00    +0.066 C 
ATOM     22  C   UNL     1       5.744  -5.266 -50.187  0.00  0.00    -0.064 C 
ATOM     23  N   UNL     1       4.260  -5.542 -50.435  0.00  0.00    +0.379 N 
ATOM     24  C   UNL     1       3.479  -4.335 -50.129  0.00  0.00    -0.096 C 
ATOM     25  H   UNL     1       3.942  -6.341 -49.726  0.00  0.00    -0.082 HD
ATOM     26  C   UNL     1       4.029  -6.061 -51.847  0.00  0.00    -0.064 C 
ATOM     27  C   UNL     1       4.872  -7.339 -52.112  0.00  0.00    +0.066 C 
ENDBRANCH  19  20
ENDBRANCH  18  19
ENDBRANCH  14  15
ENDBRANCH  12  13
TORSDOF 6
ENDMDL
MODEL 4
REMARK VINA RESULT:      -7.6      1.934     13.449
REMARK  Name = C:\Users\Docking\Desktop\test protocol\1iep_ligandH.pdb
REMARK  8 active torsions:
REMARK  status: ('A' for Active; 'I' for Inactive)
REMARK    1  A    between atoms: _5  and  _11
REMARK    2  A    between atoms: _19  and  _21
REMARK    3  A    between atoms: _22  and  _66
REMARK    4  A    between atoms: _27  and  _30
REMARK    5  A    between atoms: _32  and  _33
REMARK    6  A    between atoms: _38  and  _43
REMARK    7  A    between atoms: _43  and  _46
REMARK    8  A    between atoms: _53  and  _55
REMARK                            x       y       z     vdW  Elec       q    Type
REMARK                         _______ _______ _______ _____ _____    ______ ____
ROOT
ATOM     10  C   UNL     1      10.661 -35.669 -52.280  0.00  0.00    +0.038 A 
ATOM     11  C   UNL     1      10.578 -35.207 -50.942  0.00  0.00    +0.047 A 
ATOM     12  C   UNL     1      11.748 -35.188 -50.079  0.00  0.00    +0.035 A 
ATOM     32  C   UNL     1      12.989 -35.645 -50.612  0.00  0.00    +0.024 A 
ATOM     33  C   UNL     1      13.090 -36.120 -51.970  0.00  0.00    +0.007 A 
ATOM     34  C   UNL     1      11.939 -36.143 -52.825  0.00  0.00    -0.029 A 
ATOM     35  C   UNL     1      12.105 -36.668 -54.270  0.00  0.00    +0.045 C 
ENDROOT
BRANCH  10   9
ATOM      4  C   UNL     1       7.582 -33.520 -55.271  0.00  0.00    +0.077 A 
ATOM      5  C   UNL     1       8.324 -32.293 -55.247  0.00  0.00    +0.048 A 
ATOM      6  C   UNL     1       9.488 -32.254 -54.447  0.00  0.00    +0.116 A 
ATOM      7  N   UNL     1       9.872 -33.365 -53.729  0.00  0.00    -0.223 NA
ATOM      8  C   UNL     1       9.133 -34.533 -53.773  0.00  0.00    +0.220 A 
ATOM      9  N   UNL     1       9.505 -35.666 -53.065  0.00  0.00    -0.283 N 
ATOM     36  H   UNL     1       8.929 -36.505 -53.118  0.00  0.00    +0.155 HD
ATOM     37  N   UNL     1       8.017 -34.595 -54.528  0.00  0.00    -0.214 NA
BRANCH   4   3
ATOM      1  C   UNL     1       3.823 -33.775 -56.321  0.00  0.00    +0.020 A 
ATOM      2  C   UNL     1       4.998 -33.573 -55.505  0.00  0.00    +0.013 A 
ATOM      3  C   UNL     1       6.333 -33.719 -56.071  0.00  0.00    +0.019 A 
ATOM     38  C   UNL     1       6.445 -34.073 -57.478  0.00  0.00    +0.120 A 
ATOM     39  N   UNL     1       5.296 -34.263 -58.239  0.00  0.00    -0.263 NA
ATOM     40  C   UNL     1       4.006 -34.127 -57.705  0.00  0.00    +0.111 A 
ENDBRANCH   4   3
ENDBRANCH  10   9
BRANCH  12  13
ATOM     13  N   UNL     1      11.723 -34.737 -48.709  0.00  0.00    -0.281 N 
ATOM     14  C   UNL     1      11.809 -35.503 -47.559  0.00  0.00    +0.248 C 
ATOM     30  O   UNL     1      11.704 -36.721 -47.530  0.00  0.00    -0.270 OA
ATOM     31  H   UNL     1      11.632 -33.730 -48.572  0.00  0.00    +0.155 HD
BRANCH  14  15
ATOM     15  C   UNL     1      12.027 -34.817 -46.249  0.00  0.00    +0.037 A 
ATOM     16  C   UNL     1      11.498 -35.375 -45.002  0.00  0.00    +0.013 A 
ATOM     17  C   UNL     1      11.708 -34.684 -43.754  0.00  0.00    +0.005 A 
ATOM     18  C   UNL     1      12.453 -33.428 -43.748  0.00  0.00    -0.033 A 
ATOM     28  C   UNL     1      12.972 -32.900 -44.999  0.00  0.00    +0.005 A 
ATOM     29  C   UNL     1      12.767 -33.574 -46.224  0.00  0.00    +0.013 A 
BRANCH  18  19
ATOM     19  C   UNL     1      12.707 -32.612 -42.466  0.00  0.00    +0.119 C 
BRANCH  19  20
ATOM     20  N   UNL     1      12.577 -33.329 -41.163  0.00  0.00    -0.302 NA
ATOM     21  C   UNL     1      11.401 -32.804 -40.334  0.00  0.00    +0.066 C 
ATOM     22  C   UNL     1      11.265 -33.580 -38.984  0.00  0.00    -0.064 C 
ATOM     23  N   UNL     1      12.573 -33.466 -38.199  0.00  0.00    +0.379 N 
ATOM     24  C   UNL     1      12.429 -34.146 -36.904  0.00  0.00    -0.096 C 
ATOM     25  H   UNL     1      12.753 -32.385 -37.996  0.00  0.00    -0.082 HD
ATOM     26  C   UNL     1      13.748 -33.984 -39.017  0.00  0.00    -0.064 C 
ATOM     27  C   UNL     1      13.856 -33.226 -40.370  0.00  0.00    +0.066 C 
ENDBRANCH  19  20
ENDBRANCH  18  19
ENDBRANCH  14  15
ENDBRANCH  12  13
TORSDOF 6
ENDMDL
MODEL 5
REMARK VINA RESULT:      -7.6     31.951     35.440
REMARK  Name = C:\Users\Docking\Desktop\test protocol\1iep_ligandH.pdb
REMARK  8 active torsions:
REMARK  status: ('A' for Active; 'I' for Inactive)
REMARK    1  A    between atoms: _5  and  _11
REMARK    2  A    between atoms: _19  and  _21
REMARK    3  A    between atoms: _22  and  _66
REMARK    4  A    between atoms: _27  and  _30
REMARK    5  A    between atoms: _32  and  _33
REMARK    6  A    between atoms: _38  and  _43
REMARK    7  A    between atoms: _43  and  _46
REMARK    8  A    between atoms: _53  and  _55
REMARK                            x       y       z     vdW  Elec       q    Type
REMARK                         _______ _______ _______ _____ _____    ______ ____
ROOT
ATOM     10  C   UNL     1      -2.331  -1.724 -52.601  0.00  0.00    +0.038 A 
ATOM     11  C   UNL     1      -2.957  -2.415 -53.670  0.00  0.00    +0.047 A 
ATOM     12  C   UNL     1      -4.107  -1.851 -54.360  0.00  0.00    +0.035 A 
ATOM     32  C   UNL     1      -4.592  -0.579 -53.936  0.00  0.00    +0.024 A 
ATOM     33  C   UNL     1      -3.969   0.136 -52.850  0.00  0.00    +0.007 A 
ATOM     34  C   UNL     1      -2.836  -0.417 -52.164  0.00  0.00    -0.029 A 
ATOM     35  C   UNL     1      -2.212   0.391 -51.003  0.00  0.00    +0.045 C 
ENDROOT
BRANCH  10   9
ATOM      4  C   UNL     1       2.397  -2.276 -51.992  0.00  0.00    +0.077 A 
ATOM      5  C   UNL     1       2.701  -1.332 -53.029  0.00  0.00    +0.048 A 
ATOM      6  C   UNL     1       1.611  -0.733 -53.700  0.00  0.00    +0.116 A 
ATOM      7  N   UNL     1       0.319  -1.059 -53.351  0.00  0.00    -0.223 NA
ATOM      8  C   UNL     1       0.061  -1.975 -52.347  0.00  0.00    +0.220 A 
ATOM      9  N   UNL     1      -1.231  -2.313 -51.974  0.00  0.00    -0.283 N 
ATOM     36  H   UNL     1      -1.379  -2.998 -51.234  0.00  0.00    +0.155 HD
ATOM     37  N   UNL     1       1.084  -2.563 -51.692  0.00  0.00    -0.214 NA
BRANCH   4   3
ATOM      1  C   UNL     1       5.535  -4.379 -50.978  0.00  0.00    +0.020 A 
ATOM      2  C   UNL     1       4.555  -3.706 -51.798  0.00  0.00    +0.013 A 
ATOM      3  C   UNL     1       3.440  -2.991 -51.190  0.00  0.00    +0.019 A 
ATOM     38  C   UNL     1       3.345  -2.976 -49.738  0.00  0.00    +0.120 A 
ATOM     39  N   UNL     1       4.303  -3.635 -48.974  0.00  0.00    -0.263 NA
ATOM     40  C   UNL     1       5.380  -4.328 -49.548  0.00  0.00    +0.111 A 
ENDBRANCH   4   3
ENDBRANCH  10   9
BRANCH  12  13
ATOM     13  N   UNL     1      -4.788  -2.510 -55.447  0.00  0.00    -0.281 N 
ATOM     14  C   UNL     1      -4.254  -2.940 -56.651  0.00  0.00    +0.248 C 
ATOM     30  O   UNL     1      -3.147  -2.630 -57.066  0.00  0.00    -0.270 OA
ATOM     31  H   UNL     1      -5.785  -2.679 -55.313  0.00  0.00    +0.155 HD
BRANCH  14  15
ATOM     15  C   UNL     1      -5.074  -3.831 -57.527  0.00  0.00    +0.037 A 
ATOM     16  C   UNL     1      -4.453  -4.645 -58.575  0.00  0.00    +0.013 A 
ATOM     17  C   UNL     1      -5.269  -5.484 -59.417  0.00  0.00    +0.005 A 
ATOM     18  C   UNL     1      -6.715  -5.513 -59.213  0.00  0.00    -0.033 A 
ATOM     28  C   UNL     1      -7.304  -4.699 -58.162  0.00  0.00    +0.005 A 
ATOM     29  C   UNL     1      -6.508  -3.875 -57.335  0.00  0.00    +0.013 A 
BRANCH  18  19
ATOM     19  C   UNL     1      -7.665  -6.362 -60.078  0.00  0.00    +0.119 C 
BRANCH  19  20
ATOM     20  N   UNL     1      -8.666  -7.210 -59.365  0.00  0.00    -0.302 NA
ATOM     21  C   UNL     1      -8.647  -8.660 -59.858  0.00  0.00    +0.066 C 
ATOM     22  C   UNL     1      -9.684  -9.538 -59.086  0.00  0.00    -0.064 C 
ATOM     23  N   UNL     1     -11.079  -8.931 -59.242  0.00  0.00    +0.379 N 
ATOM     24  C   UNL     1     -12.065  -9.786 -58.565  0.00  0.00    -0.096 C 
ATOM     25  H   UNL     1     -11.325  -8.926 -60.329  0.00  0.00    -0.082 HD
ATOM     26  C   UNL     1     -11.106  -7.489 -58.756  0.00  0.00    -0.064 C 
ATOM     27  C   UNL     1     -10.052  -6.632 -59.509  0.00  0.00    +0.066 C 
ENDBRANCH  19  20
ENDBRANCH  18  19
ENDBRANCH  14  15
ENDBRANCH  12  13
TORSDOF 6
ENDMDL
