MODEL 1
REMARK VINA RESULT:      -8.2      0.000      0.000
REMARK  Name = C:\Users\Docking\Desktop\test protocol\1iep_ligandH.pdb
REMARK  8 active torsions:
REMARK  status: ('A' for Active; 'I' for Inactive)
REMARK    1  A    between atoms: _5  and  _11
REMARK    2  A    between atoms: _19  and  _21
REMARK    3  A    between atoms: _22  and  _66
REMARK    4  A    between atoms: _27  and  _30
REMARK    5  A    between atoms: _32  and  _33
REMARK    6  A    between atoms: _38  and  _43
REMARK    7  A    between atoms: _43  and  _46
REMARK    8  A    between atoms: _53  and  _55
REMARK                            x       y       z     vdW  Elec       q    Type
REMARK                         _______ _______ _______ _____ _____    ______ ____
ROOT
ATOM     10  C   UNL     1     -14.429 -30.446 -21.844  0.00  0.00    +0.038 A 
ATOM     11  C   UNL     1     -13.202 -29.736 -21.828  0.00  0.00    +0.047 A 
ATOM     12  C   UNL     1     -11.983 -30.352 -21.326  0.00  0.00    +0.035 A 
ATOM     32  C   UNL     1     -12.050 -31.694 -20.851  0.00  0.00    +0.024 A 
ATOM     33  C   UNL     1     -13.290 -32.430 -20.860  0.00  0.00    +0.007 A 
ATOM     34  C   UNL     1     -14.496 -31.827 -21.351  0.00  0.00    -0.029 A 
ATOM     35  C   UNL     1     -15.798 -32.661 -21.330  0.00  0.00    +0.045 C 
ENDROOT
BRANCH  10   9
ATOM      4  C   UNL     1     -18.348 -27.737 -21.261  0.00  0.00    +0.077 A 
ATOM      5  C   UNL     1     -18.121 -27.608 -19.850  0.00  0.00    +0.048 A 
ATOM      6  C   UNL     1     -16.988 -28.260 -19.313  0.00  0.00    +0.116 A 
ATOM      7  N   UNL     1     -16.152 -28.984 -20.135  0.00  0.00    -0.223 NA
ATOM      8  C   UNL     1     -16.401 -29.090 -21.491  0.00  0.00    +0.220 A 
ATOM      9  N   UNL     1     -15.569 -29.806 -22.337  0.00  0.00    -0.283 N 
ATOM     36  H   UNL     1     -15.791 -29.866 -23.330  0.00  0.00    +0.155 HD
ATOM     37  N   UNL     1     -17.477 -28.477 -22.028  0.00  0.00    -0.214 NA
BRANCH   4   3
ATOM      1  C   UNL     1     -20.639 -25.145 -23.087  0.00  0.00    +0.020 A 
ATOM      2  C   UNL     1     -19.501 -25.708 -22.398  0.00  0.00    +0.013 A 
ATOM      3  C   UNL     1     -19.500 -27.103 -21.977  0.00  0.00    +0.019 A 
ATOM     38  C   UNL     1     -20.676 -27.908 -22.271  0.00  0.00    +0.120 A 
ATOM     39  N   UNL     1     -21.758 -27.339 -22.935  0.00  0.00    -0.263 NA
ATOM     40  C   UNL     1     -21.770 -25.997 -23.344  0.00  0.00    +0.111 A 
ENDBRANCH   4   3
ENDBRANCH  10   9
BRANCH  12  13
ATOM     13  N   UNL     1     -10.709 -29.678 -21.278  0.00  0.00    -0.281 N 
ATOM     14  C   UNL     1      -9.852 -29.399 -22.330  0.00  0.00    +0.248 C 
ATOM     30  O   UNL     1      -9.954 -29.879 -23.449  0.00  0.00    -0.270 OA
ATOM     31  H   UNL     1     -10.402 -29.369 -20.355  0.00  0.00    +0.155 HD
BRANCH  14  15
ATOM     15  C   UNL     1      -8.710 -28.463 -22.102  0.00  0.00    +0.037 A 
ATOM     16  C   UNL     1      -7.876 -28.560 -20.901  0.00  0.00    +0.013 A 
ATOM     17  C   UNL     1      -6.791 -27.634 -20.698  0.00  0.00    +0.005 A 
ATOM     18  C   UNL     1      -6.532 -26.602 -21.699  0.00  0.00    -0.033 A 
ATOM     28  C   UNL     1      -7.372 -26.532 -22.884  0.00  0.00    +0.005 A 
ATOM     29  C   UNL     1      -8.437 -27.438 -23.086  0.00  0.00    +0.013 A 
BRANCH  18  19
ATOM     19  C   UNL     1      -5.409 -25.558 -21.555  0.00  0.00    +0.119 C 
BRANCH  19  20
ATOM     20  N   UNL     1      -5.127 -24.688 -22.735  0.00  0.00    -0.302 NA
ATOM     21  C   UNL     1      -3.765 -24.994 -23.363  0.00  0.00    +0.066 C 
ATOM     22  C   UNL     1      -3.496 -24.091 -24.610  0.00  0.00    -0.064 C 
ATOM     23  N   UNL     1      -3.585 -22.620 -24.199  0.00  0.00    +0.379 N 
ATOM     24  C   UNL     1      -3.277 -21.768 -25.357  0.00  0.00    -0.096 C 
ATOM     25  H   UNL     1      -2.803 -22.437 -23.426  0.00  0.00    -0.082 HD
ATOM     26  C   UNL     1      -4.937 -22.307 -23.572  0.00  0.00    -0.064 C 
ATOM     27  C   UNL     1      -5.206 -23.231 -22.351  0.00  0.00    +0.066 C 
ENDBRANCH  19  20
ENDBRANCH  18  19
ENDBRANCH  14  15
ENDBRANCH  12  13
TORSDOF 6
ENDMDL
MODEL 2
REMARK VINA RESULT:      -8.1     32.482     36.104
REMARK  Name = C:\Users\Docking\Desktop\test protocol\1iep_ligandH.pdb
REMARK  8 active torsions:
REMARK  status: ('A' for Active; 'I' for Inactive)
REMARK    1  A    between atoms: _5  and  _11
REMARK    2  A    between atoms: _19  and  _21
REMARK    3  A    between atoms: _22  and  _66
REMARK    4  A    between atoms: _27  and  _30
REMARK    5  A    between atoms: _32  and  _33
REMARK    6  A    between atoms: _38  and  _43
REMARK    7  A    between atoms: _43  and  _46
REMARK    8  A    between atoms: _53  and  _55
REMARK                            x       y       z     vdW  Elec       q    Type
REMARK                         _______ _______ _______ _____ _____    ______ ____
ROOT
ATOM     10  C   UNL     1      10.713 -31.967 -51.152  0.00  0.00    +0.038 A 
ATOM     11  C   UNL     1      10.947 -32.522 -49.868  0.00  0.00    +0.047 A 
ATOM     12  C   UNL     1      10.591 -33.901 -49.568  0.00  0.00    +0.035 A 
ATOM     32  C   UNL     1      10.001 -34.686 -50.601  0.00  0.00    +0.024 A 
ATOM     33  C   UNL     1       9.754 -34.137 -51.911  0.00  0.00    +0.007 A 
ATOM     34  C   UNL     1      10.101 -32.777 -52.212  0.00  0.00    -0.029 A 
ATOM     35  C   UNL     1       9.808 -32.239 -53.632  0.00  0.00    +0.045 C 
ENDROOT
BRANCH  10   9
ATOM      4  C   UNL     1       9.899 -27.246 -50.859  0.00  0.00    +0.077 A 
ATOM      5  C   UNL     1       8.634 -27.444 -50.212  0.00  0.00    +0.048 A 
ATOM      6  C   UNL     1       8.226 -28.777 -49.979  0.00  0.00    +0.116 A 
ATOM      7  N   UNL     1       9.031 -29.825 -50.368  0.00  0.00    -0.223 NA
ATOM      8  C   UNL     1      10.245 -29.599 -50.992  0.00  0.00    +0.220 A 
ATOM      9  N   UNL     1      11.074 -30.638 -51.385  0.00  0.00    -0.283 N 
ATOM     36  H   UNL     1      11.958 -30.430 -51.849  0.00  0.00    +0.155 HD
ATOM     37  N   UNL     1      10.656 -28.335 -51.227  0.00  0.00    -0.214 NA
BRANCH   4   3
ATOM      1  C   UNL     1      11.178 -24.087 -52.779  0.00  0.00    +0.020 A 
ATOM      2  C   UNL     1      10.622 -25.397 -52.532  0.00  0.00    +0.013 A 
ATOM      3  C   UNL     1      10.469 -25.897 -51.172  0.00  0.00    +0.019 A 
ATOM     38  C   UNL     1      10.889 -25.038 -50.075  0.00  0.00    +0.120 A 
ATOM     39  N   UNL     1      11.422 -23.781 -50.343  0.00  0.00    -0.263 NA
ATOM     40  C   UNL     1      11.577 -23.291 -51.648  0.00  0.00    +0.111 A 
ENDBRANCH   4   3
ENDBRANCH  10   9
BRANCH  12  13
ATOM     13  N   UNL     1      10.798 -34.517 -48.281  0.00  0.00    -0.281 N 
ATOM     14  C   UNL     1      11.673 -35.541 -47.958  0.00  0.00    +0.248 C 
ATOM     30  O   UNL     1      12.261 -36.232 -48.777  0.00  0.00    -0.270 OA
ATOM     31  H   UNL     1      10.230 -34.154 -47.515  0.00  0.00    +0.155 HD
BRANCH  14  15
ATOM     15  C   UNL     1      11.919 -35.853 -46.517  0.00  0.00    +0.037 A 
ATOM     16  C   UNL     1      12.943 -36.819 -46.112  0.00  0.00    +0.013 A 
ATOM     17  C   UNL     1      13.148 -37.114 -44.716  0.00  0.00    +0.005 A 
ATOM     18  C   UNL     1      12.327 -36.439 -43.714  0.00  0.00    -0.033 A 
ATOM     28  C   UNL     1      11.322 -35.481 -44.143  0.00  0.00    +0.005 A 
ATOM     29  C   UNL     1      11.117 -35.190 -45.510  0.00  0.00    +0.013 A 
BRANCH  18  19
ATOM     19  C   UNL     1      12.463 -36.708 -42.203  0.00  0.00    +0.119 C 
BRANCH  19  20
ATOM     20  N   UNL     1      13.201 -35.695 -41.392  0.00  0.00    -0.302 NA
ATOM     21  C   UNL     1      14.695 -36.015 -41.294  0.00  0.00    +0.066 C 
ATOM     22  C   UNL     1      15.456 -34.933 -40.461  0.00  0.00    -0.064 C 
ATOM     23  N   UNL     1      14.832 -34.833 -39.069  0.00  0.00    +0.379 N 
ATOM     24  C   UNL     1      15.581 -33.858 -38.263  0.00  0.00    -0.096 C 
ATOM     25  H   UNL     1      14.937 -35.829 -38.579  0.00  0.00    -0.082 HD
ATOM     26  C   UNL     1      13.345 -34.517 -39.157  0.00  0.00    -0.064 C 
ATOM     27  C   UNL     1      12.603 -35.583 -40.011  0.00  0.00    +0.066 C 
ENDBRANCH  19  20
ENDBRANCH  18  19
ENDBRANCH  14  15
ENDBRANCH  12  13
TORSDOF 6
ENDMDL
MODEL 3
REMARK VINA RESULT:      -7.6      1.559      2.232
REMARK  Name = C:\Users\Docking\Desktop\test protocol\1iep_ligandH.pdb
REMARK  8 active torsions:
REMARK  status: ('A' for Active; 'I' for Inactive)
REMARK    1  A    between atoms: _5  and  _11
REMARK    2  A    between atoms: _19  and  _21
REMARK    3  A    between atoms: _22  and  _66
REMARK    4  A    between atoms: _27  and  _30
REMARK    5  A    between atoms: _32  and  _33
REMARK    6  A    between atoms: _38  and  _43
REMARK    7  A    between atoms: _43  and  _46
REMARK    8  A    between atoms: _53  and  _55
REMARK                            x       y       z     vdW  Elec       q    Type
REMARK                         _______ _______ _______ _____ _____    ______ ____
ROOT
ATOM     10  C   UNL     1     -14.478 -30.469 -21.767  0.00  0.00    +0.038 A 
ATOM     11  C   UNL     1     -13.280 -29.709 -21.759  0.00  0.00    +0.047 A 
ATOM     12  C   UNL     1     -12.035 -30.272 -21.261  0.00  0.00    +0.035 A 
ATOM     32  C   UNL     1     -12.044 -31.614 -20.782  0.00  0.00    +0.024 A 
ATOM     33  C   UNL     1     -13.252 -32.401 -20.782  0.00  0.00    +0.007 A 
ATOM     34  C   UNL     1     -14.484 -31.850 -21.269  0.00  0.00    -0.029 A 
ATOM     35  C   UNL     1     -15.751 -32.737 -21.240  0.00  0.00    +0.045 C 
ENDROOT
BRANCH  10   9
ATOM      4  C   UNL     1     -18.385 -27.734 -21.226  0.00  0.00    +0.077 A 
ATOM      5  C   UNL     1     -18.090 -27.483 -19.845  0.00  0.00    +0.048 A 
ATOM      6  C   UNL     1     -16.927 -28.082 -19.310  0.00  0.00    +0.116 A 
ATOM      7  N   UNL     1     -16.126 -28.871 -20.107  0.00  0.00    -0.223 NA
ATOM      8  C   UNL     1     -16.440 -29.095 -21.435  0.00  0.00    +0.220 A 
ATOM      9  N   UNL     1     -15.645 -29.878 -22.256  0.00  0.00    -0.283 N 
ATOM     36  H   UNL     1     -15.915 -30.025 -23.228  0.00  0.00    +0.155 HD
ATOM     37  N   UNL     1     -17.546 -28.535 -21.968  0.00  0.00    -0.214 NA
BRANCH   4   3
ATOM      1  C   UNL     1     -20.832 -25.283 -23.043  0.00  0.00    +0.020 A 
ATOM      2  C   UNL     1     -19.659 -25.778 -22.360  0.00  0.00    +0.013 A 
ATOM      3  C   UNL     1     -19.576 -27.170 -21.936  0.00  0.00    +0.019 A 
ATOM     38  C   UNL     1     -20.705 -28.042 -22.222  0.00  0.00    +0.120 A 
ATOM     39  N   UNL     1     -21.822 -27.536 -22.880  0.00  0.00    -0.263 NA
ATOM     40  C   UNL     1     -21.914 -26.198 -23.291  0.00  0.00    +0.111 A 
ENDBRANCH   4   3
ENDBRANCH  10   9
BRANCH  12  13
ATOM     13  N   UNL     1     -10.790 -29.545 -21.221  0.00  0.00    -0.281 N 
ATOM     14  C   UNL     1      -9.889 -29.340 -22.253  0.00  0.00    +0.248 C 
ATOM     30  O   UNL     1      -9.914 -29.936 -23.320  0.00  0.00    -0.270 OA
ATOM     31  H   UNL     1     -10.543 -29.131 -20.322  0.00  0.00    +0.155 HD
BRANCH  14  15
ATOM     15  C   UNL     1      -8.794 -28.340 -22.068  0.00  0.00    +0.037 A 
ATOM     16  C   UNL     1      -8.073 -28.229 -20.797  0.00  0.00    +0.013 A 
ATOM     17  C   UNL     1      -7.032 -27.244 -20.640  0.00  0.00    +0.005 A 
ATOM     18  C   UNL     1      -6.705 -26.363 -21.758  0.00  0.00    -0.033 A 
ATOM     28  C   UNL     1      -7.433 -26.499 -23.010  0.00  0.00    +0.005 A 
ATOM     29  C   UNL     1      -8.454 -27.462 -23.167  0.00  0.00    +0.013 A 
BRANCH  18  19
ATOM     19  C   UNL     1      -5.624 -25.270 -21.673  0.00  0.00    +0.119 C 
BRANCH  19  20
ATOM     20  N   UNL     1      -4.392 -25.586 -20.890  0.00  0.00    -0.302 NA
ATOM     21  C   UNL     1      -4.357 -24.846 -19.550  0.00  0.00    +0.066 C 
ATOM     22  C   UNL     1      -3.073 -25.206 -18.735  0.00  0.00    -0.064 C 
ATOM     23  N   UNL     1      -1.834 -24.875 -19.568  0.00  0.00    +0.379 N 
ATOM     24  C   UNL     1      -0.624 -25.158 -18.782  0.00  0.00    -0.096 C 
ATOM     25  H   UNL     1      -1.851 -23.781 -19.780  0.00  0.00    -0.082 HD
ATOM     26  C   UNL     1      -1.861 -25.604 -20.904  0.00  0.00    -0.064 C 
ATOM     27  C   UNL     1      -3.156 -25.263 -21.693  0.00  0.00    +0.066 C 
ENDBRANCH  19  20
ENDBRANCH  18  19
ENDBRANCH  14  15
ENDBRANCH  12  13
TORSDOF 6
ENDMDL
MODEL 4
REMARK VINA RESULT:      -7.2     19.104     28.636
REMARK  Name = C:\Users\Docking\Desktop\test protocol\1iep_ligandH.pdb
REMARK  8 active torsions:
REMARK  status: ('A' for Active; 'I' for Inactive)
REMARK    1  A    between atoms: _5  and  _11
REMARK    2  A    between atoms: _19  and  _21
REMARK    3  A    between atoms: _22  and  _66
REMARK    4  A    between atoms: _27  and  _30
REMARK    5  A    between atoms: _32  and  _33
REMARK    6  A    between atoms: _38  and  _43
REMARK    7  A    between atoms: _43  and  _46
REMARK    8  A    between atoms: _53  and  _55
REMARK                            x       y       z     vdW  Elec       q    Type
REMARK                         _______ _______ _______ _____ _____    ______ ____
ROOT
ATOM     10  C   UNL     1      -1.775  -3.320 -34.690  0.00  0.00    +0.038 A 
ATOM     11  C   UNL     1      -2.893  -4.091 -34.281  0.00  0.00    +0.047 A 
ATOM     12  C   UNL     1      -4.238  -3.536 -34.302  0.00  0.00    +0.035 A 
ATOM     32  C   UNL     1      -4.408  -2.194 -34.749  0.00  0.00    +0.024 A 
ATOM     33  C   UNL     1      -3.283  -1.395 -35.167  0.00  0.00    +0.007 A 
ATOM     34  C   UNL     1      -1.954  -1.936 -35.146  0.00  0.00    -0.029 A 
ATOM     35  C   UNL     1      -0.784  -1.032 -35.600  0.00  0.00    +0.045 C 
ENDROOT
BRANCH  10   9
ATOM      4  C   UNL     1       2.204  -4.638 -32.352  0.00  0.00    +0.077 A 
ATOM      5  C   UNL     1       1.726  -4.097 -31.112  0.00  0.00    +0.048 A 
ATOM      6  C   UNL     1       0.454  -3.482 -31.121  0.00  0.00    +0.116 A 
ATOM      7  N   UNL     1      -0.277  -3.418 -32.287  0.00  0.00    -0.223 NA
ATOM      8  C   UNL     1       0.215  -3.948 -33.466  0.00  0.00    +0.220 A 
ATOM      9  N   UNL     1      -0.506  -3.902 -34.650  0.00  0.00    -0.283 N 
ATOM     36  H   UNL     1      -0.106  -4.298 -35.500  0.00  0.00    +0.155 HD
ATOM     37  N   UNL     1       1.427  -4.540 -33.485  0.00  0.00    -0.214 NA
BRANCH   4   3
ATOM      1  C   UNL     1       5.724  -5.706 -33.683  0.00  0.00    +0.020 A 
ATOM      2  C   UNL     1       4.458  -5.017 -33.582  0.00  0.00    +0.013 A 
ATOM      3  C   UNL     1       3.527  -5.322 -32.503  0.00  0.00    +0.019 A 
ATOM     38  C   UNL     1       3.910  -6.338 -31.535  0.00  0.00    +0.120 A 
ATOM     39  N   UNL     1       5.135  -6.987 -31.658  0.00  0.00    -0.263 NA
ATOM     40  C   UNL     1       6.038  -6.702 -32.693  0.00  0.00    +0.111 A 
ENDBRANCH   4   3
ENDBRANCH  10   9
BRANCH  12  13
ATOM     13  N   UNL     1      -5.410  -4.269 -33.891  0.00  0.00    -0.281 N 
ATOM     14  C   UNL     1      -6.436  -4.751 -34.687  0.00  0.00    +0.248 C 
ATOM     30  O   UNL     1      -6.609  -4.438 -35.856  0.00  0.00    -0.270 OA
ATOM     31  H   UNL     1      -5.493  -4.454 -32.892  0.00  0.00    +0.155 HD
BRANCH  14  15
ATOM     15  C   UNL     1      -7.420  -5.708 -34.096  0.00  0.00    +0.037 A 
ATOM     16  C   UNL     1      -8.804  -5.307 -33.832  0.00  0.00    +0.013 A 
ATOM     17  C   UNL     1      -9.729  -6.244 -33.245  0.00  0.00    +0.005 A 
ATOM     18  C   UNL     1      -9.272  -7.593 -32.920  0.00  0.00    -0.033 A 
ATOM     28  C   UNL     1      -7.894  -7.966 -33.197  0.00  0.00    +0.005 A 
ATOM     29  C   UNL     1      -6.985  -7.049 -33.772  0.00  0.00    +0.013 A 
BRANCH  18  19
ATOM     19  C   UNL     1     -10.183  -8.652 -32.272  0.00  0.00    +0.119 C 
BRANCH  19  20
ATOM     20  N   UNL     1      -9.546  -9.933 -31.842  0.00  0.00    -0.302 NA
ATOM     21  C   UNL     1     -10.380 -11.152 -32.245  0.00  0.00    +0.066 C 
ATOM     22  C   UNL     1      -9.688 -12.484 -31.808  0.00  0.00    -0.064 C 
ATOM     23  N   UNL     1      -9.455 -12.462 -30.296  0.00  0.00    +0.379 N 
ATOM     24  C   UNL     1      -8.857 -13.737 -29.873  0.00  0.00    -0.096 C 
ATOM     25  H   UNL     1     -10.451 -12.375 -29.802  0.00  0.00    -0.082 HD
ATOM     26  C   UNL     1      -8.630 -11.251 -29.886  0.00  0.00    -0.064 C 
ATOM     27  C   UNL     1      -9.312  -9.934 -30.352  0.00  0.00    +0.066 C 
ENDBRANCH  19  20
ENDBRANCH  18  19
ENDBRANCH  14  15
ENDBRANCH  12  13
TORSDOF 6
ENDMDL
MODEL 5
REMARK VINA RESULT:      -7.2     32.617     37.105
REMARK  Name = C:\Users\Docking\Desktop\test protocol\1iep_ligandH.pdb
REMARK  8 active torsions:
REMARK  status: ('A' for Active; 'I' for Inactive)
REMARK    1  A    between atoms: _5  and  _11
REMARK    2  A    between atoms: _19  and  _21
REMARK    3  A    between atoms: _22  and  _66
REMARK    4  A    between atoms: _27  and  _30
REMARK    5  A    between atoms: _32  and  _33
REMARK    6  A    between atoms: _38  and  _43
REMARK    7  A    between atoms: _43  and  _46
REMARK    8  A    between atoms: _53  and  _55
REMARK                            x       y       z     vdW  Elec       q    Type
REMARK                         _______ _______ _______ _____ _____    ______ ____
ROOT
ATOM     10  C   UNL     1      10.319 -33.352 -52.132  0.00  0.00    +0.038 A 
ATOM     11  C   UNL     1      10.226 -33.867 -50.814  0.00  0.00    +0.047 A 
ATOM     12  C   UNL     1      11.402 -33.983 -49.966  0.00  0.00    +0.035 A 
ATOM     32  C   UNL     1      12.658 -33.562 -50.493  0.00  0.00    +0.024 A 
ATOM     33  C   UNL     1      12.772 -33.038 -51.831  0.00  0.00    +0.007 A 
ATOM     34  C   UNL     1      11.615 -32.924 -52.673  0.00  0.00    -0.029 A 
ATOM     35  C   UNL     1      11.797 -32.360 -54.101  0.00  0.00    +0.045 C 
ENDROOT
BRANCH  10   9
ATOM      4  C   UNL     1       7.330 -35.028 -55.493  0.00  0.00    +0.077 A 
ATOM      5  C   UNL     1       8.167 -36.163 -55.755  0.00  0.00    +0.048 A 
ATOM      6  C   UNL     1       9.361 -36.275 -55.009  0.00  0.00    +0.116 A 
ATOM      7  N   UNL     1       9.685 -35.318 -54.072  0.00  0.00    -0.223 NA
ATOM      8  C   UNL     1       8.856 -34.234 -53.845  0.00  0.00    +0.220 A 
ATOM      9  N   UNL     1       9.158 -33.263 -52.902  0.00  0.00    -0.283 N 
ATOM     36  H   UNL     1       8.524 -32.475 -52.770  0.00  0.00    +0.155 HD
ATOM     37  N   UNL     1       7.710 -34.104 -54.546  0.00  0.00    -0.214 NA
BRANCH   4   3
ATOM      1  C   UNL     1       3.806 -33.611 -56.429  0.00  0.00    +0.020 A 
ATOM      2  C   UNL     1       5.042 -33.822 -55.711  0.00  0.00    +0.013 A 
ATOM      3  C   UNL     1       6.034 -34.772 -56.197  0.00  0.00    +0.019 A 
ATOM     38  C   UNL     1       5.743 -35.498 -57.424  0.00  0.00    +0.120 A 
ATOM     39  N   UNL     1       4.544 -35.276 -58.094  0.00  0.00    -0.263 NA
ATOM     40  C   UNL     1       3.581 -34.365 -57.634  0.00  0.00    +0.111 A 
ENDBRANCH   4   3
ENDBRANCH  10   9
BRANCH  12  13
ATOM     13  N   UNL     1      11.370 -34.506 -48.623  0.00  0.00    -0.281 N 
ATOM     14  C   UNL     1      11.781 -35.754 -48.184  0.00  0.00    +0.248 C 
ATOM     30  O   UNL     1      12.042 -36.693 -48.921  0.00  0.00    -0.270 OA
ATOM     31  H   UNL     1      11.000 -33.879 -47.908  0.00  0.00    +0.155 HD
BRANCH  14  15
ATOM     15  C   UNL     1      11.906 -35.998 -46.715  0.00  0.00    +0.037 A 
ATOM     16  C   UNL     1      11.144 -35.207 -45.746  0.00  0.00    +0.013 A 
ATOM     17  C   UNL     1      11.296 -35.451 -44.333  0.00  0.00    +0.005 A 
ATOM     18  C   UNL     1      12.214 -36.494 -43.882  0.00  0.00    -0.033 A 
ATOM     28  C   UNL     1      12.954 -37.268 -44.865  0.00  0.00    +0.005 A 
ATOM     29  C   UNL     1      12.808 -37.030 -46.251  0.00  0.00    +0.013 A 
BRANCH  18  19
ATOM     19  C   UNL     1      12.455 -36.810 -42.394  0.00  0.00    +0.119 C 
BRANCH  19  20
ATOM     20  N   UNL     1      13.211 -35.800 -41.595  0.00  0.00    -0.302 NA
ATOM     21  C   UNL     1      14.693 -36.162 -41.466  0.00  0.00    +0.066 C 
ATOM     22  C   UNL     1      15.474 -35.084 -40.646  0.00  0.00    -0.064 C 
ATOM     23  N   UNL     1      14.832 -34.933 -39.266  0.00  0.00    +0.379 N 
ATOM     24  C   UNL     1      15.598 -33.962 -38.472  0.00  0.00    -0.096 C 
ATOM     25  H   UNL     1      14.900 -35.920 -38.752  0.00  0.00    -0.082 HD
ATOM     26  C   UNL     1      13.357 -34.576 -39.385  0.00  0.00    -0.064 C 
ATOM     27  C   UNL     1      12.596 -35.638 -40.226  0.00  0.00    +0.066 C 
ENDBRANCH  19  20
ENDBRANCH  18  19
ENDBRANCH  14  15
ENDBRANCH  12  13
TORSDOF 6
ENDMDL
