MODEL 1
REMARK VINA RESULT:      -9.2      0.000      0.000
REMARK  Name = C:\Users\Docking\Desktop\test protocol\1iep_ligandH.pdb
REMARK  8 active torsions:
REMARK  status: ('A' for Active; 'I' for Inactive)
REMARK    1  A    between atoms: _5  and  _11
REMARK    2  A    between atoms: _19  and  _21
REMARK    3  A    between atoms: _22  and  _66
REMARK    4  A    between atoms: _27  and  _30
REMARK    5  A    between atoms: _32  and  _33
REMARK    6  A    between atoms: _38  and  _43
REMARK    7  A    between atoms: _43  and  _46
REMARK    8  A    between atoms: _53  and  _55
REMARK                            x       y       z     vdW  Elec       q    Type
REMARK                         _______ _______ _______ _____ _____    ______ ____
ROOT
ATOM     10  C   UNL     1      88.618  31.136 -17.161  0.00  0.00    +0.038 A 
ATOM     11  C   UNL     1      88.954  31.332 -15.797  0.00  0.00    +0.047 A 
ATOM     12  C   UNL     1      90.316  31.142 -15.323  0.00  0.00    +0.035 A 
ATOM     32  C   UNL     1      91.312  30.756 -16.266  0.00  0.00    +0.024 A 
ATOM     33  C   UNL     1      90.988  30.551 -17.656  0.00  0.00    +0.007 A 
ATOM     34  C   UNL     1      89.646  30.734 -18.129  0.00  0.00    -0.029 A 
ATOM     35  C   UNL     1      89.354  30.495 -19.629  0.00  0.00    +0.045 C 
ENDROOT
BRANCH  10   9
ATOM      4  C   UNL     1      85.081  33.882 -18.889  0.00  0.00    +0.077 A 
ATOM      5  C   UNL     1      85.936  35.031 -18.976  0.00  0.00    +0.048 A 
ATOM      6  C   UNL     1      87.277  34.875 -18.560  0.00  0.00    +0.116 A 
ATOM      7  N   UNL     1      87.719  33.657 -18.093  0.00  0.00    -0.223 NA
ATOM      8  C   UNL     1      86.869  32.569 -18.020  0.00  0.00    +0.220 A 
ATOM      9  N   UNL     1      87.294  31.332 -17.561  0.00  0.00    -0.283 N 
ATOM     36  H   UNL     1      86.634  30.556 -17.516  0.00  0.00    +0.155 HD
ATOM     37  N   UNL     1      85.583  32.692 -18.410  0.00  0.00    -0.214 NA
BRANCH   4   3
ATOM      1  C   UNL     1      81.324  34.889 -19.306  0.00  0.00    +0.020 A 
ATOM      2  C   UNL     1      82.706  34.930 -18.887  0.00  0.00    +0.013 A 
ATOM      3  C   UNL     1      83.640  33.887 -19.294  0.00  0.00    +0.019 A 
ATOM     38  C   UNL     1      83.139  32.809 -20.132  0.00  0.00    +0.120 A 
ATOM     39  N   UNL     1      81.803  32.794 -20.519  0.00  0.00    -0.263 NA
ATOM     40  C   UNL     1      80.895  33.791 -20.132  0.00  0.00    +0.111 A 
ENDBRANCH   4   3
ENDBRANCH  10   9
BRANCH  12  13
ATOM     13  N   UNL     1      90.715  31.319 -13.949  0.00  0.00    -0.281 N 
ATOM     14  C   UNL     1      90.192  30.703 -12.824  0.00  0.00    +0.248 C 
ATOM     30  O   UNL     1      89.151  30.062 -12.808  0.00  0.00    -0.270 OA
ATOM     31  H   UNL     1      91.476  31.978 -13.785  0.00  0.00    +0.155 HD
BRANCH  14  15
ATOM     15  C   UNL     1      90.922  30.828 -11.526  0.00  0.00    +0.037 A 
ATOM     16  C   UNL     1      91.073  32.125 -10.861  0.00  0.00    +0.013 A 
ATOM     17  C   UNL     1      91.797  32.221  -9.618  0.00  0.00    +0.005 A 
ATOM     18  C   UNL     1      92.374  31.014  -9.031  0.00  0.00    -0.033 A 
ATOM     28  C   UNL     1      92.204  29.740  -9.708  0.00  0.00    +0.005 A 
ATOM     29  C   UNL     1      91.496  29.642 -10.927  0.00  0.00    +0.013 A 
BRANCH  18  19
ATOM     19  C   UNL     1      93.179  31.026  -7.718  0.00  0.00    +0.119 C 
BRANCH  19  20
ATOM     20  N   UNL     1      92.852  32.092  -6.724  0.00  0.00    -0.302 NA
ATOM     21  C   UNL     1      94.004  33.084  -6.545  0.00  0.00    +0.066 C 
ATOM     22  C   UNL     1      93.635  34.205  -5.519  0.00  0.00    -0.064 C 
ATOM     23  N   UNL     1      93.260  33.564  -4.182  0.00  0.00    +0.379 N 
ATOM     24  C   UNL     1      92.969  34.617  -3.198  0.00  0.00    -0.096 C 
ATOM     25  H   UNL     1      94.148  32.997  -3.818  0.00  0.00    -0.082 HD
ATOM     26  C   UNL     1      92.117  32.573  -4.351  0.00  0.00    -0.064 C 
ATOM     27  C   UNL     1      92.482  31.481  -5.395  0.00  0.00    +0.066 C 
ENDBRANCH  19  20
ENDBRANCH  18  19
ENDBRANCH  14  15
ENDBRANCH  12  13
TORSDOF 6
ENDMDL
MODEL 2
REMARK VINA RESULT:      -8.7      8.918     13.823
REMARK  Name = C:\Users\Docking\Desktop\test protocol\1iep_ligandH.pdb
REMARK  8 active torsions:
REMARK  status: ('A' for Active; 'I' for Inactive)
REMARK    1  A    between atoms: _5  and  _11
REMARK    2  A    between atoms: _19  and  _21
REMARK    3  A    between atoms: _22  and  _66
REMARK    4  A    between atoms: _27  and  _30
REMARK    5  A    between atoms: _32  and  _33
REMARK    6  A    between atoms: _38  and  _43
REMARK    7  A    between atoms: _43  and  _46
REMARK    8  A    between atoms: _53  and  _55
REMARK                            x       y       z     vdW  Elec       q    Type
REMARK                         _______ _______ _______ _____ _____    ______ ____
ROOT
ATOM     10  C   UNL     1      78.242  32.593 -10.164  0.00  0.00    +0.038 A 
ATOM     11  C   UNL     1      79.014  32.740 -11.344  0.00  0.00    +0.047 A 
ATOM     12  C   UNL     1      79.182  34.039 -11.977  0.00  0.00    +0.035 A 
ATOM     32  C   UNL     1      78.551  35.168 -11.379  0.00  0.00    +0.024 A 
ATOM     33  C   UNL     1      77.762  35.037 -10.180  0.00  0.00    +0.007 A 
ATOM     34  C   UNL     1      77.591  33.758  -9.552  0.00  0.00    -0.029 A 
ATOM     35  C   UNL     1      76.728  33.675  -8.271  0.00  0.00    +0.045 C 
ENDROOT
BRANCH  10   9
ATOM      4  C   UNL     1      79.848  29.006  -7.408  0.00  0.00    +0.077 A 
ATOM      5  C   UNL     1      81.055  29.713  -7.090  0.00  0.00    +0.048 A 
ATOM      6  C   UNL     1      81.228  30.993  -7.661  0.00  0.00    +0.116 A 
ATOM      7  N   UNL     1      80.259  31.519  -8.488  0.00  0.00    -0.223 NA
ATOM      8  C   UNL     1      79.106  30.810  -8.776  0.00  0.00    +0.220 A 
ATOM      9  N   UNL     1      78.115  31.323  -9.598  0.00  0.00    -0.283 N 
ATOM     36  H   UNL     1      77.283  30.766  -9.792  0.00  0.00    +0.155 HD
ATOM     37  N   UNL     1      78.919  29.585  -8.243  0.00  0.00    -0.214 NA
BRANCH   4   3
ATOM      1  C   UNL     1      78.077  26.045  -5.565  0.00  0.00    +0.020 A 
ATOM      2  C   UNL     1      78.350  27.378  -6.051  0.00  0.00    +0.013 A 
ATOM      3  C   UNL     1      79.519  27.645  -6.879  0.00  0.00    +0.019 A 
ATOM     38  C   UNL     1      80.399  26.532  -7.201  0.00  0.00    +0.120 A 
ATOM     39  N   UNL     1      80.112  25.259  -6.719  0.00  0.00    -0.263 NA
ATOM     40  C   UNL     1      78.991  24.990  -5.919  0.00  0.00    +0.111 A 
ENDBRANCH   4   3
ENDBRANCH  10   9
BRANCH  12  13
ATOM     13  N   UNL     1      79.948  34.247 -13.181  0.00  0.00    -0.281 N 
ATOM     14  C   UNL     1      81.315  34.434 -13.299  0.00  0.00    +0.248 C 
ATOM     30  O   UNL     1      82.065  34.664 -12.362  0.00  0.00    -0.270 OA
ATOM     31  H   UNL     1      79.417  34.259 -14.052  0.00  0.00    +0.155 HD
BRANCH  14  15
ATOM     15  C   UNL     1      81.938  34.370 -14.656  0.00  0.00    +0.037 A 
ATOM     16  C   UNL     1      81.901  35.520 -15.565  0.00  0.00    +0.013 A 
ATOM     17  C   UNL     1      82.495  35.426 -16.875  0.00  0.00    +0.005 A 
ATOM     18  C   UNL     1      83.133  34.177 -17.284  0.00  0.00    -0.033 A 
ATOM     28  C   UNL     1      83.160  33.054 -16.361  0.00  0.00    +0.005 A 
ATOM     29  C   UNL     1      82.578  33.142 -15.077  0.00  0.00    +0.013 A 
BRANCH  18  19
ATOM     19  C   UNL     1      83.773  33.980 -18.671  0.00  0.00    +0.119 C 
BRANCH  19  20
ATOM     20  N   UNL     1      85.192  33.515 -18.709  0.00  0.00    -0.302 NA
ATOM     21  C   UNL     1      86.169  34.672 -18.938  0.00  0.00    +0.066 C 
ATOM     22  C   UNL     1      87.650  34.171 -18.953  0.00  0.00    -0.064 C 
ATOM     23  N   UNL     1      87.813  33.102 -20.035  0.00  0.00    +0.379 N 
ATOM     24  C   UNL     1      89.217  32.671 -20.091  0.00  0.00    -0.096 C 
ATOM     25  H   UNL     1      87.564  33.572 -21.015  0.00  0.00    -0.082 HD
ATOM     26  C   UNL     1      86.843  31.950 -19.816  0.00  0.00    -0.064 C 
ATOM     27  C   UNL     1      85.376  32.462 -19.774  0.00  0.00    +0.066 C 
ENDBRANCH  19  20
ENDBRANCH  18  19
ENDBRANCH  14  15
ENDBRANCH  12  13
TORSDOF 6
ENDMDL
MODEL 3
REMARK VINA RESULT:      -8.5      8.600     13.664
REMARK  Name = C:\Users\Docking\Desktop\test protocol\1iep_ligandH.pdb
REMARK  8 active torsions:
REMARK  status: ('A' for Active; 'I' for Inactive)
REMARK    1  A    between atoms: _5  and  _11
REMARK    2  A    between atoms: _19  and  _21
REMARK    3  A    between atoms: _22  and  _66
REMARK    4  A    between atoms: _27  and  _30
REMARK    5  A    between atoms: _32  and  _33
REMARK    6  A    between atoms: _38  and  _43
REMARK    7  A    between atoms: _43  and  _46
REMARK    8  A    between atoms: _53  and  _55
REMARK                            x       y       z     vdW  Elec       q    Type
REMARK                         _______ _______ _______ _____ _____    ______ ____
ROOT
ATOM     10  C   UNL     1      93.148  37.168 -10.115  0.00  0.00    +0.038 A 
ATOM     11  C   UNL     1      94.478  37.657 -10.164  0.00  0.00    +0.047 A 
ATOM     12  C   UNL     1      94.997  38.308 -11.357  0.00  0.00    +0.035 A 
ATOM     32  C   UNL     1      94.132  38.447 -12.482  0.00  0.00    +0.024 A 
ATOM     33  C   UNL     1      92.778  37.954 -12.450  0.00  0.00    +0.007 A 
ATOM     34  C   UNL     1      92.261  37.309 -11.276  0.00  0.00    -0.029 A 
ATOM     35  C   UNL     1      90.803  36.795 -11.301  0.00  0.00    +0.045 C 
ENDROOT
BRANCH  10   9
ATOM      4  C   UNL     1      93.411  33.729  -6.778  0.00  0.00    +0.077 A 
ATOM      5  C   UNL     1      94.514  33.091  -7.437  0.00  0.00    +0.048 A 
ATOM      6  C   UNL     1      94.979  33.676  -8.637  0.00  0.00    +0.116 A 
ATOM      7  N   UNL     1      94.378  34.814  -9.130  0.00  0.00    -0.223 NA
ATOM      8  C   UNL     1      93.315  35.403  -8.470  0.00  0.00    +0.220 A 
ATOM      9  N   UNL     1      92.701  36.552  -8.944  0.00  0.00    -0.283 N 
ATOM     36  H   UNL     1      91.915  36.952  -8.432  0.00  0.00    +0.155 HD
ATOM     37  N   UNL     1      92.852  34.863  -7.324  0.00  0.00    -0.214 NA
BRANCH   4   3
ATOM      1  C   UNL     1      92.708  31.641  -3.546  0.00  0.00    +0.020 A 
ATOM      2  C   UNL     1      93.326  32.079  -4.776  0.00  0.00    +0.013 A 
ATOM      3  C   UNL     1      92.809  33.233  -5.500  0.00  0.00    +0.019 A 
ATOM     38  C   UNL     1      91.656  33.928  -4.947  0.00  0.00    +0.120 A 
ATOM     39  N   UNL     1      91.081  33.483  -3.761  0.00  0.00    -0.263 NA
ATOM     40  C   UNL     1      91.569  32.372  -3.057  0.00  0.00    +0.111 A 
ENDBRANCH   4   3
ENDBRANCH  10   9
BRANCH  12  13
ATOM     13  N   UNL     1      96.342  38.818 -11.468  0.00  0.00    -0.281 N 
ATOM     14  C   UNL     1      96.756  40.139 -11.446  0.00  0.00    +0.248 C 
ATOM     30  O   UNL     1      96.007  41.100 -11.542  0.00  0.00    -0.270 OA
ATOM     31  H   UNL     1      97.077  38.119 -11.576  0.00  0.00    +0.155 HD
BRANCH  14  15
ATOM     15  C   UNL     1      98.215  40.436 -11.312  0.00  0.00    +0.037 A 
ATOM     16  C   UNL     1      98.838  41.536 -12.053  0.00  0.00    +0.013 A 
ATOM     17  C   UNL     1     100.250  41.790 -11.919  0.00  0.00    +0.005 A 
ATOM     18  C   UNL     1     101.050  40.942 -11.038  0.00  0.00    -0.033 A 
ATOM     28  C   UNL     1     100.406  39.861 -10.311  0.00  0.00    +0.005 A 
ATOM     29  C   UNL     1      99.021  39.609 -10.440  0.00  0.00    +0.013 A 
BRANCH  18  19
ATOM     19  C   UNL     1     102.567  41.127 -10.851  0.00  0.00    +0.119 C 
BRANCH  19  20
ATOM     20  N   UNL     1     103.352  39.936 -10.408  0.00  0.00    -0.302 NA
ATOM     21  C   UNL     1     104.271  40.260  -9.227  0.00  0.00    +0.066 C 
ATOM     22  C   UNL     1     105.067  38.998  -8.762  0.00  0.00    -0.064 C 
ATOM     23  N   UNL     1     105.873  38.444  -9.939  0.00  0.00    +0.379 N 
ATOM     24  C   UNL     1     106.668  37.292  -9.491  0.00  0.00    -0.096 C 
ATOM     25  H   UNL     1     106.583  39.239 -10.265  0.00  0.00    -0.082 HD
ATOM     26  C   UNL     1     104.967  38.122 -11.119  0.00  0.00    -0.064 C 
ATOM     27  C   UNL     1     104.158  39.376 -11.554  0.00  0.00    +0.066 C 
ENDBRANCH  19  20
ENDBRANCH  18  19
ENDBRANCH  14  15
ENDBRANCH  12  13
TORSDOF 6
ENDMDL
MODEL 4
REMARK VINA RESULT:      -8.5     31.426     36.085
REMARK  Name = C:\Users\Docking\Desktop\test protocol\1iep_ligandH.pdb
REMARK  8 active torsions:
REMARK  status: ('A' for Active; 'I' for Inactive)
REMARK    1  A    between atoms: _5  and  _11
REMARK    2  A    between atoms: _19  and  _21
REMARK    3  A    between atoms: _22  and  _66
REMARK    4  A    between atoms: _27  and  _30
REMARK    5  A    between atoms: _32  and  _33
REMARK    6  A    between atoms: _38  and  _43
REMARK    7  A    between atoms: _43  and  _46
REMARK    8  A    between atoms: _53  and  _55
REMARK                            x       y       z     vdW  Elec       q    Type
REMARK                         _______ _______ _______ _____ _____    ______ ____
ROOT
ATOM     10  C   UNL     1     113.745  34.881  10.231  0.00  0.00    +0.038 A 
ATOM     11  C   UNL     1     113.899  33.987  11.321  0.00  0.00    +0.047 A 
ATOM     12  C   UNL     1     113.502  34.367  12.668  0.00  0.00    +0.035 A 
ATOM     32  C   UNL     1     112.947  35.665  12.868  0.00  0.00    +0.024 A 
ATOM     33  C   UNL     1     112.784  36.587  11.771  0.00  0.00    +0.007 A 
ATOM     34  C   UNL     1     113.177  36.218  10.441  0.00  0.00    -0.029 A 
ATOM     35  C   UNL     1     112.985  37.249   9.304  0.00  0.00    +0.045 C 
ENDROOT
BRANCH  10   9
ATOM      4  C   UNL     1     113.462  31.917   6.467  0.00  0.00    +0.077 A 
ATOM      5  C   UNL     1     112.453  31.116   7.098  0.00  0.00    +0.048 A 
ATOM      6  C   UNL     1     112.040  31.496   8.395  0.00  0.00    +0.116 A 
ATOM      7  N   UNL     1     112.600  32.597   9.004  0.00  0.00    -0.223 NA
ATOM      8  C   UNL     1     113.572  33.348   8.368  0.00  0.00    +0.220 A 
ATOM      9  N   UNL     1     114.143  34.464   8.959  0.00  0.00    -0.283 N 
ATOM     36  H   UNL     1     114.863  34.986   8.460  0.00  0.00    +0.155 HD
ATOM     37  N   UNL     1     113.985  33.004   7.130  0.00  0.00    -0.214 NA
BRANCH   4   3
ATOM      1  C   UNL     1     114.321  32.230   2.663  0.00  0.00    +0.020 A 
ATOM      2  C   UNL     1     113.779  32.539   3.966  0.00  0.00    +0.013 A 
ATOM      3  C   UNL     1     114.000  31.645   5.096  0.00  0.00    +0.019 A 
ATOM     38  C   UNL     1     114.780  30.437   4.872  0.00  0.00    +0.120 A 
ATOM     39  N   UNL     1     115.289  30.165   3.606  0.00  0.00    -0.263 NA
ATOM     40  C   UNL     1     115.081  31.017   2.511  0.00  0.00    +0.111 A 
ENDBRANCH   4   3
ENDBRANCH  10   9
BRANCH  12  13
ATOM     13  N   UNL     1     113.642  33.505  13.815  0.00  0.00    -0.281 N 
ATOM     14  C   UNL     1     112.747  33.321  14.856  0.00  0.00    +0.248 C 
ATOM     30  O   UNL     1     111.778  34.034  15.069  0.00  0.00    -0.270 OA
ATOM     31  H   UNL     1     114.506  32.965  13.866  0.00  0.00    +0.155 HD
BRANCH  14  15
ATOM     15  C   UNL     1     112.969  32.189  15.807  0.00  0.00    +0.037 A 
ATOM     16  C   UNL     1     114.317  31.808  16.234  0.00  0.00    +0.013 A 
ATOM     17  C   UNL     1     114.504  30.701  17.138  0.00  0.00    +0.005 A 
ATOM     18  C   UNL     1     113.338  29.969  17.624  0.00  0.00    -0.033 A 
ATOM     28  C   UNL     1     112.011  30.371  17.189  0.00  0.00    +0.005 A 
ATOM     29  C   UNL     1     111.824  31.455  16.302  0.00  0.00    +0.013 A 
BRANCH  18  19
ATOM     19  C   UNL     1     113.444  28.762  18.575  0.00  0.00    +0.119 C 
BRANCH  19  20
ATOM     20  N   UNL     1     112.907  27.457  18.087  0.00  0.00    -0.302 NA
ATOM     21  C   UNL     1     112.856  26.405  19.198  0.00  0.00    +0.066 C 
ATOM     22  C   UNL     1     112.271  25.052  18.675  0.00  0.00    -0.064 C 
ATOM     23  N   UNL     1     113.113  24.557  17.498  0.00  0.00    +0.379 N 
ATOM     24  C   UNL     1     112.600  23.257  17.041  0.00  0.00    -0.096 C 
ATOM     25  H   UNL     1     114.152  24.399  17.869  0.00  0.00    -0.082 HD
ATOM     26  C   UNL     1     113.171  25.598  16.390  0.00  0.00    -0.064 C 
ATOM     27  C   UNL     1     113.727  26.947  16.927  0.00  0.00    +0.066 C 
ENDBRANCH  19  20
ENDBRANCH  18  19
ENDBRANCH  14  15
ENDBRANCH  12  13
TORSDOF 6
ENDMDL
MODEL 5
REMARK VINA RESULT:      -8.4      8.635     13.305
REMARK  Name = C:\Users\Docking\Desktop\test protocol\1iep_ligandH.pdb
REMARK  8 active torsions:
REMARK  status: ('A' for Active; 'I' for Inactive)
REMARK    1  A    between atoms: _5  and  _11
REMARK    2  A    between atoms: _19  and  _21
REMARK    3  A    between atoms: _22  and  _66
REMARK    4  A    between atoms: _27  and  _30
REMARK    5  A    between atoms: _32  and  _33
REMARK    6  A    between atoms: _38  and  _43
REMARK    7  A    between atoms: _43  and  _46
REMARK    8  A    between atoms: _53  and  _55
REMARK                            x       y       z     vdW  Elec       q    Type
REMARK                         _______ _______ _______ _____ _____    ______ ____
ROOT
ATOM     10  C   UNL     1      81.062  32.376 -10.174  0.00  0.00    +0.038 A 
ATOM     11  C   UNL     1      81.799  32.201 -11.373  0.00  0.00    +0.047 A 
ATOM     12  C   UNL     1      81.955  33.288 -12.326  0.00  0.00    +0.035 A 
ATOM     32  C   UNL     1      81.350  34.543 -12.024  0.00  0.00    +0.024 A 
ATOM     33  C   UNL     1      80.597  34.739 -10.811  0.00  0.00    +0.007 A 
ATOM     34  C   UNL     1      80.437  33.668  -9.868  0.00  0.00    -0.029 A 
ATOM     35  C   UNL     1      79.613  33.933  -8.586  0.00  0.00    +0.045 C 
ENDROOT
BRANCH  10   9
ATOM      4  C   UNL     1      78.873  28.392  -8.633  0.00  0.00    +0.077 A 
ATOM      5  C   UNL     1      77.864  28.482  -9.649  0.00  0.00    +0.048 A 
ATOM      6  C   UNL     1      77.940  29.573 -10.544  0.00  0.00    +0.116 A 
ATOM      7  N   UNL     1      78.954  30.498 -10.423  0.00  0.00    -0.223 NA
ATOM      8  C   UNL     1      79.910  30.383  -9.431  0.00  0.00    +0.220 A 
ATOM      9  N   UNL     1      80.943  31.297  -9.295  0.00  0.00    -0.283 N 
ATOM     36  H   UNL     1      81.624  31.181  -8.545  0.00  0.00    +0.155 HD
ATOM     37  N   UNL     1      79.858  29.351  -8.562  0.00  0.00    -0.214 NA
BRANCH   4   3
ATOM      1  C   UNL     1      78.027  26.056  -5.612  0.00  0.00    +0.020 A 
ATOM      2  C   UNL     1      77.926  27.132  -6.571  0.00  0.00    +0.013 A 
ATOM      3  C   UNL     1      78.929  27.296  -7.615  0.00  0.00    +0.019 A 
ATOM     38  C   UNL     1      80.030  26.345  -7.663  0.00  0.00    +0.120 A 
ATOM     39  N   UNL     1      80.102  25.320  -6.725  0.00  0.00    -0.263 NA
ATOM     40  C   UNL     1      79.143  25.153  -5.715  0.00  0.00    +0.111 A 
ENDBRANCH   4   3
ENDBRANCH  10   9
BRANCH  12  13
ATOM     13  N   UNL     1      82.685  33.167 -13.564  0.00  0.00    -0.281 N 
ATOM     14  C   UNL     1      82.278  32.553 -14.736  0.00  0.00    +0.248 C 
ATOM     30  O   UNL     1      81.301  31.824 -14.831  0.00  0.00    -0.270 OA
ATOM     31  H   UNL     1      83.616  33.585 -13.577  0.00  0.00    +0.155 HD
BRANCH  14  15
ATOM     15  C   UNL     1      83.078  32.767 -15.980  0.00  0.00    +0.037 A 
ATOM     16  C   UNL     1      82.756  33.851 -16.913  0.00  0.00    +0.013 A 
ATOM     17  C   UNL     1      83.534  34.025 -18.114  0.00  0.00    +0.005 A 
ATOM     18  C   UNL     1      84.642  33.114 -18.388  0.00  0.00    -0.033 A 
ATOM     28  C   UNL     1      84.943  32.051 -17.443  0.00  0.00    +0.005 A 
ATOM     29  C   UNL     1      84.182  31.876 -16.266  0.00  0.00    +0.013 A 
BRANCH  18  19
ATOM     19  C   UNL     1      85.512  33.212 -19.656  0.00  0.00    +0.119 C 
BRANCH  19  20
ATOM     20  N   UNL     1      86.584  32.187 -19.831  0.00  0.00    -0.302 NA
ATOM     21  C   UNL     1      87.957  32.825 -20.062  0.00  0.00    +0.066 C 
ATOM     22  C   UNL     1      89.069  31.738 -20.221  0.00  0.00    -0.064 C 
ATOM     23  N   UNL     1      88.705  30.804 -21.376  0.00  0.00    +0.379 N 
ATOM     24  C   UNL     1      89.777  29.816 -21.566  0.00  0.00    -0.096 C 
ATOM     25  H   UNL     1      88.645  31.420 -22.303  0.00  0.00    -0.082 HD
ATOM     26  C   UNL     1      87.340  30.168 -21.156  0.00  0.00    -0.064 C 
ATOM     27  C   UNL     1      86.246  31.256 -20.970  0.00  0.00    +0.066 C 
ENDBRANCH  19  20
ENDBRANCH  18  19
ENDBRANCH  14  15
ENDBRANCH  12  13
TORSDOF 6
ENDMDL
