MODEL 1
REMARK VINA RESULT:     -11.1      0.000      0.000
REMARK  Name = C:\Users\Docking\Desktop\test protocol\1iep_ligandH.pdb
REMARK  8 active torsions:
REMARK  status: ('A' for Active; 'I' for Inactive)
REMARK    1  A    between atoms: _5  and  _11
REMARK    2  A    between atoms: _19  and  _21
REMARK    3  A    between atoms: _22  and  _66
REMARK    4  A    between atoms: _27  and  _30
REMARK    5  A    between atoms: _32  and  _33
REMARK    6  A    between atoms: _38  and  _43
REMARK    7  A    between atoms: _43  and  _46
REMARK    8  A    between atoms: _53  and  _55
REMARK                            x       y       z     vdW  Elec       q    Type
REMARK                         _______ _______ _______ _____ _____    ______ ____
ROOT
ATOM     10  C   UNL     1      94.131  33.538  -3.985  0.00  0.00    +0.038 A 
ATOM     11  C   UNL     1      95.461  33.995  -4.168  0.00  0.00    +0.047 A 
ATOM     12  C   UNL     1      96.291  33.481  -5.246  0.00  0.00    +0.035 A 
ATOM     32  C   UNL     1      95.734  32.504  -6.121  0.00  0.00    +0.024 A 
ATOM     33  C   UNL     1      94.383  32.028  -5.949  0.00  0.00    +0.007 A 
ATOM     34  C   UNL     1      93.561  32.529  -4.886  0.00  0.00    -0.029 A 
ATOM     35  C   UNL     1      92.122  31.978  -4.745  0.00  0.00    +0.045 C 
ENDROOT
BRANCH  10   9
ATOM      4  C   UNL     1      92.132  37.218  -1.640  0.00  0.00    +0.077 A 
ATOM      5  C   UNL     1      92.653  38.174  -2.575  0.00  0.00    +0.048 A 
ATOM      6  C   UNL     1      93.437  37.678  -3.640  0.00  0.00    +0.116 A 
ATOM      7  N   UNL     1      93.675  36.325  -3.754  0.00  0.00    -0.223 NA
ATOM      8  C   UNL     1      93.158  35.431  -2.834  0.00  0.00    +0.220 A 
ATOM      9  N   UNL     1      93.378  34.066  -2.933  0.00  0.00    -0.283 N 
ATOM     36  H   UNL     1      92.986  33.440  -2.230  0.00  0.00    +0.155 HD
ATOM     37  N   UNL     1      92.408  35.880  -1.807  0.00  0.00    -0.214 NA
BRANCH   4   3
ATOM      1  C   UNL     1      90.355  39.251   1.190  0.00  0.00    +0.020 A 
ATOM      2  C   UNL     1      91.189  38.948   0.050  0.00  0.00    +0.013 A 
ATOM      3  C   UNL     1      91.283  37.587  -0.463  0.00  0.00    +0.019 A 
ATOM     38  C   UNL     1      90.514  36.548   0.205  0.00  0.00    +0.120 A 
ATOM     39  N   UNL     1      89.720  36.869   1.301  0.00  0.00    -0.263 NA
ATOM     40  C   UNL     1      89.623  38.175   1.805  0.00  0.00    +0.111 A 
ENDBRANCH   4   3
ENDBRANCH  10   9
BRANCH  12  13
ATOM     13  N   UNL     1      97.651  33.901  -5.476  0.00  0.00    -0.281 N 
ATOM     14  C   UNL     1      98.362  33.871  -6.664  0.00  0.00    +0.248 C 
ATOM     30  O   UNL     1      98.003  33.277  -7.670  0.00  0.00    -0.270 OA
ATOM     31  H   UNL     1      98.151  34.264  -4.664  0.00  0.00    +0.155 HD
BRANCH  14  15
ATOM     15  C   UNL     1      99.668  34.595  -6.743  0.00  0.00    +0.037 A 
ATOM     16  C   UNL     1     100.371  35.028  -5.532  0.00  0.00    +0.013 A 
ATOM     17  C   UNL     1     101.620  35.739  -5.637  0.00  0.00    +0.005 A 
ATOM     18  C   UNL     1     102.176  36.020  -6.958  0.00  0.00    -0.033 A 
ATOM     28  C   UNL     1     101.461  35.574  -8.143  0.00  0.00    +0.005 A 
ATOM     29  C   UNL     1     100.235  34.878  -8.044  0.00  0.00    +0.013 A 
BRANCH  18  19
ATOM     19  C   UNL     1     103.493  36.791  -7.165  0.00  0.00    +0.119 C 
BRANCH  19  20
ATOM     20  N   UNL     1     103.583  37.682  -8.360  0.00  0.00    -0.302 NA
ATOM     21  C   UNL     1     105.030  38.071  -8.679  0.00  0.00    +0.066 C 
ATOM     22  C   UNL     1     105.107  38.985  -9.945  0.00  0.00    -0.064 C 
ATOM     23  N   UNL     1     104.248  40.231  -9.725  0.00  0.00    +0.379 N 
ATOM     24  C   UNL     1     104.365  41.120 -10.890  0.00  0.00    -0.096 C 
ATOM     25  H   UNL     1     104.660  40.774  -8.842  0.00  0.00    -0.082 HD
ATOM     26  C   UNL     1     102.809  39.854  -9.404  0.00  0.00    -0.064 C 
ATOM     27  C   UNL     1     102.745  38.922  -8.162  0.00  0.00    +0.066 C 
ENDBRANCH  19  20
ENDBRANCH  18  19
ENDBRANCH  14  15
ENDBRANCH  12  13
TORSDOF 6
ENDMDL
MODEL 2
REMARK VINA RESULT:      -9.8      4.148      4.886
REMARK  Name = C:\Users\Docking\Desktop\test protocol\1iep_ligandH.pdb
REMARK  8 active torsions:
REMARK  status: ('A' for Active; 'I' for Inactive)
REMARK    1  A    between atoms: _5  and  _11
REMARK    2  A    between atoms: _19  and  _21
REMARK    3  A    between atoms: _22  and  _66
REMARK    4  A    between atoms: _27  and  _30
REMARK    5  A    between atoms: _32  and  _33
REMARK    6  A    between atoms: _38  and  _43
REMARK    7  A    between atoms: _43  and  _46
REMARK    8  A    between atoms: _53  and  _55
REMARK                            x       y       z     vdW  Elec       q    Type
REMARK                         _______ _______ _______ _____ _____    ______ ____
ROOT
ATOM     10  C   UNL     1      92.930  34.724  -6.185  0.00  0.00    +0.038 A 
ATOM     11  C   UNL     1      93.552  35.725  -6.973  0.00  0.00    +0.047 A 
ATOM     12  C   UNL     1      94.327  35.379  -8.155  0.00  0.00    +0.035 A 
ATOM     32  C   UNL     1      94.445  34.003  -8.506  0.00  0.00    +0.024 A 
ATOM     33  C   UNL     1      93.819  32.972  -7.715  0.00  0.00    +0.007 A 
ATOM     34  C   UNL     1      93.056  33.308  -6.547  0.00  0.00    -0.029 A 
ATOM     35  C   UNL     1      92.413  32.161  -5.733  0.00  0.00    +0.045 C 
ENDROOT
BRANCH  10   9
ATOM      4  C   UNL     1      92.600  36.712  -1.828  0.00  0.00    +0.077 A 
ATOM      5  C   UNL     1      94.009  36.974  -1.776  0.00  0.00    +0.048 A 
ATOM      6  C   UNL     1      94.785  36.574  -2.888  0.00  0.00    +0.116 A 
ATOM      7  N   UNL     1      94.185  35.961  -3.966  0.00  0.00    -0.223 NA
ATOM      8  C   UNL     1      92.823  35.722  -3.983  0.00  0.00    +0.220 A 
ATOM      9  N   UNL     1      92.198  35.113  -5.061  0.00  0.00    -0.283 N 
ATOM     36  H   UNL     1      91.192  34.948  -5.032  0.00  0.00    +0.155 HD
ATOM     37  N   UNL     1      92.061  36.092  -2.934  0.00  0.00    -0.214 NA
BRANCH   4   3
ATOM      1  C   UNL     1      89.928  36.499   1.021  0.00  0.00    +0.020 A 
ATOM      2  C   UNL     1      90.833  36.094  -0.030  0.00  0.00    +0.013 A 
ATOM      3  C   UNL     1      91.647  37.077  -0.733  0.00  0.00    +0.019 A 
ATOM     38  C   UNL     1      91.522  38.474  -0.344  0.00  0.00    +0.120 A 
ATOM     39  N   UNL     1      90.641  38.835   0.671  0.00  0.00    -0.263 NA
ATOM     40  C   UNL     1      89.851  37.897   1.353  0.00  0.00    +0.111 A 
ENDBRANCH   4   3
ENDBRANCH  10   9
BRANCH  12  13
ATOM     13  N   UNL     1      94.988  36.352  -8.989  0.00  0.00    -0.281 N 
ATOM     14  C   UNL     1      94.418  37.199  -9.925  0.00  0.00    +0.248 C 
ATOM     30  O   UNL     1      93.274  37.099 -10.342  0.00  0.00    -0.270 OA
ATOM     31  H   UNL     1      96.000  36.424  -8.876  0.00  0.00    +0.155 HD
BRANCH  14  15
ATOM     15  C   UNL     1      95.243  38.309 -10.491  0.00  0.00    +0.037 A 
ATOM     16  C   UNL     1      94.624  39.428 -11.206  0.00  0.00    +0.013 A 
ATOM     17  C   UNL     1      95.444  40.478 -11.756  0.00  0.00    +0.005 A 
ATOM     18  C   UNL     1      96.895  40.413 -11.593  0.00  0.00    -0.033 A 
ATOM     28  C   UNL     1      97.483  39.294 -10.876  0.00  0.00    +0.005 A 
ATOM     29  C   UNL     1      96.682  38.263 -10.335  0.00  0.00    +0.013 A 
BRANCH  18  19
ATOM     19  C   UNL     1      97.849  41.478 -12.166  0.00  0.00    +0.119 C 
BRANCH  19  20
ATOM     20  N   UNL     1      99.258  41.061 -12.431  0.00  0.00    -0.302 NA
ATOM     21  C   UNL     1     100.259  42.169 -12.089  0.00  0.00    +0.066 C 
ATOM     22  C   UNL     1     101.730  41.708 -12.351  0.00  0.00    -0.064 C 
ATOM     23  N   UNL     1     101.874  41.280 -13.812  0.00  0.00    +0.379 N 
ATOM     24  C   UNL     1     103.270  40.901 -14.076  0.00  0.00    -0.096 C 
ATOM     25  H   UNL     1     101.638  42.164 -14.448  0.00  0.00    -0.082 HD
ATOM     26  C   UNL     1     100.881  40.181 -14.162  0.00  0.00    -0.064 C 
ATOM     27  C   UNL     1      99.425  40.638 -13.870  0.00  0.00    +0.066 C 
ENDBRANCH  19  20
ENDBRANCH  18  19
ENDBRANCH  14  15
ENDBRANCH  12  13
TORSDOF 6
ENDMDL
MODEL 3
REMARK VINA RESULT:      -9.2     16.390     18.636
REMARK  Name = C:\Users\Docking\Desktop\test protocol\1iep_ligandH.pdb
REMARK  8 active torsions:
REMARK  status: ('A' for Active; 'I' for Inactive)
REMARK    1  A    between atoms: _5  and  _11
REMARK    2  A    between atoms: _19  and  _21
REMARK    3  A    between atoms: _22  and  _66
REMARK    4  A    between atoms: _27  and  _30
REMARK    5  A    between atoms: _32  and  _33
REMARK    6  A    between atoms: _38  and  _43
REMARK    7  A    between atoms: _43  and  _46
REMARK    8  A    between atoms: _53  and  _55
REMARK                            x       y       z     vdW  Elec       q    Type
REMARK                         _______ _______ _______ _____ _____    ______ ____
ROOT
ATOM     10  C   UNL     1      78.095  32.760 -10.108  0.00  0.00    +0.038 A 
ATOM     11  C   UNL     1      78.889  32.871 -11.278  0.00  0.00    +0.047 A 
ATOM     12  C   UNL     1      79.083  34.154 -11.936  0.00  0.00    +0.035 A 
ATOM     32  C   UNL     1      78.455  35.303 -11.374  0.00  0.00    +0.024 A 
ATOM     33  C   UNL     1      77.644  35.208 -10.186  0.00  0.00    +0.007 A 
ATOM     34  C   UNL     1      77.447  33.945  -9.533  0.00  0.00    -0.029 A 
ATOM     35  C   UNL     1      76.562  33.901  -8.266  0.00  0.00    +0.045 C 
ENDROOT
BRANCH  10   9
ATOM      4  C   UNL     1      79.780  29.028  -7.603  0.00  0.00    +0.077 A 
ATOM      5  C   UNL     1      81.082  29.619  -7.486  0.00  0.00    +0.048 A 
ATOM      6  C   UNL     1      81.279  30.881  -8.090  0.00  0.00    +0.116 A 
ATOM      7  N   UNL     1      80.243  31.497  -8.759  0.00  0.00    -0.223 NA
ATOM      8  C   UNL     1      79.000  30.899  -8.855  0.00  0.00    +0.220 A 
ATOM      9  N   UNL     1      77.943  31.504  -9.517  0.00  0.00    -0.283 N 
ATOM     36  H   UNL     1      77.043  31.026  -9.572  0.00  0.00    +0.155 HD
ATOM     37  N   UNL     1      78.788  29.693  -8.288  0.00  0.00    -0.214 NA
BRANCH   4   3
ATOM      1  C   UNL     1      77.832  26.144  -5.819  0.00  0.00    +0.020 A 
ATOM      2  C   UNL     1      78.134  27.444  -6.370  0.00  0.00    +0.013 A 
ATOM      3  C   UNL     1      79.416  27.700  -7.016  0.00  0.00    +0.019 A 
ATOM     38  C   UNL     1      80.376  26.609  -7.089  0.00  0.00    +0.120 A 
ATOM     39  N   UNL     1      80.057  25.368  -6.548  0.00  0.00    -0.263 NA
ATOM     40  C   UNL     1      78.828  25.110  -5.923  0.00  0.00    +0.111 A 
ENDBRANCH   4   3
ENDBRANCH  10   9
BRANCH  12  13
ATOM     13  N   UNL     1      79.871  34.327 -13.131  0.00  0.00    -0.281 N 
ATOM     14  C   UNL     1      81.246  34.458 -13.233  0.00  0.00    +0.248 C 
ATOM     30  O   UNL     1      81.993  34.662 -12.287  0.00  0.00    -0.270 OA
ATOM     31  H   UNL     1      79.352  34.356 -14.009  0.00  0.00    +0.155 HD
BRANCH  14  15
ATOM     15  C   UNL     1      81.883  34.364 -14.581  0.00  0.00    +0.037 A 
ATOM     16  C   UNL     1      82.528  33.128 -15.033  0.00  0.00    +0.013 A 
ATOM     17  C   UNL     1      83.150  33.070 -16.332  0.00  0.00    +0.005 A 
ATOM     18  C   UNL     1      83.128  34.252 -17.190  0.00  0.00    -0.033 A 
ATOM     28  C   UNL     1      82.477  35.463 -16.719  0.00  0.00    +0.005 A 
ATOM     29  C   UNL     1      81.868  35.525 -15.446  0.00  0.00    +0.013 A 
BRANCH  18  19
ATOM     19  C   UNL     1      83.785  34.286 -18.583  0.00  0.00    +0.119 C 
BRANCH  19  20
ATOM     20  N   UNL     1      85.244  33.977 -18.659  0.00  0.00    -0.302 NA
ATOM     21  C   UNL     1      86.074  35.210 -19.027  0.00  0.00    +0.066 C 
ATOM     22  C   UNL     1      87.600  34.873 -19.080  0.00  0.00    -0.064 C 
ATOM     23  N   UNL     1      87.836  33.742 -20.082  0.00  0.00    +0.379 N 
ATOM     24  C   UNL     1      89.276  33.463 -20.177  0.00  0.00    -0.096 C 
ATOM     25  H   UNL     1      87.494  34.099 -21.081  0.00  0.00    -0.082 HD
ATOM     26  C   UNL     1      87.012  32.513 -19.725  0.00  0.00    -0.064 C 
ATOM     27  C   UNL     1      85.500  32.865 -19.646  0.00  0.00    +0.066 C 
ENDBRANCH  19  20
ENDBRANCH  18  19
ENDBRANCH  14  15
ENDBRANCH  12  13
TORSDOF 6
ENDMDL
MODEL 4
REMARK VINA RESULT:      -9.1     22.685     26.555
REMARK  Name = C:\Users\Docking\Desktop\test protocol\1iep_ligandH.pdb
REMARK  8 active torsions:
REMARK  status: ('A' for Active; 'I' for Inactive)
REMARK    1  A    between atoms: _5  and  _11
REMARK    2  A    between atoms: _19  and  _21
REMARK    3  A    between atoms: _22  and  _66
REMARK    4  A    between atoms: _27  and  _30
REMARK    5  A    between atoms: _32  and  _33
REMARK    6  A    between atoms: _38  and  _43
REMARK    7  A    between atoms: _43  and  _46
REMARK    8  A    between atoms: _53  and  _55
REMARK                            x       y       z     vdW  Elec       q    Type
REMARK                         _______ _______ _______ _____ _____    ______ ____
ROOT
ATOM     10  C   UNL     1     113.680  34.935  10.006  0.00  0.00    +0.038 A 
ATOM     11  C   UNL     1     113.868  34.038  11.088  0.00  0.00    +0.047 A 
ATOM     12  C   UNL     1     113.474  34.399  12.441  0.00  0.00    +0.035 A 
ATOM     32  C   UNL     1     112.888  35.680  12.655  0.00  0.00    +0.024 A 
ATOM     33  C   UNL     1     112.690  36.605  11.566  0.00  0.00    +0.007 A 
ATOM     34  C   UNL     1     113.079  36.256  10.230  0.00  0.00    -0.029 A 
ATOM     35  C   UNL     1     112.850  37.288   9.102  0.00  0.00    +0.045 C 
ENDROOT
BRANCH  10   9
ATOM      4  C   UNL     1     113.503  31.940   6.259  0.00  0.00    +0.077 A 
ATOM      5  C   UNL     1     112.560  31.081   6.915  0.00  0.00    +0.048 A 
ATOM      6  C   UNL     1     112.151  31.441   8.219  0.00  0.00    +0.116 A 
ATOM      7  N   UNL     1     112.654  32.579   8.812  0.00  0.00    -0.223 NA
ATOM      8  C   UNL     1     113.564  33.385   8.152  0.00  0.00    +0.220 A 
ATOM      9  N   UNL     1     114.077  34.537   8.727  0.00  0.00    -0.283 N 
ATOM     36  H   UNL     1     114.752  35.101   8.210  0.00  0.00    +0.155 HD
ATOM     37  N   UNL     1     113.971  33.061   6.907  0.00  0.00    -0.214 NA
BRANCH   4   3
ATOM      1  C   UNL     1     114.289  32.305   2.445  0.00  0.00    +0.020 A 
ATOM      2  C   UNL     1     113.758  32.587   3.758  0.00  0.00    +0.013 A 
ATOM      3  C   UNL     1     114.028  31.695   4.879  0.00  0.00    +0.019 A 
ATOM     38  C   UNL     1     114.847  30.517   4.635  0.00  0.00    +0.120 A 
ATOM     39  N   UNL     1     115.344  30.270   3.359  0.00  0.00    -0.263 NA
ATOM     40  C   UNL     1     115.089  31.121   2.273  0.00  0.00    +0.111 A 
ENDBRANCH   4   3
ENDBRANCH  10   9
BRANCH  12  13
ATOM     13  N   UNL     1     113.648  33.533  13.581  0.00  0.00    -0.281 N 
ATOM     14  C   UNL     1     112.833  33.419  14.696  0.00  0.00    +0.248 C 
ATOM     30  O   UNL     1     111.940  34.202  14.982  0.00  0.00    -0.270 OA
ATOM     31  H   UNL     1     114.472  32.932  13.564  0.00  0.00    +0.155 HD
BRANCH  14  15
ATOM     15  C   UNL     1     113.052  32.277  15.636  0.00  0.00    +0.037 A 
ATOM     16  C   UNL     1     114.378  31.992  16.189  0.00  0.00    +0.013 A 
ATOM     17  C   UNL     1     114.565  30.874  17.080  0.00  0.00    +0.005 A 
ATOM     18  C   UNL     1     113.420  30.034  17.425  0.00  0.00    -0.033 A 
ATOM     28  C   UNL     1     112.115  30.344  16.866  0.00  0.00    +0.005 A 
ATOM     29  C   UNL     1     111.928  31.437  15.991  0.00  0.00    +0.013 A 
BRANCH  18  19
ATOM     19  C   UNL     1     113.531  28.809  18.351  0.00  0.00    +0.119 C 
BRANCH  19  20
ATOM     20  N   UNL     1     113.015  27.508  17.829  0.00  0.00    -0.302 NA
ATOM     21  C   UNL     1     112.599  26.561  18.958  0.00  0.00    +0.066 C 
ATOM     22  C   UNL     1     112.040  25.214  18.394  0.00  0.00    -0.064 C 
ATOM     23  N   UNL     1     113.097  24.561  17.500  0.00  0.00    +0.379 N 
ATOM     24  C   UNL     1     112.597  23.267  17.015  0.00  0.00    -0.096 C 
ATOM     25  H   UNL     1     113.995  24.362  18.130  0.00  0.00    -0.082 HD
ATOM     26  C   UNL     1     113.518  25.498  16.377  0.00  0.00    -0.064 C 
ATOM     27  C   UNL     1     114.044  26.844  16.948  0.00  0.00    +0.066 C 
ENDBRANCH  19  20
ENDBRANCH  18  19
ENDBRANCH  14  15
ENDBRANCH  12  13
TORSDOF 6
ENDMDL
MODEL 5
REMARK VINA RESULT:      -9.0     19.023     23.379
REMARK  Name = C:\Users\Docking\Desktop\test protocol\1iep_ligandH.pdb
REMARK  8 active torsions:
REMARK  status: ('A' for Active; 'I' for Inactive)
REMARK    1  A    between atoms: _5  and  _11
REMARK    2  A    between atoms: _19  and  _21
REMARK    3  A    between atoms: _22  and  _66
REMARK    4  A    between atoms: _27  and  _30
REMARK    5  A    between atoms: _32  and  _33
REMARK    6  A    between atoms: _38  and  _43
REMARK    7  A    between atoms: _43  and  _46
REMARK    8  A    between atoms: _53  and  _55
REMARK                            x       y       z     vdW  Elec       q    Type
REMARK                         _______ _______ _______ _____ _____    ______ ____
ROOT
ATOM     10  C   UNL     1      76.887  40.594 -11.670  0.00  0.00    +0.038 A 
ATOM     11  C   UNL     1      77.105  39.246 -11.286  0.00  0.00    +0.047 A 
ATOM     12  C   UNL     1      77.262  38.878  -9.888  0.00  0.00    +0.035 A 
ATOM     32  C   UNL     1      77.189  39.909  -8.906  0.00  0.00    +0.024 A 
ATOM     33  C   UNL     1      76.970  41.284  -9.278  0.00  0.00    +0.007 A 
ATOM     34  C   UNL     1      76.817  41.654 -10.656  0.00  0.00    -0.029 A 
ATOM     35  C   UNL     1      76.590  43.145 -10.998  0.00  0.00    +0.045 C 
ENDROOT
BRANCH  10   9
ATOM      4  C   UNL     1      74.271  40.893 -15.683  0.00  0.00    +0.077 A 
ATOM      5  C   UNL     1      73.099  40.390 -15.027  0.00  0.00    +0.048 A 
ATOM      6  C   UNL     1      73.213  40.059 -13.658  0.00  0.00    +0.116 A 
ATOM      7  N   UNL     1      74.415  40.224 -13.004  0.00  0.00    -0.223 NA
ATOM      8  C   UNL     1      75.526  40.710 -13.667  0.00  0.00    +0.220 A 
ATOM      9  N   UNL     1      76.743  40.891 -13.027  0.00  0.00    -0.283 N 
ATOM     36  H   UNL     1      77.541  41.246 -13.553  0.00  0.00    +0.155 HD
ATOM     37  N   UNL     1      75.443  41.032 -14.975  0.00  0.00    -0.214 NA
BRANCH   4   3
ATOM      1  C   UNL     1      75.496  41.605 -19.329  0.00  0.00    +0.020 A 
ATOM      2  C   UNL     1      75.514  41.210 -17.939  0.00  0.00    +0.013 A 
ATOM      3  C   UNL     1      74.307  41.290 -17.126  0.00  0.00    +0.019 A 
ATOM     38  C   UNL     1      73.089  41.777 -17.755  0.00  0.00    +0.120 A 
ATOM     39  N   UNL     1      73.102  42.152 -19.094  0.00  0.00    -0.263 NA
ATOM     40  C   UNL     1      74.258  42.081 -19.886  0.00  0.00    +0.111 A 
ENDBRANCH   4   3
ENDBRANCH  10   9
BRANCH  12  13
ATOM     13  N   UNL     1      77.493  37.528  -9.439  0.00  0.00    -0.281 N 
ATOM     14  C   UNL     1      77.547  36.374 -10.203  0.00  0.00    +0.248 C 
ATOM     30  O   UNL     1      77.192  36.300 -11.370  0.00  0.00    -0.270 OA
ATOM     31  H   UNL     1      77.633  37.408  -8.436  0.00  0.00    +0.155 HD
BRANCH  14  15
ATOM     15  C   UNL     1      78.057  35.116  -9.577  0.00  0.00    +0.037 A 
ATOM     16  C   UNL     1      77.165  34.220  -8.836  0.00  0.00    +0.013 A 
ATOM     17  C   UNL     1      77.686  33.022  -8.227  0.00  0.00    +0.005 A 
ATOM     18  C   UNL     1      79.108  32.712  -8.358  0.00  0.00    -0.033 A 
ATOM     28  C   UNL     1      79.969  33.616  -9.103  0.00  0.00    +0.005 A 
ATOM     29  C   UNL     1      79.462  34.791  -9.700  0.00  0.00    +0.013 A 
BRANCH  18  19
ATOM     19  C   UNL     1      79.754  31.467  -7.723  0.00  0.00    +0.119 C 
BRANCH  19  20
ATOM     20  N   UNL     1      79.457  30.146  -8.353  0.00  0.00    -0.302 NA
ATOM     21  C   UNL     1      78.914  29.135  -7.339  0.00  0.00    +0.066 C 
ATOM     22  C   UNL     1      78.587  27.766  -8.019  0.00  0.00    -0.064 C 
ATOM     23  N   UNL     1      79.845  27.226  -8.702  0.00  0.00    +0.379 N 
ATOM     24  C   UNL     1      79.556  25.911  -9.293  0.00  0.00    -0.096 C 
ATOM     25  H   UNL     1      80.621  27.080  -7.915  0.00  0.00    -0.082 HD
ATOM     26  C   UNL     1      80.393  28.226  -9.710  0.00  0.00    -0.064 C 
ATOM     27  C   UNL     1      80.687  29.592  -9.030  0.00  0.00    +0.066 C 
ENDBRANCH  19  20
ENDBRANCH  18  19
ENDBRANCH  14  15
ENDBRANCH  12  13
TORSDOF 6
ENDMDL
