MODEL 1
REMARK VINA RESULT:     -11.1      0.000      0.000
REMARK  Name = C:\Users\Docking\Desktop\test protocol\1iep_ligandH.pdb
REMARK  8 active torsions:
REMARK  status: ('A' for Active; 'I' for Inactive)
REMARK    1  A    between atoms: _5  and  _11
REMARK    2  A    between atoms: _19  and  _21
REMARK    3  A    between atoms: _22  and  _66
REMARK    4  A    between atoms: _27  and  _30
REMARK    5  A    between atoms: _32  and  _33
REMARK    6  A    between atoms: _38  and  _43
REMARK    7  A    between atoms: _43  and  _46
REMARK    8  A    between atoms: _53  and  _55
REMARK                            x       y       z     vdW  Elec       q    Type
REMARK                         _______ _______ _______ _____ _____    ______ ____
ROOT
ATOM     10  C   UNL     1      94.111  33.552  -3.935  0.00  0.00    +0.038 A 
ATOM     11  C   UNL     1      95.436  34.020  -4.125  0.00  0.00    +0.047 A 
ATOM     12  C   UNL     1      96.266  33.511  -5.207  0.00  0.00    +0.035 A 
ATOM     32  C   UNL     1      95.712  32.529  -6.078  0.00  0.00    +0.024 A 
ATOM     33  C   UNL     1      94.367  32.042  -5.899  0.00  0.00    +0.007 A 
ATOM     34  C   UNL     1      93.545  32.537  -4.832  0.00  0.00    -0.029 A 
ATOM     35  C   UNL     1      92.112  31.974  -4.683  0.00  0.00    +0.045 C 
ENDROOT
BRANCH  10   9
ATOM      4  C   UNL     1      92.058  37.213  -1.608  0.00  0.00    +0.077 A 
ATOM      5  C   UNL     1      92.546  38.169  -2.559  0.00  0.00    +0.048 A 
ATOM      6  C   UNL     1      93.328  37.679  -3.629  0.00  0.00    +0.116 A 
ATOM      7  N   UNL     1      93.595  36.331  -3.730  0.00  0.00    -0.223 NA
ATOM      8  C   UNL     1      93.110  35.436  -2.794  0.00  0.00    +0.220 A 
ATOM      9  N   UNL     1      93.359  34.075  -2.880  0.00  0.00    -0.283 N 
ATOM     36  H   UNL     1      92.990  33.448  -2.166  0.00  0.00    +0.155 HD
ATOM     37  N   UNL     1      92.362  35.879  -1.763  0.00  0.00    -0.214 NA
BRANCH   4   3
ATOM      1  C   UNL     1      90.290  39.234   1.237  0.00  0.00    +0.020 A 
ATOM      2  C   UNL     1      91.118  38.936   0.091  0.00  0.00    +0.013 A 
ATOM      3  C   UNL     1      91.215  37.576  -0.425  0.00  0.00    +0.019 A 
ATOM     38  C   UNL     1      90.455  36.533   0.246  0.00  0.00    +0.120 A 
ATOM     39  N   UNL     1      89.666  36.849   1.348  0.00  0.00    -0.263 NA
ATOM     40  C   UNL     1      89.566  38.153   1.855  0.00  0.00    +0.111 A 
ENDBRANCH   4   3
ENDBRANCH  10   9
BRANCH  12  13
ATOM     13  N   UNL     1      97.621  33.943  -5.444  0.00  0.00    -0.281 N 
ATOM     14  C   UNL     1      98.348  33.858  -6.621  0.00  0.00    +0.248 C 
ATOM     30  O   UNL     1      98.013  33.200  -7.594  0.00  0.00    -0.270 OA
ATOM     31  H   UNL     1      98.103  34.361  -4.649  0.00  0.00    +0.155 HD
BRANCH  14  15
ATOM     15  C   UNL     1      99.641  34.600  -6.725  0.00  0.00    +0.037 A 
ATOM     16  C   UNL     1     100.429  34.926  -5.533  0.00  0.00    +0.013 A 
ATOM     17  C   UNL     1     101.664  35.658  -5.660  0.00  0.00    +0.005 A 
ATOM     18  C   UNL     1     102.121  36.066  -6.987  0.00  0.00    -0.033 A 
ATOM     28  C   UNL     1     101.323  35.724  -8.153  0.00  0.00    +0.005 A 
ATOM     29  C   UNL     1     100.111  35.009  -8.032  0.00  0.00    +0.013 A 
BRANCH  18  19
ATOM     19  C   UNL     1     103.416  36.868  -7.215  0.00  0.00    +0.119 C 
BRANCH  19  20
ATOM     20  N   UNL     1     103.504  37.686  -8.461  0.00  0.00    -0.302 NA
ATOM     21  C   UNL     1     104.928  37.729  -9.021  0.00  0.00    +0.066 C 
ATOM     22  C   UNL     1     104.997  38.570 -10.337  0.00  0.00    -0.064 C 
ATOM     23  N   UNL     1     104.480  39.984 -10.063  0.00  0.00    +0.379 N 
ATOM     24  C   UNL     1     104.597  40.794 -11.284  0.00  0.00    -0.096 C 
ATOM     25  H   UNL     1     105.139  40.440  -9.289  0.00  0.00    -0.082 HD
ATOM     26  C   UNL     1     103.065  39.950  -9.503  0.00  0.00    -0.064 C 
ATOM     27  C   UNL     1     103.002  39.087  -8.212  0.00  0.00    +0.066 C 
ENDBRANCH  19  20
ENDBRANCH  18  19
ENDBRANCH  14  15
ENDBRANCH  12  13
TORSDOF 6
ENDMDL
MODEL 2
REMARK VINA RESULT:     -10.2      3.793      4.494
REMARK  Name = C:\Users\Docking\Desktop\test protocol\1iep_ligandH.pdb
REMARK  8 active torsions:
REMARK  status: ('A' for Active; 'I' for Inactive)
REMARK    1  A    between atoms: _5  and  _11
REMARK    2  A    between atoms: _19  and  _21
REMARK    3  A    between atoms: _22  and  _66
REMARK    4  A    between atoms: _27  and  _30
REMARK    5  A    between atoms: _32  and  _33
REMARK    6  A    between atoms: _38  and  _43
REMARK    7  A    between atoms: _43  and  _46
REMARK    8  A    between atoms: _53  and  _55
REMARK                            x       y       z     vdW  Elec       q    Type
REMARK                         _______ _______ _______ _____ _____    ______ ____
ROOT
ATOM     10  C   UNL     1      92.854  34.120  -4.413  0.00  0.00    +0.038 A 
ATOM     11  C   UNL     1      93.274  35.044  -5.404  0.00  0.00    +0.047 A 
ATOM     12  C   UNL     1      94.003  34.603  -6.582  0.00  0.00    +0.035 A 
ATOM     32  C   UNL     1      94.286  33.213  -6.721  0.00  0.00    +0.024 A 
ATOM     33  C   UNL     1      93.867  32.260  -5.723  0.00  0.00    +0.007 A 
ATOM     34  C   UNL     1      93.149  32.690  -4.557  0.00  0.00    -0.029 A 
ATOM     35  C   UNL     1      92.731  31.625  -3.516  0.00  0.00    +0.045 C 
ENDROOT
BRANCH  10   9
ATOM      4  C   UNL     1      91.974  37.468  -1.087  0.00  0.00    +0.077 A 
ATOM      5  C   UNL     1      93.009  38.324  -1.591  0.00  0.00    +0.048 A 
ATOM      6  C   UNL     1      93.749  37.863  -2.702  0.00  0.00    +0.116 A 
ATOM      7  N   UNL     1      93.467  36.636  -3.261  0.00  0.00    -0.223 NA
ATOM      8  C   UNL     1      92.463  35.834  -2.750  0.00  0.00    +0.220 A 
ATOM      9  N   UNL     1      92.157  34.599  -3.301  0.00  0.00    -0.283 N 
ATOM     36  H   UNL     1      91.414  34.034  -2.890  0.00  0.00    +0.155 HD
ATOM     37  N   UNL     1      91.742  36.250  -1.688  0.00  0.00    -0.214 NA
BRANCH   4   3
ATOM      1  C   UNL     1      90.044  39.468   1.665  0.00  0.00    +0.020 A 
ATOM      2  C   UNL     1      90.896  39.186   0.533  0.00  0.00    +0.013 A 
ATOM      3  C   UNL     1      91.103  37.816   0.079  0.00  0.00    +0.019 A 
ATOM     38  C   UNL     1      90.427  36.747   0.799  0.00  0.00    +0.120 A 
ATOM     39  N   UNL     1      89.614  37.049   1.887  0.00  0.00    -0.263 NA
ATOM     40  C   UNL     1      89.409  38.363   2.333  0.00  0.00    +0.111 A 
ENDBRANCH   4   3
ENDBRANCH  10   9
BRANCH  12  13
ATOM     13  N   UNL     1      94.462  35.496  -7.618  0.00  0.00    -0.281 N 
ATOM     14  C   UNL     1      93.701  36.316  -8.434  0.00  0.00    +0.248 C 
ATOM     30  O   UNL     1      92.486  36.247  -8.543  0.00  0.00    -0.270 OA
ATOM     31  H   UNL     1      95.471  35.526  -7.767  0.00  0.00    +0.155 HD
BRANCH  14  15
ATOM     15  C   UNL     1      94.391  37.353  -9.260  0.00  0.00    +0.037 A 
ATOM     16  C   UNL     1      93.738  38.624  -9.585  0.00  0.00    +0.013 A 
ATOM     17  C   UNL     1      94.419  39.600 -10.398  0.00  0.00    +0.005 A 
ATOM     18  C   UNL     1      95.764  39.309 -10.890  0.00  0.00    -0.033 A 
ATOM     28  C   UNL     1      96.390  38.043 -10.548  0.00  0.00    +0.005 A 
ATOM     29  C   UNL     1      95.725  37.084  -9.752  0.00  0.00    +0.013 A 
BRANCH  18  19
ATOM     19  C   UNL     1      96.557  40.284 -11.781  0.00  0.00    +0.119 C 
BRANCH  19  20
ATOM     20  N   UNL     1      98.023  40.040 -11.924  0.00  0.00    -0.302 NA
ATOM     21  C   UNL     1      98.792  40.395 -10.649  0.00  0.00    +0.066 C 
ATOM     22  C   UNL     1     100.321  40.112 -10.808  0.00  0.00    -0.064 C 
ATOM     23  N   UNL     1     100.861  40.901 -12.003  0.00  0.00    +0.379 N 
ATOM     24  C   UNL     1     102.310  40.683 -12.121  0.00  0.00    -0.096 C 
ATOM     25  H   UNL     1     100.697  41.984 -11.795  0.00  0.00    -0.082 HD
ATOM     26  C   UNL     1     100.100  40.556 -13.275  0.00  0.00    -0.064 C 
ATOM     27  C   UNL     1      98.578  40.812 -13.096  0.00  0.00    +0.066 C 
ENDBRANCH  19  20
ENDBRANCH  18  19
ENDBRANCH  14  15
ENDBRANCH  12  13
TORSDOF 6
ENDMDL
MODEL 3
REMARK VINA RESULT:     -10.0      3.993      4.762
REMARK  Name = C:\Users\Docking\Desktop\test protocol\1iep_ligandH.pdb
REMARK  8 active torsions:
REMARK  status: ('A' for Active; 'I' for Inactive)
REMARK    1  A    between atoms: _5  and  _11
REMARK    2  A    between atoms: _19  and  _21
REMARK    3  A    between atoms: _22  and  _66
REMARK    4  A    between atoms: _27  and  _30
REMARK    5  A    between atoms: _32  and  _33
REMARK    6  A    between atoms: _38  and  _43
REMARK    7  A    between atoms: _43  and  _46
REMARK    8  A    between atoms: _53  and  _55
REMARK                            x       y       z     vdW  Elec       q    Type
REMARK                         _______ _______ _______ _____ _____    ______ ____
ROOT
ATOM     10  C   UNL     1      93.019  35.426  -6.387  0.00  0.00    +0.038 A 
ATOM     11  C   UNL     1      93.800  36.386  -7.079  0.00  0.00    +0.047 A 
ATOM     12  C   UNL     1      94.592  36.016  -8.242  0.00  0.00    +0.035 A 
ATOM     32  C   UNL     1      94.563  34.657  -8.673  0.00  0.00    +0.024 A 
ATOM     33  C   UNL     1      93.776  33.668  -7.981  0.00  0.00    +0.007 A 
ATOM     34  C   UNL     1      92.995  34.027  -6.832  0.00  0.00    -0.029 A 
ATOM     35  C   UNL     1      92.175  32.923  -6.124  0.00  0.00    +0.045 C 
ENDROOT
BRANCH  10   9
ATOM      4  C   UNL     1      92.663  36.726  -1.780  0.00  0.00    +0.077 A 
ATOM      5  C   UNL     1      94.069  36.546  -1.559  0.00  0.00    +0.048 A 
ATOM      6  C   UNL     1      94.848  36.110  -2.655  0.00  0.00    +0.116 A 
ATOM      7  N   UNL     1      94.254  35.876  -3.877  0.00  0.00    -0.223 NA
ATOM      8  C   UNL     1      92.895  36.059  -4.055  0.00  0.00    +0.220 A 
ATOM      9  N   UNL     1      92.278  35.837  -5.277  0.00  0.00    -0.283 N 
ATOM     36  H   UNL     1      91.271  35.976  -5.366  0.00  0.00    +0.155 HD
ATOM     37  N   UNL     1      92.129  36.472  -3.024  0.00  0.00    -0.214 NA
BRANCH   4   3
ATOM      1  C   UNL     1      90.652  38.970   0.714  0.00  0.00    +0.020 A 
ATOM      2  C   UNL     1      91.590  38.579  -0.313  0.00  0.00    +0.013 A 
ATOM      3  C   UNL     1      91.709  37.185  -0.722  0.00  0.00    +0.019 A 
ATOM     38  C   UNL     1      90.858  36.204  -0.066  0.00  0.00    +0.120 A 
ATOM     39  N   UNL     1      89.965  36.609   0.921  0.00  0.00    -0.263 NA
ATOM     40  C   UNL     1      89.843  37.947   1.323  0.00  0.00    +0.111 A 
ENDBRANCH   4   3
ENDBRANCH  10   9
BRANCH  12  13
ATOM     13  N   UNL     1      95.410  36.945  -8.980  0.00  0.00    -0.281 N 
ATOM     14  C   UNL     1      95.040  37.737 -10.055  0.00  0.00    +0.248 C 
ATOM     30  O   UNL     1      94.001  37.607 -10.684  0.00  0.00    -0.270 OA
ATOM     31  H   UNL     1      96.379  37.030  -8.673  0.00  0.00    +0.155 HD
BRANCH  14  15
ATOM     15  C   UNL     1      95.966  38.820 -10.506  0.00  0.00    +0.037 A 
ATOM     16  C   UNL     1      95.465  40.009 -11.200  0.00  0.00    +0.013 A 
ATOM     17  C   UNL     1      96.381  41.031 -11.639  0.00  0.00    +0.005 A 
ATOM     18  C   UNL     1      97.811  40.869 -11.384  0.00  0.00    -0.033 A 
ATOM     28  C   UNL     1      98.281  39.682 -10.689  0.00  0.00    +0.005 A 
ATOM     29  C   UNL     1      97.385  38.678 -10.258  0.00  0.00    +0.013 A 
BRANCH  18  19
ATOM     19  C   UNL     1      98.863  41.899 -11.835  0.00  0.00    +0.119 C 
BRANCH  19  20
ATOM     20  N   UNL     1     100.148  41.369 -12.380  0.00  0.00    -0.302 NA
ATOM     21  C   UNL     1     101.257  42.425 -12.369  0.00  0.00    +0.066 C 
ATOM     22  C   UNL     1     102.600  41.847 -12.921  0.00  0.00    -0.064 C 
ATOM     23  N   UNL     1     102.378  41.311 -14.336  0.00  0.00    +0.379 N 
ATOM     24  C   UNL     1     103.652  40.820 -14.881  0.00  0.00    -0.096 C 
ATOM     25  H   UNL     1     102.045  42.164 -14.972  0.00  0.00    -0.082 HD
ATOM     26  C   UNL     1     101.276  40.262 -14.357  0.00  0.00    -0.064 C 
ATOM     27  C   UNL     1      99.953  40.838 -13.779  0.00  0.00    +0.066 C 
ENDBRANCH  19  20
ENDBRANCH  18  19
ENDBRANCH  14  15
ENDBRANCH  12  13
TORSDOF 6
ENDMDL
MODEL 4
REMARK VINA RESULT:      -9.8      9.735     12.165
REMARK  Name = C:\Users\Docking\Desktop\test protocol\1iep_ligandH.pdb
REMARK  8 active torsions:
REMARK  status: ('A' for Active; 'I' for Inactive)
REMARK    1  A    between atoms: _5  and  _11
REMARK    2  A    between atoms: _19  and  _21
REMARK    3  A    between atoms: _22  and  _66
REMARK    4  A    between atoms: _27  and  _30
REMARK    5  A    between atoms: _32  and  _33
REMARK    6  A    between atoms: _38  and  _43
REMARK    7  A    between atoms: _43  and  _46
REMARK    8  A    between atoms: _53  and  _55
REMARK                            x       y       z     vdW  Elec       q    Type
REMARK                         _______ _______ _______ _____ _____    ______ ____
ROOT
ATOM     10  C   UNL     1      91.611  31.905  -9.085  0.00  0.00    +0.038 A 
ATOM     11  C   UNL     1      91.322  32.012 -10.470  0.00  0.00    +0.047 A 
ATOM     12  C   UNL     1      91.298  30.837 -11.327  0.00  0.00    +0.035 A 
ATOM     32  C   UNL     1      91.569  29.567 -10.739  0.00  0.00    +0.024 A 
ATOM     33  C   UNL     1      91.865  29.439  -9.334  0.00  0.00    +0.007 A 
ATOM     34  C   UNL     1      91.893  30.595  -8.484  0.00  0.00    -0.029 A 
ATOM     35  C   UNL     1      92.223  30.401  -6.986  0.00  0.00    +0.045 C 
ENDROOT
BRANCH  10   9
ATOM      4  C   UNL     1      93.832  35.727  -7.216  0.00  0.00    +0.077 A 
ATOM      5  C   UNL     1      95.085  35.365  -7.814  0.00  0.00    +0.048 A 
ATOM      6  C   UNL     1      95.117  34.184  -8.590  0.00  0.00    +0.116 A 
ATOM      7  N   UNL     1      93.975  33.430  -8.748  0.00  0.00    -0.223 NA
ATOM      8  C   UNL     1      92.783  33.806  -8.157  0.00  0.00    +0.220 A 
ATOM      9  N   UNL     1      91.621  33.066  -8.309  0.00  0.00    -0.283 N 
ATOM     36  H   UNL     1      90.764  33.373  -7.850  0.00  0.00    +0.155 HD
ATOM     37  N   UNL     1      92.727  34.928  -7.410  0.00  0.00    -0.214 NA
BRANCH   4   3
ATOM      1  C   UNL     1      92.923  39.344  -6.036  0.00  0.00    +0.020 A 
ATOM      2  C   UNL     1      93.091  38.194  -6.895  0.00  0.00    +0.013 A 
ATOM      3  C   UNL     1      93.637  36.948  -6.372  0.00  0.00    +0.019 A 
ATOM     38  C   UNL     1      94.005  36.898  -4.965  0.00  0.00    +0.120 A 
ATOM     39  N   UNL     1      93.834  38.022  -4.163  0.00  0.00    -0.263 NA
ATOM     40  C   UNL     1      93.311  39.227  -4.655  0.00  0.00    +0.111 A 
ENDBRANCH   4   3
ENDBRANCH  10   9
BRANCH  12  13
ATOM     13  N   UNL     1      91.019  30.885 -12.741  0.00  0.00    -0.281 N 
ATOM     14  C   UNL     1      89.810  30.661 -13.379  0.00  0.00    +0.248 C 
ATOM     30  O   UNL     1      88.826  30.174 -12.843  0.00  0.00    -0.270 OA
ATOM     31  H   UNL     1      91.810  31.112 -13.345  0.00  0.00    +0.155 HD
BRANCH  14  15
ATOM     15  C   UNL     1      89.680  31.018 -14.824  0.00  0.00    +0.037 A 
ATOM     16  C   UNL     1      88.382  30.979 -15.503  0.00  0.00    +0.013 A 
ATOM     17  C   UNL     1      88.286  31.311 -16.902  0.00  0.00    +0.005 A 
ATOM     18  C   UNL     1      89.494  31.687 -17.632  0.00  0.00    -0.033 A 
ATOM     28  C   UNL     1      90.768  31.723 -16.934  0.00  0.00    +0.005 A 
ATOM     29  C   UNL     1      90.866  31.397 -15.562  0.00  0.00    +0.013 A 
BRANCH  18  19
ATOM     19  C   UNL     1      89.490  32.037 -19.132  0.00  0.00    +0.119 C 
BRANCH  19  20
ATOM     20  N   UNL     1      89.521  33.485 -19.497  0.00  0.00    -0.302 NA
ATOM     21  C   UNL     1      88.135  34.012 -19.877  0.00  0.00    +0.066 C 
ATOM     22  C   UNL     1      88.182  35.534 -20.234  0.00  0.00    -0.064 C 
ATOM     23  N   UNL     1      89.178  35.756 -21.374  0.00  0.00    +0.379 N 
ATOM     24  C   UNL     1      89.182  37.178 -21.751  0.00  0.00    -0.096 C 
ATOM     25  H   UNL     1      88.820  35.174 -22.254  0.00  0.00    -0.082 HD
ATOM     26  C   UNL     1      90.559  35.233 -21.005  0.00  0.00    -0.064 C 
ATOM     27  C   UNL     1      90.495  33.727 -20.624  0.00  0.00    +0.066 C 
ENDBRANCH  19  20
ENDBRANCH  18  19
ENDBRANCH  14  15
ENDBRANCH  12  13
TORSDOF 6
ENDMDL
MODEL 5
REMARK VINA RESULT:      -9.8     10.147     13.095
REMARK  Name = C:\Users\Docking\Desktop\test protocol\1iep_ligandH.pdb
REMARK  8 active torsions:
REMARK  status: ('A' for Active; 'I' for Inactive)
REMARK    1  A    between atoms: _5  and  _11
REMARK    2  A    between atoms: _19  and  _21
REMARK    3  A    between atoms: _22  and  _66
REMARK    4  A    between atoms: _27  and  _30
REMARK    5  A    between atoms: _32  and  _33
REMARK    6  A    between atoms: _38  and  _43
REMARK    7  A    between atoms: _43  and  _46
REMARK    8  A    between atoms: _53  and  _55
REMARK                            x       y       z     vdW  Elec       q    Type
REMARK                         _______ _______ _______ _____ _____    ______ ____
ROOT
ATOM     10  C   UNL     1      91.619  31.963  -9.054  0.00  0.00    +0.038 A 
ATOM     11  C   UNL     1      91.322  32.058 -10.438  0.00  0.00    +0.047 A 
ATOM     12  C   UNL     1      91.305  30.878 -11.287  0.00  0.00    +0.035 A 
ATOM     32  C   UNL     1      91.593  29.614 -10.693  0.00  0.00    +0.024 A 
ATOM     33  C   UNL     1      91.898  29.499  -9.289  0.00  0.00    +0.007 A 
ATOM     34  C   UNL     1      91.918  30.661  -8.447  0.00  0.00    -0.029 A 
ATOM     35  C   UNL     1      92.258  30.478  -6.949  0.00  0.00    +0.045 C 
ENDROOT
BRANCH  10   9
ATOM      4  C   UNL     1      93.802  35.836  -7.246  0.00  0.00    +0.077 A 
ATOM      5  C   UNL     1      95.051  35.493  -7.862  0.00  0.00    +0.048 A 
ATOM      6  C   UNL     1      95.091  34.308  -8.631  0.00  0.00    +0.116 A 
ATOM      7  N   UNL     1      93.961  33.532  -8.766  0.00  0.00    -0.223 NA
ATOM      8  C   UNL     1      92.772  33.890  -8.157  0.00  0.00    +0.220 A 
ATOM      9  N   UNL     1      91.621  33.129  -8.286  0.00  0.00    -0.283 N 
ATOM     36  H   UNL     1      90.766  33.424  -7.814  0.00  0.00    +0.155 HD
ATOM     37  N   UNL     1      92.708  35.017  -7.416  0.00  0.00    -0.214 NA
BRANCH   4   3
ATOM      1  C   UNL     1      92.883  39.456  -6.082  0.00  0.00    +0.020 A 
ATOM      2  C   UNL     1      93.059  38.304  -6.936  0.00  0.00    +0.013 A 
ATOM      3  C   UNL     1      93.599  37.058  -6.405  0.00  0.00    +0.019 A 
ATOM     38  C   UNL     1      93.953  37.011  -4.995  0.00  0.00    +0.120 A 
ATOM     39  N   UNL     1      93.774  38.136  -4.197  0.00  0.00    -0.263 NA
ATOM     40  C   UNL     1      93.257  39.341  -4.696  0.00  0.00    +0.111 A 
ENDBRANCH   4   3
ENDBRANCH  10   9
BRANCH  12  13
ATOM     13  N   UNL     1      91.018  30.914 -12.700  0.00  0.00    -0.281 N 
ATOM     14  C   UNL     1      89.806  30.681 -13.329  0.00  0.00    +0.248 C 
ATOM     30  O   UNL     1      88.827  30.194 -12.784  0.00  0.00    -0.270 OA
ATOM     31  H   UNL     1      91.804  31.139 -13.310  0.00  0.00    +0.155 HD
BRANCH  14  15
ATOM     15  C   UNL     1      89.666  31.027 -14.777  0.00  0.00    +0.037 A 
ATOM     16  C   UNL     1      88.370  30.950 -15.454  0.00  0.00    +0.013 A 
ATOM     17  C   UNL     1      88.266  31.272 -16.855  0.00  0.00    +0.005 A 
ATOM     18  C   UNL     1      89.463  31.675 -17.588  0.00  0.00    -0.033 A 
ATOM     28  C   UNL     1      90.736  31.748 -16.890  0.00  0.00    +0.005 A 
ATOM     29  C   UNL     1      90.842  31.432 -15.517  0.00  0.00    +0.013 A 
BRANCH  18  19
ATOM     19  C   UNL     1      89.449  32.017 -19.090  0.00  0.00    +0.119 C 
BRANCH  19  20
ATOM     20  N   UNL     1      88.459  31.297 -19.946  0.00  0.00    -0.302 NA
ATOM     21  C   UNL     1      88.902  29.865 -20.256  0.00  0.00    +0.066 C 
ATOM     22  C   UNL     1      87.844  29.119 -21.133  0.00  0.00    -0.064 C 
ATOM     23  N   UNL     1      87.610  29.906 -22.424  0.00  0.00    +0.379 N 
ATOM     24  C   UNL     1      86.659  29.178 -23.277  0.00  0.00    -0.096 C 
ATOM     25  H   UNL     1      88.582  29.958 -22.969  0.00  0.00    -0.082 HD
ATOM     26  C   UNL     1      87.173  31.332 -22.125  0.00  0.00    -0.064 C 
ATOM     27  C   UNL     1      88.217  32.054 -21.228  0.00  0.00    +0.066 C 
ENDBRANCH  19  20
ENDBRANCH  18  19
ENDBRANCH  14  15
ENDBRANCH  12  13
TORSDOF 6
ENDMDL
