MODEL 1
REMARK VINA RESULT:     -10.4      0.000      0.000
REMARK  Name = C:\Users\Docking\Desktop\test protocol\1iep_ligandH.pdb
REMARK  8 active torsions:
REMARK  status: ('A' for Active; 'I' for Inactive)
REMARK    1  A    between atoms: _5  and  _11
REMARK    2  A    between atoms: _19  and  _21
REMARK    3  A    between atoms: _22  and  _66
REMARK    4  A    between atoms: _27  and  _30
REMARK    5  A    between atoms: _32  and  _33
REMARK    6  A    between atoms: _38  and  _43
REMARK    7  A    between atoms: _43  and  _46
REMARK    8  A    between atoms: _53  and  _55
REMARK                            x       y       z     vdW  Elec       q    Type
REMARK                         _______ _______ _______ _____ _____    ______ ____
ROOT
ATOM     10  C   UNL     1      12.305  82.958  85.083  0.00  0.00    +0.038 A 
ATOM     11  C   UNL     1      11.192  83.369  85.859  0.00  0.00    +0.047 A 
ATOM     12  C   UNL     1       9.940  83.760  85.231  0.00  0.00    +0.035 A 
ATOM     32  C   UNL     1       9.855  83.717  83.809  0.00  0.00    +0.024 A 
ATOM     33  C   UNL     1      10.977  83.302  83.004  0.00  0.00    +0.007 A 
ATOM     34  C   UNL     1      12.216  82.918  83.618  0.00  0.00    -0.029 A 
ATOM     35  C   UNL     1      13.388  82.488  82.705  0.00  0.00    +0.045 C 
ENDROOT
BRANCH  10   9
ATOM      4  C   UNL     1      15.062  79.763  87.371  0.00  0.00    +0.077 A 
ATOM      5  C   UNL     1      14.059  78.742  87.276  0.00  0.00    +0.048 A 
ATOM      6  C   UNL     1      12.846  79.081  86.638  0.00  0.00    +0.116 A 
ATOM      7  N   UNL     1      12.659  80.350  86.134  0.00  0.00    -0.223 NA
ATOM      8  C   UNL     1      13.646  81.313  86.244  0.00  0.00    +0.220 A 
ATOM      9  N   UNL     1      13.484  82.593  85.738  0.00  0.00    -0.283 N 
ATOM     36  H   UNL     1      14.233  83.277  85.845  0.00  0.00    +0.155 HD
ATOM     37  N   UNL     1      14.814  81.014  86.850  0.00  0.00    -0.214 NA
BRANCH   4   3
ATOM      1  C   UNL     1      18.918  79.681  88.024  0.00  0.00    +0.020 A 
ATOM      2  C   UNL     1      17.654  79.899  87.358  0.00  0.00    +0.013 A 
ATOM      3  C   UNL     1      16.398  79.557  88.014  0.00  0.00    +0.019 A 
ATOM     38  C   UNL     1      16.456  78.993  89.354  0.00  0.00    +0.120 A 
ATOM     39  N   UNL     1      17.688  78.793  89.969  0.00  0.00    -0.263 NA
ATOM     40  C   UNL     1      18.903  79.116  89.347  0.00  0.00    +0.111 A 
ENDBRANCH   4   3
ENDBRANCH  10   9
BRANCH  12  13
ATOM     13  N   UNL     1       8.779  84.194  85.968  0.00  0.00    -0.281 N 
ATOM     14  C   UNL     1       8.737  84.993  87.098  0.00  0.00    +0.248 C 
ATOM     30  O   UNL     1       9.712  85.283  87.776  0.00  0.00    -0.270 OA
ATOM     31  H   UNL     1       7.878  83.873  85.613  0.00  0.00    +0.155 HD
BRANCH  14  15
ATOM     15  C   UNL     1       7.420  85.538  87.549  0.00  0.00    +0.037 A 
ATOM     16  C   UNL     1       6.165  85.092  86.941  0.00  0.00    +0.013 A 
ATOM     17  C   UNL     1       4.910  85.646  87.383  0.00  0.00    +0.005 A 
ATOM     18  C   UNL     1       4.905  86.653  88.441  0.00  0.00    -0.033 A 
ATOM     28  C   UNL     1       6.165  87.074  89.031  0.00  0.00    +0.005 A 
ATOM     29  C   UNL     1       7.397  86.534  88.600  0.00  0.00    +0.013 A 
BRANCH  18  19
ATOM     19  C   UNL     1       3.614  87.315  88.961  0.00  0.00    +0.119 C 
BRANCH  19  20
ATOM     20  N   UNL     1       3.171  88.571  88.286  0.00  0.00    -0.302 NA
ATOM     21  C   UNL     1       3.273  89.787  89.212  0.00  0.00    +0.066 C 
ATOM     22  C   UNL     1       2.826  91.096  88.484  0.00  0.00    -0.064 C 
ATOM     23  N   UNL     1       1.396  90.927  87.968  0.00  0.00    +0.379 N 
ATOM     24  C   UNL     1       0.953  92.177  87.333  0.00  0.00    -0.096 C 
ATOM     25  H   UNL     1       0.739  90.743  88.849  0.00  0.00    -0.082 HD
ATOM     26  C   UNL     1       1.285  89.719  87.049  0.00  0.00    -0.064 C 
ATOM     27  C   UNL     1       1.759  88.428  87.773  0.00  0.00    +0.066 C 
ENDBRANCH  19  20
ENDBRANCH  18  19
ENDBRANCH  14  15
ENDBRANCH  12  13
TORSDOF 6
ENDMDL
MODEL 2
REMARK VINA RESULT:     -10.3     20.678     22.340
REMARK  Name = C:\Users\Docking\Desktop\test protocol\1iep_ligandH.pdb
REMARK  8 active torsions:
REMARK  status: ('A' for Active; 'I' for Inactive)
REMARK    1  A    between atoms: _5  and  _11
REMARK    2  A    between atoms: _19  and  _21
REMARK    3  A    between atoms: _22  and  _66
REMARK    4  A    between atoms: _27  and  _30
REMARK    5  A    between atoms: _32  and  _33
REMARK    6  A    between atoms: _38  and  _43
REMARK    7  A    between atoms: _43  and  _46
REMARK    8  A    between atoms: _53  and  _55
REMARK                            x       y       z     vdW  Elec       q    Type
REMARK                         _______ _______ _______ _____ _____    ______ ____
ROOT
ATOM     10  C   UNL     1      20.924 101.450  81.499  0.00  0.00    +0.038 A 
ATOM     11  C   UNL     1      20.600 102.285  82.599  0.00  0.00    +0.047 A 
ATOM     12  C   UNL     1      21.082 103.655  82.671  0.00  0.00    +0.035 A 
ATOM     32  C   UNL     1      21.890 104.144  81.603  0.00  0.00    +0.024 A 
ATOM     33  C   UNL     1      22.229 103.309  80.478  0.00  0.00    +0.007 A 
ATOM     34  C   UNL     1      21.759 101.955  80.403  0.00  0.00    -0.029 A 
ATOM     35  C   UNL     1      22.160 101.103  79.176  0.00  0.00    +0.045 C 
ENDROOT
BRANCH  10   9
ATOM      4  C   UNL     1      17.834  98.107  79.978  0.00  0.00    +0.077 A 
ATOM      5  C   UNL     1      17.118  99.052  79.170  0.00  0.00    +0.048 A 
ATOM      6  C   UNL     1      17.573 100.390  79.180  0.00  0.00    +0.116 A 
ATOM      7  N   UNL     1      18.663 100.744  79.943  0.00  0.00    -0.223 NA
ATOM      8  C   UNL     1      19.331  99.809  80.712  0.00  0.00    +0.220 A 
ATOM      9  N   UNL     1      20.435 100.142  81.482  0.00  0.00    -0.283 N 
ATOM     36  H   UNL     1      20.895  99.424  82.041  0.00  0.00    +0.155 HD
ATOM     37  N   UNL     1      18.915  98.525  80.721  0.00  0.00    -0.214 NA
BRANCH   4   3
ATOM      1  C   UNL     1      16.507  94.527  79.125  0.00  0.00    +0.020 A 
ATOM      2  C   UNL     1      16.830  95.928  78.985  0.00  0.00    +0.013 A 
ATOM      3  C   UNL     1      17.477  96.656  80.070  0.00  0.00    +0.019 A 
ATOM     38  C   UNL     1      17.787  95.930  81.293  0.00  0.00    +0.120 A 
ATOM     39  N   UNL     1      17.463  94.581  81.399  0.00  0.00    -0.263 NA
ATOM     40  C   UNL     1      16.839  93.871  80.363  0.00  0.00    +0.111 A 
ENDBRANCH   4   3
ENDBRANCH  10   9
BRANCH  12  13
ATOM     13  N   UNL     1      20.792 104.547  83.766  0.00  0.00    -0.281 N 
ATOM     14  C   UNL     1      19.566 105.079  84.130  0.00  0.00    +0.248 C 
ATOM     30  O   UNL     1      18.561 105.037  83.435  0.00  0.00    -0.270 OA
ATOM     31  H   UNL     1      21.588 104.819  84.344  0.00  0.00    +0.155 HD
BRANCH  14  15
ATOM     15  C   UNL     1      19.441 105.770  85.449  0.00  0.00    +0.037 A 
ATOM     16  C   UNL     1      18.130 106.116  86.005  0.00  0.00    +0.013 A 
ATOM     17  C   UNL     1      18.039 106.797  87.272  0.00  0.00    +0.005 A 
ATOM     18  C   UNL     1      19.264 107.136  87.993  0.00  0.00    -0.033 A 
ATOM     28  C   UNL     1      20.551 106.776  87.421  0.00  0.00    +0.005 A 
ATOM     29  C   UNL     1      20.644 106.109  86.179  0.00  0.00    +0.013 A 
BRANCH  18  19
ATOM     19  C   UNL     1      19.262 107.881  89.341  0.00  0.00    +0.119 C 
BRANCH  19  20
ATOM     20  N   UNL     1      19.703 107.116  90.546  0.00  0.00    -0.302 NA
ATOM     21  C   UNL     1      21.229 107.060  90.663  0.00  0.00    +0.066 C 
ATOM     22  C   UNL     1      21.673 106.276  91.941  0.00  0.00    -0.064 C 
ATOM     23  N   UNL     1      21.080 104.866  91.902  0.00  0.00    +0.379 N 
ATOM     24  C   UNL     1      21.542 104.107  93.074  0.00  0.00    -0.096 C 
ATOM     25  H   UNL     1      21.474 104.358  90.992  0.00  0.00    -0.082 HD
ATOM     26  C   UNL     1      19.563 104.913  91.783  0.00  0.00    -0.064 C 
ATOM     27  C   UNL     1      19.132 105.720  90.526  0.00  0.00    +0.066 C 
ENDBRANCH  19  20
ENDBRANCH  18  19
ENDBRANCH  14  15
ENDBRANCH  12  13
TORSDOF 6
ENDMDL
MODEL 3
REMARK VINA RESULT:      -9.6     20.417     22.098
REMARK  Name = C:\Users\Docking\Desktop\test protocol\1iep_ligandH.pdb
REMARK  8 active torsions:
REMARK  status: ('A' for Active; 'I' for Inactive)
REMARK    1  A    between atoms: _5  and  _11
REMARK    2  A    between atoms: _19  and  _21
REMARK    3  A    between atoms: _22  and  _66
REMARK    4  A    between atoms: _27  and  _30
REMARK    5  A    between atoms: _32  and  _33
REMARK    6  A    between atoms: _38  and  _43
REMARK    7  A    between atoms: _43  and  _46
REMARK    8  A    between atoms: _53  and  _55
REMARK                            x       y       z     vdW  Elec       q    Type
REMARK                         _______ _______ _______ _____ _____    ______ ____
ROOT
ATOM     10  C   UNL     1      21.009 101.636  81.534  0.00  0.00    +0.038 A 
ATOM     11  C   UNL     1      20.607 102.517  82.571  0.00  0.00    +0.047 A 
ATOM     12  C   UNL     1      21.095 103.886  82.627  0.00  0.00    +0.035 A 
ATOM     32  C   UNL     1      21.990 104.326  81.608  0.00  0.00    +0.024 A 
ATOM     33  C   UNL     1      22.409 103.444  80.548  0.00  0.00    +0.007 A 
ATOM     34  C   UNL     1      21.933 102.092  80.489  0.00  0.00    -0.029 A 
ATOM     35  C   UNL     1      22.421 101.189  79.333  0.00  0.00    +0.045 C 
ENDROOT
BRANCH  10   9
ATOM      4  C   UNL     1      17.938  98.286  79.990  0.00  0.00    +0.077 A 
ATOM      5  C   UNL     1      17.254  99.219  79.142  0.00  0.00    +0.048 A 
ATOM      6  C   UNL     1      17.720 100.553  79.137  0.00  0.00    +0.116 A 
ATOM      7  N   UNL     1      18.790 100.916  79.926  0.00  0.00    -0.223 NA
ATOM      8  C   UNL     1      19.426  99.991  80.734  0.00  0.00    +0.220 A 
ATOM      9  N   UNL     1      20.509 100.332  81.529  0.00  0.00    -0.283 N 
ATOM     36  H   UNL     1      20.946  99.623  82.117  0.00  0.00    +0.155 HD
ATOM     37  N   UNL     1      18.999  98.711  80.758  0.00  0.00    -0.214 NA
BRANCH   4   3
ATOM      1  C   UNL     1      16.549  94.716  79.197  0.00  0.00    +0.020 A 
ATOM      2  C   UNL     1      16.885  96.112  79.039  0.00  0.00    +0.013 A 
ATOM      3  C   UNL     1      17.566  96.840  80.102  0.00  0.00    +0.019 A 
ATOM     38  C   UNL     1      17.897  96.120  81.323  0.00  0.00    +0.120 A 
ATOM     39  N   UNL     1      17.559  94.775  81.448  0.00  0.00    -0.263 NA
ATOM     40  C   UNL     1      16.902  94.065  80.432  0.00  0.00    +0.111 A 
ENDBRANCH   4   3
ENDBRANCH  10   9
BRANCH  12  13
ATOM     13  N   UNL     1      20.728 104.823  83.660  0.00  0.00    -0.281 N 
ATOM     14  C   UNL     1      19.461 105.275  83.989  0.00  0.00    +0.248 C 
ATOM     30  O   UNL     1      18.466 105.103  83.301  0.00  0.00    -0.270 OA
ATOM     31  H   UNL     1      21.497 105.199  84.216  0.00  0.00    +0.155 HD
BRANCH  14  15
ATOM     15  C   UNL     1      19.275 106.040  85.259  0.00  0.00    +0.037 A 
ATOM     16  C   UNL     1      19.606 107.465  85.343  0.00  0.00    +0.013 A 
ATOM     17  C   UNL     1      19.432 108.176  86.585  0.00  0.00    +0.005 A 
ATOM     18  C   UNL     1      18.923 107.463  87.753  0.00  0.00    -0.033 A 
ATOM     28  C   UNL     1      18.598 106.050  87.641  0.00  0.00    +0.005 A 
ATOM     29  C   UNL     1      18.768 105.350  86.426  0.00  0.00    +0.013 A 
BRANCH  18  19
ATOM     19  C   UNL     1      18.727 108.136  89.124  0.00  0.00    +0.119 C 
BRANCH  19  20
ATOM     20  N   UNL     1      17.334 108.517  89.506  0.00  0.00    -0.302 NA
ATOM     21  C   UNL     1      16.645 107.425  90.328  0.00  0.00    +0.066 C 
ATOM     22  C   UNL     1      15.197 107.849  90.738  0.00  0.00    -0.064 C 
ATOM     23  N   UNL     1      14.388 108.172  89.480  0.00  0.00    +0.379 N 
ATOM     24  C   UNL     1      13.010 108.516  89.858  0.00  0.00    -0.096 C 
ATOM     25  H   UNL     1      14.348 107.249  88.858  0.00  0.00    -0.082 HD
ATOM     26  C   UNL     1      15.068 109.256  88.655  0.00  0.00    -0.064 C 
ATOM     27  C   UNL     1      16.517 108.836  88.279  0.00  0.00    +0.066 C 
ENDBRANCH  19  20
ENDBRANCH  18  19
ENDBRANCH  14  15
ENDBRANCH  12  13
TORSDOF 6
ENDMDL
MODEL 4
REMARK VINA RESULT:      -9.3      3.839      8.418
REMARK  Name = C:\Users\Docking\Desktop\test protocol\1iep_ligandH.pdb
REMARK  8 active torsions:
REMARK  status: ('A' for Active; 'I' for Inactive)
REMARK    1  A    between atoms: _5  and  _11
REMARK    2  A    between atoms: _19  and  _21
REMARK    3  A    between atoms: _22  and  _66
REMARK    4  A    between atoms: _27  and  _30
REMARK    5  A    between atoms: _32  and  _33
REMARK    6  A    between atoms: _38  and  _43
REMARK    7  A    between atoms: _43  and  _46
REMARK    8  A    between atoms: _53  and  _55
REMARK                            x       y       z     vdW  Elec       q    Type
REMARK                         _______ _______ _______ _____ _____    ______ ____
ROOT
ATOM     10  C   UNL     1      17.916  78.877  89.484  0.00  0.00    +0.038 A 
ATOM     11  C   UNL     1      16.736  79.209  88.771  0.00  0.00    +0.047 A 
ATOM     12  C   UNL     1      16.797  79.915  87.501  0.00  0.00    +0.035 A 
ATOM     32  C   UNL     1      18.078  80.265  86.983  0.00  0.00    +0.024 A 
ATOM     33  C   UNL     1      19.288  79.936  87.695  0.00  0.00    +0.007 A 
ATOM     34  C   UNL     1      19.234  79.243  88.950  0.00  0.00    -0.029 A 
ATOM     35  C   UNL     1      20.563  78.922  89.672  0.00  0.00    +0.045 C 
ENDROOT
BRANCH  10   9
ATOM      4  C   UNL     1      17.594  74.845  92.067  0.00  0.00    +0.077 A 
ATOM      5  C   UNL     1      17.636  74.020  90.893  0.00  0.00    +0.048 A 
ATOM      6  C   UNL     1      17.733  74.673  89.644  0.00  0.00    +0.116 A 
ATOM      7  N   UNL     1      17.785  76.049  89.585  0.00  0.00    -0.223 NA
ATOM      8  C   UNL     1      17.741  76.815  90.735  0.00  0.00    +0.220 A 
ATOM      9  N   UNL     1      17.799  78.199  90.699  0.00  0.00    -0.283 N 
ATOM     36  H   UNL     1      17.756  78.728  91.570  0.00  0.00    +0.155 HD
ATOM     37  N   UNL     1      17.646  76.215  91.940  0.00  0.00    -0.214 NA
BRANCH   4   3
ATOM      1  C   UNL     1      17.149  72.426  95.108  0.00  0.00    +0.020 A 
ATOM      2  C   UNL     1      17.234  72.898  93.745  0.00  0.00    +0.013 A 
ATOM      3  C   UNL     1      17.495  74.303  93.459  0.00  0.00    +0.019 A 
ATOM     38  C   UNL     1      17.668  75.211  94.583  0.00  0.00    +0.120 A 
ATOM     39  N   UNL     1      17.579  74.728  95.884  0.00  0.00    -0.263 NA
ATOM     40  C   UNL     1      17.326  73.378  96.172  0.00  0.00    +0.111 A 
ENDBRANCH   4   3
ENDBRANCH  10   9
BRANCH  12  13
ATOM     13  N   UNL     1      15.631  80.286  86.737  0.00  0.00    -0.281 N 
ATOM     14  C   UNL     1      14.309  79.956  86.985  0.00  0.00    +0.248 C 
ATOM     30  O   UNL     1      13.948  79.109  87.789  0.00  0.00    -0.270 OA
ATOM     31  H   UNL     1      15.802  80.861  85.912  0.00  0.00    +0.155 HD
BRANCH  14  15
ATOM     15  C   UNL     1      13.234  80.658  86.221  0.00  0.00    +0.037 A 
ATOM     16  C   UNL     1      11.958  80.001  85.927  0.00  0.00    +0.013 A 
ATOM     17  C   UNL     1      10.943  80.695  85.174  0.00  0.00    +0.005 A 
ATOM     18  C   UNL     1      11.202  82.056  84.710  0.00  0.00    -0.033 A 
ATOM     28  C   UNL     1      12.474  82.686  85.020  0.00  0.00    +0.005 A 
ATOM     29  C   UNL     1      13.471  82.008  85.758  0.00  0.00    +0.013 A 
BRANCH  18  19
ATOM     19  C   UNL     1      10.185  82.864  83.882  0.00  0.00    +0.119 C 
BRANCH  19  20
ATOM     20  N   UNL     1       9.098  83.564  84.628  0.00  0.00    -0.302 NA
ATOM     21  C   UNL     1       9.569  84.063  85.997  0.00  0.00    +0.066 C 
ATOM     22  C   UNL     1       8.425  84.812  86.754  0.00  0.00    -0.064 C 
ATOM     23  N   UNL     1       7.220  83.882  86.902  0.00  0.00    +0.379 N 
ATOM     24  C   UNL     1       6.164  84.564  87.665  0.00  0.00    -0.096 C 
ATOM     25  H   UNL     1       7.547  82.997  87.495  0.00  0.00    -0.082 HD
ATOM     26  C   UNL     1       6.746  83.380  85.546  0.00  0.00    -0.064 C 
ATOM     27  C   UNL     1       7.899  82.662  84.789  0.00  0.00    +0.066 C 
ENDBRANCH  19  20
ENDBRANCH  18  19
ENDBRANCH  14  15
ENDBRANCH  12  13
TORSDOF 6
ENDMDL
MODEL 5
REMARK VINA RESULT:      -9.0      4.501      7.766
REMARK  Name = C:\Users\Docking\Desktop\test protocol\1iep_ligandH.pdb
REMARK  8 active torsions:
REMARK  status: ('A' for Active; 'I' for Inactive)
REMARK    1  A    between atoms: _5  and  _11
REMARK    2  A    between atoms: _19  and  _21
REMARK    3  A    between atoms: _22  and  _66
REMARK    4  A    between atoms: _27  and  _30
REMARK    5  A    between atoms: _32  and  _33
REMARK    6  A    between atoms: _38  and  _43
REMARK    7  A    between atoms: _43  and  _46
REMARK    8  A    between atoms: _53  and  _55
REMARK                            x       y       z     vdW  Elec       q    Type
REMARK                         _______ _______ _______ _____ _____    ______ ____
ROOT
ATOM     10  C   UNL     1      16.930  79.217  89.124  0.00  0.00    +0.038 A 
ATOM     11  C   UNL     1      15.658  79.718  88.746  0.00  0.00    +0.047 A 
ATOM     12  C   UNL     1      15.450  80.339  87.447  0.00  0.00    +0.035 A 
ATOM     32  C   UNL     1      16.560  80.430  86.556  0.00  0.00    +0.024 A 
ATOM     33  C   UNL     1      17.859  79.927  86.925  0.00  0.00    +0.007 A 
ATOM     34  C   UNL     1      18.071  79.315  88.206  0.00  0.00    -0.029 A 
ATOM     35  C   UNL     1      19.488  78.799  88.551  0.00  0.00    +0.045 C 
ENDROOT
BRANCH  10   9
ATOM      4  C   UNL     1      17.379  75.388  91.984  0.00  0.00    +0.077 A 
ATOM      5  C   UNL     1      17.295  74.478  90.878  0.00  0.00    +0.048 A 
ATOM      6  C   UNL     1      17.129  75.036  89.591  0.00  0.00    +0.116 A 
ATOM      7  N   UNL     1      17.054  76.403  89.432  0.00  0.00    -0.223 NA
ATOM      8  C   UNL     1      17.138  77.252  90.520  0.00  0.00    +0.220 A 
ATOM      9  N   UNL     1      17.073  78.630  90.384  0.00  0.00    -0.283 N 
ATOM     36  H   UNL     1      17.131  79.222  91.212  0.00  0.00    +0.155 HD
ATOM     37  N   UNL     1      17.295  76.744  91.761  0.00  0.00    -0.214 NA
BRANCH   4   3
ATOM      1  C   UNL     1      17.776  73.185  95.191  0.00  0.00    +0.020 A 
ATOM      2  C   UNL     1      17.600  73.552  93.805  0.00  0.00    +0.013 A 
ATOM      3  C   UNL     1      17.558  74.953  93.405  0.00  0.00    +0.019 A 
ATOM     38  C   UNL     1      17.699  75.965  94.441  0.00  0.00    +0.120 A 
ATOM     39  N   UNL     1      17.865  75.582  95.768  0.00  0.00    -0.263 NA
ATOM     40  C   UNL     1      17.906  74.237  96.165  0.00  0.00    +0.111 A 
ENDBRANCH   4   3
ENDBRANCH  10   9
BRANCH  12  13
ATOM     13  N   UNL     1      14.184  80.873  87.010  0.00  0.00    -0.281 N 
ATOM     14  C   UNL     1      13.900  81.531  85.825  0.00  0.00    +0.248 C 
ATOM     30  O   UNL     1      14.745  81.951  85.048  0.00  0.00    -0.270 OA
ATOM     31  H   UNL     1      13.402  80.751  87.654  0.00  0.00    +0.155 HD
BRANCH  14  15
ATOM     15  C   UNL     1      12.472  81.770  85.456  0.00  0.00    +0.037 A 
ATOM     16  C   UNL     1      11.680  80.741  84.778  0.00  0.00    +0.013 A 
ATOM     17  C   UNL     1      10.309  81.003  84.417  0.00  0.00    +0.005 A 
ATOM     18  C   UNL     1       9.721  82.302  84.737  0.00  0.00    -0.033 A 
ATOM     28  C   UNL     1      10.528  83.303  85.415  0.00  0.00    +0.005 A 
ATOM     29  C   UNL     1      11.872  83.049  85.768  0.00  0.00    +0.013 A 
BRANCH  18  19
ATOM     19  C   UNL     1       8.273  82.677  84.371  0.00  0.00    +0.119 C 
BRANCH  19  20
ATOM     20  N   UNL     1       7.183  82.102  85.216  0.00  0.00    -0.302 NA
ATOM     21  C   UNL     1       5.893  81.884  84.420  0.00  0.00    +0.066 C 
ATOM     22  C   UNL     1       4.772  81.262  85.314  0.00  0.00    -0.064 C 
ATOM     23  N   UNL     1       4.519  82.172  86.517  0.00  0.00    +0.379 N 
ATOM     24  C   UNL     1       3.424  81.619  87.329  0.00  0.00    -0.096 C 
ATOM     25  H   UNL     1       4.185  83.162  86.128  0.00  0.00    -0.082 HD
ATOM     26  C   UNL     1       5.797  82.396  87.313  0.00  0.00    -0.064 C 
ATOM     27  C   UNL     1       6.914  82.988  86.408  0.00  0.00    +0.066 C 
ENDBRANCH  19  20
ENDBRANCH  18  19
ENDBRANCH  14  15
ENDBRANCH  12  13
TORSDOF 6
ENDMDL
