MODEL 1
REMARK VINA RESULT:     -10.3      0.000      0.000
REMARK  Name = C:\Users\Docking\Desktop\test protocol\1iep_ligandH.pdb
REMARK  8 active torsions:
REMARK  status: ('A' for Active; 'I' for Inactive)
REMARK    1  A    between atoms: _5  and  _11
REMARK    2  A    between atoms: _19  and  _21
REMARK    3  A    between atoms: _22  and  _66
REMARK    4  A    between atoms: _27  and  _30
REMARK    5  A    between atoms: _32  and  _33
REMARK    6  A    between atoms: _38  and  _43
REMARK    7  A    between atoms: _43  and  _46
REMARK    8  A    between atoms: _53  and  _55
REMARK                            x       y       z     vdW  Elec       q    Type
REMARK                         _______ _______ _______ _____ _____    ______ ____
ROOT
ATOM     10  C   UNL     1      12.307  82.958  85.083  0.00  0.00    +0.038 A 
ATOM     11  C   UNL     1      11.185  83.360  85.852  0.00  0.00    +0.047 A 
ATOM     12  C   UNL     1       9.932  83.736  85.215  0.00  0.00    +0.035 A 
ATOM     32  C   UNL     1       9.856  83.688  83.793  0.00  0.00    +0.024 A 
ATOM     33  C   UNL     1      10.987  83.282  82.996  0.00  0.00    +0.007 A 
ATOM     34  C   UNL     1      12.226  82.913  83.618  0.00  0.00    -0.029 A 
ATOM     35  C   UNL     1      13.408  82.492  82.714  0.00  0.00    +0.045 C 
ENDROOT
BRANCH  10   9
ATOM      4  C   UNL     1      15.088  79.795  87.385  0.00  0.00    +0.077 A 
ATOM      5  C   UNL     1      14.100  78.760  87.280  0.00  0.00    +0.048 A 
ATOM      6  C   UNL     1      12.886  79.085  86.633  0.00  0.00    +0.116 A 
ATOM      7  N   UNL     1      12.687  80.353  86.131  0.00  0.00    -0.223 NA
ATOM      8  C   UNL     1      13.660  81.328  86.251  0.00  0.00    +0.220 A 
ATOM      9  N   UNL     1      13.485  82.607  85.747  0.00  0.00    -0.283 N 
ATOM     36  H   UNL     1      14.224  83.301  85.861  0.00  0.00    +0.155 HD
ATOM     37  N   UNL     1      14.827  81.043  86.866  0.00  0.00    -0.214 NA
BRANCH   4   3
ATOM      1  C   UNL     1      18.944  79.630  88.019  0.00  0.00    +0.020 A 
ATOM      2  C   UNL     1      17.683  79.827  87.342  0.00  0.00    +0.013 A 
ATOM      3  C   UNL     1      16.422  79.605  88.038  0.00  0.00    +0.019 A 
ATOM     38  C   UNL     1      16.471  79.182  89.429  0.00  0.00    +0.120 A 
ATOM     39  N   UNL     1      17.701  78.999  90.055  0.00  0.00    -0.263 NA
ATOM     40  C   UNL     1      18.921  79.208  89.395  0.00  0.00    +0.111 A 
ENDBRANCH   4   3
ENDBRANCH  10   9
BRANCH  12  13
ATOM     13  N   UNL     1       8.762  84.160  85.943  0.00  0.00    -0.281 N 
ATOM     14  C   UNL     1       8.690  85.074  86.982  0.00  0.00    +0.248 C 
ATOM     30  O   UNL     1       9.658  85.509  87.588  0.00  0.00    -0.270 OA
ATOM     31  H   UNL     1       7.879  83.736  85.658  0.00  0.00    +0.155 HD
BRANCH  14  15
ATOM     15  C   UNL     1       7.348  85.565  87.420  0.00  0.00    +0.037 A 
ATOM     16  C   UNL     1       6.116  85.038  86.829  0.00  0.00    +0.013 A 
ATOM     17  C   UNL     1       4.835  85.542  87.258  0.00  0.00    +0.005 A 
ATOM     18  C   UNL     1       4.781  86.578  88.286  0.00  0.00    -0.033 A 
ATOM     28  C   UNL     1       6.019  87.080  88.859  0.00  0.00    +0.005 A 
ATOM     29  C   UNL     1       7.276  86.589  88.440  0.00  0.00    +0.013 A 
BRANCH  18  19
ATOM     19  C   UNL     1       3.459  87.189  88.789  0.00  0.00    +0.119 C 
BRANCH  19  20
ATOM     20  N   UNL     1       3.065  88.517  88.233  0.00  0.00    -0.302 NA
ATOM     21  C   UNL     1       3.285  89.650  89.240  0.00  0.00    +0.066 C 
ATOM     22  C   UNL     1       2.888  91.035  88.634  0.00  0.00    -0.064 C 
ATOM     23  N   UNL     1       1.428  90.991  88.180  0.00  0.00    +0.379 N 
ATOM     24  C   UNL     1       1.035  92.310  87.663  0.00  0.00    -0.096 C 
ATOM     25  H   UNL     1       0.801  90.778  89.077  0.00  0.00    -0.082 HD
ATOM     26  C   UNL     1       1.200  89.866  87.180  0.00  0.00    -0.064 C 
ATOM     27  C   UNL     1       1.625  88.497  87.782  0.00  0.00    +0.066 C 
ENDBRANCH  19  20
ENDBRANCH  18  19
ENDBRANCH  14  15
ENDBRANCH  12  13
TORSDOF 6
ENDMDL
MODEL 2
REMARK VINA RESULT:      -9.8      1.801      2.375
REMARK  Name = C:\Users\Docking\Desktop\test protocol\1iep_ligandH.pdb
REMARK  8 active torsions:
REMARK  status: ('A' for Active; 'I' for Inactive)
REMARK    1  A    between atoms: _5  and  _11
REMARK    2  A    between atoms: _19  and  _21
REMARK    3  A    between atoms: _22  and  _66
REMARK    4  A    between atoms: _27  and  _30
REMARK    5  A    between atoms: _32  and  _33
REMARK    6  A    between atoms: _38  and  _43
REMARK    7  A    between atoms: _43  and  _46
REMARK    8  A    between atoms: _53  and  _55
REMARK                            x       y       z     vdW  Elec       q    Type
REMARK                         _______ _______ _______ _____ _____    ______ ____
ROOT
ATOM     10  C   UNL     1      12.341  82.794  84.958  0.00  0.00    +0.038 A 
ATOM     11  C   UNL     1      11.133  83.044  85.659  0.00  0.00    +0.047 A 
ATOM     12  C   UNL     1       9.914  83.403  84.952  0.00  0.00    +0.035 A 
ATOM     32  C   UNL     1       9.959  83.496  83.531  0.00  0.00    +0.024 A 
ATOM     33  C   UNL     1      11.178  83.246  82.802  0.00  0.00    +0.007 A 
ATOM     34  C   UNL     1      12.385  82.894  83.494  0.00  0.00    -0.029 A 
ATOM     35  C   UNL     1      13.664  82.643  82.663  0.00  0.00    +0.045 C 
ENDROOT
BRANCH  10   9
ATOM      4  C   UNL     1      14.981  79.672  87.473  0.00  0.00    +0.077 A 
ATOM      5  C   UNL     1      13.991  78.642  87.346  0.00  0.00    +0.048 A 
ATOM      6  C   UNL     1      12.813  78.958  86.633  0.00  0.00    +0.116 A 
ATOM      7  N   UNL     1      12.649  80.214  86.090  0.00  0.00    -0.223 NA
ATOM      8  C   UNL     1      13.623  81.185  86.232  0.00  0.00    +0.220 A 
ATOM      9  N   UNL     1      13.482  82.452  85.687  0.00  0.00    -0.283 N 
ATOM     36  H   UNL     1      14.221  83.143  85.820  0.00  0.00    +0.155 HD
ATOM     37  N   UNL     1      14.756  80.909  86.910  0.00  0.00    -0.214 NA
BRANCH   4   3
ATOM      1  C   UNL     1      18.770  79.817  88.434  0.00  0.00    +0.020 A 
ATOM      2  C   UNL     1      17.543  80.020  87.698  0.00  0.00    +0.013 A 
ATOM      3  C   UNL     1      16.280  79.490  88.195  0.00  0.00    +0.019 A 
ATOM     38  C   UNL     1      16.291  78.754  89.450  0.00  0.00    +0.120 A 
ATOM     39  N   UNL     1      17.488  78.573  90.137  0.00  0.00    -0.263 NA
ATOM     40  C   UNL     1      18.710  79.077  89.668  0.00  0.00    +0.111 A 
ENDBRANCH   4   3
ENDBRANCH  10   9
BRANCH  12  13
ATOM     13  N   UNL     1       8.660  83.676  85.611  0.00  0.00    -0.281 N 
ATOM     14  C   UNL     1       8.291  84.821  86.298  0.00  0.00    +0.248 C 
ATOM     30  O   UNL     1       9.065  85.704  86.636  0.00  0.00    -0.270 OA
ATOM     31  H   UNL     1       7.960  82.936  85.564  0.00  0.00    +0.155 HD
BRANCH  14  15
ATOM     15  C   UNL     1       6.858  85.004  86.679  0.00  0.00    +0.037 A 
ATOM     16  C   UNL     1       5.898  83.900  86.580  0.00  0.00    +0.013 A 
ATOM     17  C   UNL     1       4.517  84.109  86.937  0.00  0.00    +0.005 A 
ATOM     18  C   UNL     1       4.088  85.427  87.398  0.00  0.00    -0.033 A 
ATOM     28  C   UNL     1       5.062  86.502  87.492  0.00  0.00    +0.005 A 
ATOM     29  C   UNL     1       6.416  86.302  87.141  0.00  0.00    +0.013 A 
BRANCH  18  19
ATOM     19  C   UNL     1       2.630  85.745  87.780  0.00  0.00    +0.119 C 
BRANCH  19  20
ATOM     20  N   UNL     1       1.697  86.109  86.673  0.00  0.00    -0.302 NA
ATOM     21  C   UNL     1       1.948  85.275  85.413  0.00  0.00    +0.066 C 
ATOM     22  C   UNL     1       0.948  85.653  84.272  0.00  0.00    -0.064 C 
ATOM     23  N   UNL     1       1.069  87.147  83.966  0.00  0.00    +0.379 N 
ATOM     24  C   UNL     1       0.172  87.494  82.854  0.00  0.00    -0.096 C 
ATOM     25  H   UNL     1       2.114  87.339  83.630  0.00  0.00    -0.082 HD
ATOM     26  C   UNL     1       0.824  87.983  85.213  0.00  0.00    -0.064 C 
ATOM     27  C   UNL     1       1.803  87.579  86.351  0.00  0.00    +0.066 C 
ENDBRANCH  19  20
ENDBRANCH  18  19
ENDBRANCH  14  15
ENDBRANCH  12  13
TORSDOF 6
ENDMDL
MODEL 3
REMARK VINA RESULT:      -9.0      5.496      8.213
REMARK  Name = C:\Users\Docking\Desktop\test protocol\1iep_ligandH.pdb
REMARK  8 active torsions:
REMARK  status: ('A' for Active; 'I' for Inactive)
REMARK    1  A    between atoms: _5  and  _11
REMARK    2  A    between atoms: _19  and  _21
REMARK    3  A    between atoms: _22  and  _66
REMARK    4  A    between atoms: _27  and  _30
REMARK    5  A    between atoms: _32  and  _33
REMARK    6  A    between atoms: _38  and  _43
REMARK    7  A    between atoms: _43  and  _46
REMARK    8  A    between atoms: _53  and  _55
REMARK                            x       y       z     vdW  Elec       q    Type
REMARK                         _______ _______ _______ _____ _____    ______ ____
ROOT
ATOM     10  C   UNL     1      16.934  79.201  89.151  0.00  0.00    +0.038 A 
ATOM     11  C   UNL     1      15.642  79.642  88.769  0.00  0.00    +0.047 A 
ATOM     12  C   UNL     1      15.407  80.243  87.465  0.00  0.00    +0.035 A 
ATOM     32  C   UNL     1      16.511  80.377  86.574  0.00  0.00    +0.024 A 
ATOM     33  C   UNL     1      17.832  79.935  86.947  0.00  0.00    +0.007 A 
ATOM     34  C   UNL     1      18.070  79.343  88.233  0.00  0.00    -0.029 A 
ATOM     35  C   UNL     1      19.508  78.893  88.581  0.00  0.00    +0.045 C 
ENDROOT
BRANCH  10   9
ATOM      4  C   UNL     1      17.402  75.409  92.056  0.00  0.00    +0.077 A 
ATOM      5  C   UNL     1      17.273  74.484  90.967  0.00  0.00    +0.048 A 
ATOM      6  C   UNL     1      17.080  75.025  89.676  0.00  0.00    +0.116 A 
ATOM      7  N   UNL     1      17.023  76.390  89.499  0.00  0.00    -0.223 NA
ATOM      8  C   UNL     1      17.149  77.254  90.571  0.00  0.00    +0.220 A 
ATOM      9  N   UNL     1      17.103  78.631  90.415  0.00  0.00    -0.283 N 
ATOM     36  H   UNL     1      17.193  79.234  91.232  0.00  0.00    +0.155 HD
ATOM     37  N   UNL     1      17.332  76.763  91.814  0.00  0.00    -0.214 NA
BRANCH   4   3
ATOM      1  C   UNL     1      17.856  73.246  95.284  0.00  0.00    +0.020 A 
ATOM      2  C   UNL     1      17.648  73.596  93.898  0.00  0.00    +0.013 A 
ATOM      3  C   UNL     1      17.613  74.991  93.478  0.00  0.00    +0.019 A 
ATOM     38  C   UNL     1      17.793  76.017  94.495  0.00  0.00    +0.120 A 
ATOM     39  N   UNL     1      17.990  75.651  95.823  0.00  0.00    -0.263 NA
ATOM     40  C   UNL     1      18.024  74.311  96.238  0.00  0.00    +0.111 A 
ENDBRANCH   4   3
ENDBRANCH  10   9
BRANCH  12  13
ATOM     13  N   UNL     1      14.118  80.717  87.025  0.00  0.00    -0.281 N 
ATOM     14  C   UNL     1      13.812  81.385  85.850  0.00  0.00    +0.248 C 
ATOM     30  O   UNL     1      14.642  81.866  85.093  0.00  0.00    -0.270 OA
ATOM     31  H   UNL     1      13.337  80.540  87.656  0.00  0.00    +0.155 HD
BRANCH  14  15
ATOM     15  C   UNL     1      12.377  81.554  85.469  0.00  0.00    +0.037 A 
ATOM     16  C   UNL     1      11.655  80.506  84.743  0.00  0.00    +0.013 A 
ATOM     17  C   UNL     1      10.276  80.701  84.372  0.00  0.00    +0.005 A 
ATOM     18  C   UNL     1       9.609  81.952  84.728  0.00  0.00    -0.033 A 
ATOM     28  C   UNL     1      10.348  82.972  85.453  0.00  0.00    +0.005 A 
ATOM     29  C   UNL     1      11.700  82.785  85.817  0.00  0.00    +0.013 A 
BRANCH  18  19
ATOM     19  C   UNL     1       8.146  82.255  84.355  0.00  0.00    +0.119 C 
BRANCH  19  20
ATOM     20  N   UNL     1       7.144  81.171  84.581  0.00  0.00    -0.302 NA
ATOM     21  C   UNL     1       5.956  81.277  83.620  0.00  0.00    +0.066 C 
ATOM     22  C   UNL     1       4.929  80.123  83.856  0.00  0.00    -0.064 C 
ATOM     23  N   UNL     1       4.454  80.156  85.309  0.00  0.00    +0.379 N 
ATOM     24  C   UNL     1       3.444  79.108  85.519  0.00  0.00    -0.096 C 
ATOM     25  H   UNL     1       3.960  81.140  85.481  0.00  0.00    -0.082 HD
ATOM     26  C   UNL     1       5.628  80.054  86.272  0.00  0.00    -0.064 C 
ATOM     27  C   UNL     1       6.658  81.188  86.010  0.00  0.00    +0.066 C 
ENDBRANCH  19  20
ENDBRANCH  18  19
ENDBRANCH  14  15
ENDBRANCH  12  13
TORSDOF 6
ENDMDL
MODEL 4
REMARK VINA RESULT:      -8.9      3.864      7.681
REMARK  Name = C:\Users\Docking\Desktop\test protocol\1iep_ligandH.pdb
REMARK  8 active torsions:
REMARK  status: ('A' for Active; 'I' for Inactive)
REMARK    1  A    between atoms: _5  and  _11
REMARK    2  A    between atoms: _19  and  _21
REMARK    3  A    between atoms: _22  and  _66
REMARK    4  A    between atoms: _27  and  _30
REMARK    5  A    between atoms: _32  and  _33
REMARK    6  A    between atoms: _38  and  _43
REMARK    7  A    between atoms: _43  and  _46
REMARK    8  A    between atoms: _53  and  _55
REMARK                            x       y       z     vdW  Elec       q    Type
REMARK                         _______ _______ _______ _____ _____    ______ ____
ROOT
ATOM     10  C   UNL     1      17.040  79.130  89.172  0.00  0.00    +0.038 A 
ATOM     11  C   UNL     1      15.751  79.388  88.638  0.00  0.00    +0.047 A 
ATOM     12  C   UNL     1      15.587  79.977  87.318  0.00  0.00    +0.035 A 
ATOM     32  C   UNL     1      16.758  80.287  86.567  0.00  0.00    +0.024 A 
ATOM     33  C   UNL     1      18.076  80.032  87.094  0.00  0.00    +0.007 A 
ATOM     34  C   UNL     1      18.243  79.454  88.397  0.00  0.00    -0.029 A 
ATOM     35  C   UNL     1      19.680  79.208  88.915  0.00  0.00    +0.045 C 
ENDROOT
BRANCH  10   9
ATOM      4  C   UNL     1      17.447  75.350  92.102  0.00  0.00    +0.077 A 
ATOM      5  C   UNL     1      17.436  74.425  91.006  0.00  0.00    +0.048 A 
ATOM      6  C   UNL     1      17.316  74.961  89.705  0.00  0.00    +0.116 A 
ATOM      7  N   UNL     1      17.217  76.324  89.524  0.00  0.00    -0.223 NA
ATOM      8  C   UNL     1      17.229  77.189  90.603  0.00  0.00    +0.220 A 
ATOM      9  N   UNL     1      17.138  78.563  90.445  0.00  0.00    -0.283 N 
ATOM     36  H   UNL     1      17.144  79.167  91.266  0.00  0.00    +0.155 HD
ATOM     37  N   UNL     1      17.341  76.701  91.856  0.00  0.00    -0.214 NA
BRANCH   4   3
ATOM      1  C   UNL     1      17.997  75.424  95.974  0.00  0.00    +0.020 A 
ATOM      2  C   UNL     1      17.890  75.874  94.606  0.00  0.00    +0.013 A 
ATOM      3  C   UNL     1      17.571  74.937  93.536  0.00  0.00    +0.019 A 
ATOM     38  C   UNL     1      17.364  73.541  93.888  0.00  0.00    +0.120 A 
ATOM     39  N   UNL     1      17.475  73.136  95.214  0.00  0.00    -0.263 NA
ATOM     40  C   UNL     1      17.783  74.028  96.252  0.00  0.00    +0.111 A 
ENDBRANCH   4   3
ENDBRANCH  10   9
BRANCH  12  13
ATOM     13  N   UNL     1      14.305  80.270  86.728  0.00  0.00    -0.281 N 
ATOM     14  C   UNL     1      13.210  79.429  86.609  0.00  0.00    +0.248 C 
ATOM     30  O   UNL     1      13.241  78.223  86.802  0.00  0.00    -0.270 OA
ATOM     31  H   UNL     1      14.190  81.211  86.352  0.00  0.00    +0.155 HD
BRANCH  14  15
ATOM     15  C   UNL     1      11.895  80.010  86.202  0.00  0.00    +0.037 A 
ATOM     16  C   UNL     1      11.818  81.262  85.446  0.00  0.00    +0.013 A 
ATOM     17  C   UNL     1      10.535  81.810  85.082  0.00  0.00    +0.005 A 
ATOM     18  C   UNL     1       9.318  81.103  85.472  0.00  0.00    -0.033 A 
ATOM     28  C   UNL     1       9.423  79.859  86.217  0.00  0.00    +0.005 A 
ATOM     29  C   UNL     1      10.678  79.320  86.577  0.00  0.00    +0.013 A 
BRANCH  18  19
ATOM     19  C   UNL     1       7.906  81.624  85.144  0.00  0.00    +0.119 C 
BRANCH  19  20
ATOM     20  N   UNL     1       7.343  82.681  86.036  0.00  0.00    -0.302 NA
ATOM     21  C   UNL     1       5.862  82.945  85.750  0.00  0.00    +0.066 C 
ATOM     22  C   UNL     1       5.284  84.037  86.708  0.00  0.00    -0.064 C 
ATOM     23  N   UNL     1       6.101  85.322  86.564  0.00  0.00    +0.379 N 
ATOM     24  C   UNL     1       5.524  86.369  87.420  0.00  0.00    -0.096 C 
ATOM     25  H   UNL     1       6.012  85.663  85.506  0.00  0.00    -0.082 HD
ATOM     26  C   UNL     1       7.575  85.068  86.844  0.00  0.00    -0.064 C 
ATOM     27  C   UNL     1       8.133  83.960  85.907  0.00  0.00    +0.066 C 
ENDBRANCH  19  20
ENDBRANCH  18  19
ENDBRANCH  14  15
ENDBRANCH  12  13
TORSDOF 6
ENDMDL
MODEL 5
REMARK VINA RESULT:      -8.7     25.303     26.738
REMARK  Name = C:\Users\Docking\Desktop\test protocol\1iep_ligandH.pdb
REMARK  8 active torsions:
REMARK  status: ('A' for Active; 'I' for Inactive)
REMARK    1  A    between atoms: _5  and  _11
REMARK    2  A    between atoms: _19  and  _21
REMARK    3  A    between atoms: _22  and  _66
REMARK    4  A    between atoms: _27  and  _30
REMARK    5  A    between atoms: _32  and  _33
REMARK    6  A    between atoms: _38  and  _43
REMARK    7  A    between atoms: _43  and  _46
REMARK    8  A    between atoms: _53  and  _55
REMARK                            x       y       z     vdW  Elec       q    Type
REMARK                         _______ _______ _______ _____ _____    ______ ____
ROOT
ATOM     10  C   UNL     1      25.787 107.772  81.727  0.00  0.00    +0.038 A 
ATOM     11  C   UNL     1      24.942 106.642  81.871  0.00  0.00    +0.047 A 
ATOM     12  C   UNL     1      23.820 106.421  80.972  0.00  0.00    +0.035 A 
ATOM     32  C   UNL     1      23.589 107.371  79.935  0.00  0.00    +0.024 A 
ATOM     33  C   UNL     1      24.437 108.526  79.774  0.00  0.00    +0.007 A 
ATOM     34  C   UNL     1      25.544 108.750  80.659  0.00  0.00    -0.029 A 
ATOM     35  C   UNL     1      26.416 110.009  80.444  0.00  0.00    +0.045 C 
ENDROOT
BRANCH  10   9
ATOM      4  C   UNL     1      30.238 106.789  83.230  0.00  0.00    +0.077 A 
ATOM      5  C   UNL     1      30.454 105.852  82.165  0.00  0.00    +0.048 A 
ATOM      6  C   UNL     1      29.392 105.647  81.256  0.00  0.00    +0.116 A 
ATOM      7  N   UNL     1      28.207 106.333  81.410  0.00  0.00    -0.223 NA
ATOM      8  C   UNL     1      28.031 107.228  82.449  0.00  0.00    +0.220 A 
ATOM      9  N   UNL     1      26.850 107.934  82.618  0.00  0.00    -0.283 N 
ATOM     36  H   UNL     1      26.757 108.580  83.402  0.00  0.00    +0.155 HD
ATOM     37  N   UNL     1      29.029 107.440  83.331  0.00  0.00    -0.214 NA
BRANCH   4   3
ATOM      1  C   UNL     1      33.564 107.874  84.978  0.00  0.00    +0.020 A 
ATOM      2  C   UNL     1      32.610 107.571  83.937  0.00  0.00    +0.013 A 
ATOM      3  C   UNL     1      31.265 107.116  84.269  0.00  0.00    +0.019 A 
ATOM     38  C   UNL     1      30.916 106.979  85.674  0.00  0.00    +0.120 A 
ATOM     39  N   UNL     1      31.856 107.277  86.655  0.00  0.00    -0.263 NA
ATOM     40  C   UNL     1      33.153 107.713  86.348  0.00  0.00    +0.111 A 
ENDBRANCH   4   3
ENDBRANCH  10   9
BRANCH  12  13
ATOM     13  N   UNL     1      22.923 105.297  81.075  0.00  0.00    -0.281 N 
ATOM     14  C   UNL     1      22.656 104.331  80.119  0.00  0.00    +0.248 C 
ATOM     30  O   UNL     1      22.989 104.408  78.946  0.00  0.00    -0.270 OA
ATOM     31  H   UNL     1      22.425 105.202  81.960  0.00  0.00    +0.155 HD
BRANCH  14  15
ATOM     15  C   UNL     1      21.896 103.108  80.522  0.00  0.00    +0.037 A 
ATOM     16  C   UNL     1      21.645 102.022  79.571  0.00  0.00    +0.013 A 
ATOM     17  C   UNL     1      20.895 100.861  79.980  0.00  0.00    +0.005 A 
ATOM     18  C   UNL     1      20.391 100.780  81.349  0.00  0.00    -0.033 A 
ATOM     28  C   UNL     1      20.660 101.869  82.273  0.00  0.00    +0.005 A 
ATOM     29  C   UNL     1      21.394 103.009  81.875  0.00  0.00    +0.013 A 
BRANCH  18  19
ATOM     19  C   UNL     1      19.564  99.589  81.866  0.00  0.00    +0.119 C 
BRANCH  19  20
ATOM     20  N   UNL     1      19.118  98.578  80.861  0.00  0.00    -0.302 NA
ATOM     21  C   UNL     1      17.937  99.081  80.025  0.00  0.00    +0.066 C 
ATOM     22  C   UNL     1      17.498  98.020  78.964  0.00  0.00    -0.064 C 
ATOM     23  N   UNL     1      17.142  96.712  79.672  0.00  0.00    +0.379 N 
ATOM     24  C   UNL     1      16.674  95.731  78.682  0.00  0.00    -0.096 C 
ATOM     25  H   UNL     1      16.296  96.923  80.366  0.00  0.00    -0.082 HD
ATOM     26  C   UNL     1      18.310  96.206  80.507  0.00  0.00    -0.064 C 
ATOM     27  C   UNL     1      18.757  97.279  81.539  0.00  0.00    +0.066 C 
ENDBRANCH  19  20
ENDBRANCH  18  19
ENDBRANCH  14  15
ENDBRANCH  12  13
TORSDOF 6
ENDMDL
