MODEL 1
REMARK VINA RESULT:     -10.4      0.000      0.000
REMARK  Name = C:\Users\Docking\Desktop\test protocol\1iep_ligandH.pdb
REMARK  8 active torsions:
REMARK  status: ('A' for Active; 'I' for Inactive)
REMARK    1  A    between atoms: _5  and  _11
REMARK    2  A    between atoms: _19  and  _21
REMARK    3  A    between atoms: _22  and  _66
REMARK    4  A    between atoms: _27  and  _30
REMARK    5  A    between atoms: _32  and  _33
REMARK    6  A    between atoms: _38  and  _43
REMARK    7  A    between atoms: _43  and  _46
REMARK    8  A    between atoms: _53  and  _55
REMARK                            x       y       z     vdW  Elec       q    Type
REMARK                         _______ _______ _______ _____ _____    ______ ____
ROOT
ATOM     10  C   UNL     1      12.386  82.962  85.082  0.00  0.00    +0.038 A 
ATOM     11  C   UNL     1      11.292  83.408  85.867  0.00  0.00    +0.047 A 
ATOM     12  C   UNL     1      10.032  83.794  85.252  0.00  0.00    +0.035 A 
ATOM     32  C   UNL     1       9.919  83.711  83.833  0.00  0.00    +0.024 A 
ATOM     33  C   UNL     1      11.021  83.262  83.019  0.00  0.00    +0.007 A 
ATOM     34  C   UNL     1      12.268  82.882  83.621  0.00  0.00    -0.029 A 
ATOM     35  C   UNL     1      13.417  82.413  82.699  0.00  0.00    +0.045 C 
ENDROOT
BRANCH  10   9
ATOM      4  C   UNL     1      15.175  79.787  87.356  0.00  0.00    +0.077 A 
ATOM      5  C   UNL     1      14.173  78.763  87.280  0.00  0.00    +0.048 A 
ATOM      6  C   UNL     1      12.951  79.096  86.654  0.00  0.00    +0.116 A 
ATOM      7  N   UNL     1      12.757  80.362  86.145  0.00  0.00    -0.223 NA
ATOM      8  C   UNL     1      13.743  81.327  86.236  0.00  0.00    +0.220 A 
ATOM      9  N   UNL     1      13.573  82.604  85.725  0.00  0.00    -0.283 N 
ATOM     36  H   UNL     1      14.322  83.289  85.819  0.00  0.00    +0.155 HD
ATOM     37  N   UNL     1      14.919  81.034  86.831  0.00  0.00    -0.214 NA
BRANCH   4   3
ATOM      1  C   UNL     1      19.040  79.523  87.899  0.00  0.00    +0.020 A 
ATOM      2  C   UNL     1      17.768  79.726  87.245  0.00  0.00    +0.013 A 
ATOM      3  C   UNL     1      16.520  79.587  87.984  0.00  0.00    +0.019 A 
ATOM     38  C   UNL     1      16.594  79.240  89.395  0.00  0.00    +0.120 A 
ATOM     39  N   UNL     1      17.833  79.049  89.998  0.00  0.00    -0.263 NA
ATOM     40  C   UNL     1      19.041  79.178  89.297  0.00  0.00    +0.111 A 
ENDBRANCH   4   3
ENDBRANCH  10   9
BRANCH  12  13
ATOM     13  N   UNL     1       8.890  84.262  85.997  0.00  0.00    -0.281 N 
ATOM     14  C   UNL     1       8.882  85.005  87.166  0.00  0.00    +0.248 C 
ATOM     30  O   UNL     1       9.863  85.199  87.868  0.00  0.00    -0.270 OA
ATOM     31  H   UNL     1       7.976  84.015  85.616  0.00  0.00    +0.155 HD
BRANCH  14  15
ATOM     15  C   UNL     1       7.595  85.607  87.630  0.00  0.00    +0.037 A 
ATOM     16  C   UNL     1       7.558  86.552  88.750  0.00  0.00    +0.013 A 
ATOM     17  C   UNL     1       6.301  87.105  89.188  0.00  0.00    +0.005 A 
ATOM     18  C   UNL     1       5.070  86.715  88.506  0.00  0.00    -0.033 A 
ATOM     28  C   UNL     1       5.136  85.780  87.395  0.00  0.00    +0.005 A 
ATOM     29  C   UNL     1       6.366  85.235  86.963  0.00  0.00    +0.013 A 
BRANCH  18  19
ATOM     19  C   UNL     1       3.682  87.239  88.920  0.00  0.00    +0.119 C 
BRANCH  19  20
ATOM     20  N   UNL     1       3.207  88.499  88.276  0.00  0.00    -0.302 NA
ATOM     21  C   UNL     1       3.243  89.687  89.241  0.00  0.00    +0.066 C 
ATOM     22  C   UNL     1       2.764  91.002  88.545  0.00  0.00    -0.064 C 
ATOM     23  N   UNL     1       1.353  90.797  87.990  0.00  0.00    +0.379 N 
ATOM     24  C   UNL     1       0.877  92.050  87.385  0.00  0.00    -0.096 C 
ATOM     25  H   UNL     1       0.684  90.561  88.850  0.00  0.00    -0.082 HD
ATOM     26  C   UNL     1       1.308  89.616  87.031  0.00  0.00    -0.064 C 
ATOM     27  C   UNL     1       1.814  88.321  87.725  0.00  0.00    +0.066 C 
ENDBRANCH  19  20
ENDBRANCH  18  19
ENDBRANCH  14  15
ENDBRANCH  12  13
TORSDOF 6
ENDMDL
MODEL 2
REMARK VINA RESULT:     -10.3     20.748     22.323
REMARK  Name = C:\Users\Docking\Desktop\test protocol\1iep_ligandH.pdb
REMARK  8 active torsions:
REMARK  status: ('A' for Active; 'I' for Inactive)
REMARK    1  A    between atoms: _5  and  _11
REMARK    2  A    between atoms: _19  and  _21
REMARK    3  A    between atoms: _22  and  _66
REMARK    4  A    between atoms: _27  and  _30
REMARK    5  A    between atoms: _32  and  _33
REMARK    6  A    between atoms: _38  and  _43
REMARK    7  A    between atoms: _43  and  _46
REMARK    8  A    between atoms: _53  and  _55
REMARK                            x       y       z     vdW  Elec       q    Type
REMARK                         _______ _______ _______ _____ _____    ______ ____
ROOT
ATOM     10  C   UNL     1      20.946 101.480  81.480  0.00  0.00    +0.038 A 
ATOM     11  C   UNL     1      20.628 102.318  82.579  0.00  0.00    +0.047 A 
ATOM     12  C   UNL     1      21.111 103.688  82.645  0.00  0.00    +0.035 A 
ATOM     32  C   UNL     1      21.913 104.174  81.572  0.00  0.00    +0.024 A 
ATOM     33  C   UNL     1      22.246 103.336  80.447  0.00  0.00    +0.007 A 
ATOM     34  C   UNL     1      21.775 101.982  80.378  0.00  0.00    -0.029 A 
ATOM     35  C   UNL     1      22.169 101.127  79.151  0.00  0.00    +0.045 C 
ENDROOT
BRANCH  10   9
ATOM      4  C   UNL     1      17.853  98.132  79.975  0.00  0.00    +0.077 A 
ATOM      5  C   UNL     1      17.137  99.074  79.164  0.00  0.00    +0.048 A 
ATOM      6  C   UNL     1      17.592 100.412  79.167  0.00  0.00    +0.116 A 
ATOM      7  N   UNL     1      18.684 100.769  79.928  0.00  0.00    -0.223 NA
ATOM      8  C   UNL     1      19.351  99.836  80.701  0.00  0.00    +0.220 A 
ATOM      9  N   UNL     1      20.455 100.172  81.468  0.00  0.00    -0.283 N 
ATOM     36  H   UNL     1      20.915  99.456  82.031  0.00  0.00    +0.155 HD
ATOM     37  N   UNL     1      18.934  98.553  80.716  0.00  0.00    -0.214 NA
BRANCH   4   3
ATOM      1  C   UNL     1      16.524  94.549  79.139  0.00  0.00    +0.020 A 
ATOM      2  C   UNL     1      16.848  95.950  78.993  0.00  0.00    +0.013 A 
ATOM      3  C   UNL     1      17.495  96.682  80.074  0.00  0.00    +0.019 A 
ATOM     38  C   UNL     1      17.805  95.961  81.300  0.00  0.00    +0.120 A 
ATOM     39  N   UNL     1      17.480  94.613  81.413  0.00  0.00    -0.263 NA
ATOM     40  C   UNL     1      16.855  93.899  80.379  0.00  0.00    +0.111 A 
ENDBRANCH   4   3
ENDBRANCH  10   9
BRANCH  12  13
ATOM     13  N   UNL     1      20.827 104.583  83.740  0.00  0.00    -0.281 N 
ATOM     14  C   UNL     1      19.601 105.106  84.117  0.00  0.00    +0.248 C 
ATOM     30  O   UNL     1      18.588 105.052  83.436  0.00  0.00    -0.270 OA
ATOM     31  H   UNL     1      21.628 104.865  84.305  0.00  0.00    +0.155 HD
BRANCH  14  15
ATOM     15  C   UNL     1      19.487 105.802  85.434  0.00  0.00    +0.037 A 
ATOM     16  C   UNL     1      20.629 106.509  86.021  0.00  0.00    +0.013 A 
ATOM     17  C   UNL     1      20.497 107.158  87.302  0.00  0.00    +0.005 A 
ATOM     18  C   UNL     1      19.216 107.104  88.003  0.00  0.00    -0.033 A 
ATOM     28  C   UNL     1      18.099 106.400  87.396  0.00  0.00    +0.005 A 
ATOM     29  C   UNL     1      18.225 105.762  86.141  0.00  0.00    +0.013 A 
BRANCH  18  19
ATOM     19  C   UNL     1      18.991 107.750  89.383  0.00  0.00    +0.119 C 
BRANCH  19  20
ATOM     20  N   UNL     1      19.531 107.026  90.573  0.00  0.00    -0.302 NA
ATOM     21  C   UNL     1      21.049 107.182  90.700  0.00  0.00    +0.066 C 
ATOM     22  C   UNL     1      21.593 106.437  91.963  0.00  0.00    -0.064 C 
ATOM     23  N   UNL     1      21.204 104.960  91.888  0.00  0.00    +0.379 N 
ATOM     24  C   UNL     1      21.764 104.246  93.044  0.00  0.00    -0.096 C 
ATOM     25  H   UNL     1      21.670 104.534  90.969  0.00  0.00    -0.082 HD
ATOM     26  C   UNL     1      19.697 104.796  91.758  0.00  0.00    -0.064 C 
ATOM     27  C   UNL     1      19.162 105.564  90.517  0.00  0.00    +0.066 C 
ENDBRANCH  19  20
ENDBRANCH  18  19
ENDBRANCH  14  15
ENDBRANCH  12  13
TORSDOF 6
ENDMDL
MODEL 3
REMARK VINA RESULT:      -9.9      1.793      2.358
REMARK  Name = C:\Users\Docking\Desktop\test protocol\1iep_ligandH.pdb
REMARK  8 active torsions:
REMARK  status: ('A' for Active; 'I' for Inactive)
REMARK    1  A    between atoms: _5  and  _11
REMARK    2  A    between atoms: _19  and  _21
REMARK    3  A    between atoms: _22  and  _66
REMARK    4  A    between atoms: _27  and  _30
REMARK    5  A    between atoms: _32  and  _33
REMARK    6  A    between atoms: _38  and  _43
REMARK    7  A    between atoms: _43  and  _46
REMARK    8  A    between atoms: _53  and  _55
REMARK                            x       y       z     vdW  Elec       q    Type
REMARK                         _______ _______ _______ _____ _____    ______ ____
ROOT
ATOM     10  C   UNL     1      12.280  82.890  85.004  0.00  0.00    +0.038 A 
ATOM     11  C   UNL     1      11.105  83.218  85.727  0.00  0.00    +0.047 A 
ATOM     12  C   UNL     1       9.877  83.586  85.039  0.00  0.00    +0.035 A 
ATOM     32  C   UNL     1       9.881  83.607  83.614  0.00  0.00    +0.024 A 
ATOM     33  C   UNL     1      11.067  83.277  82.863  0.00  0.00    +0.007 A 
ATOM     34  C   UNL     1      12.282  82.916  83.536  0.00  0.00    -0.029 A 
ATOM     35  C   UNL     1      13.526  82.579  82.681  0.00  0.00    +0.045 C 
ENDROOT
BRANCH  10   9
ATOM      4  C   UNL     1      14.973  79.739  87.423  0.00  0.00    +0.077 A 
ATOM      5  C   UNL     1      13.992  78.702  87.282  0.00  0.00    +0.048 A 
ATOM      6  C   UNL     1      12.805  79.022  86.585  0.00  0.00    +0.116 A 
ATOM      7  N   UNL     1      12.624  80.288  86.073  0.00  0.00    -0.223 NA
ATOM      8  C   UNL     1      13.590  81.266  86.229  0.00  0.00    +0.220 A 
ATOM      9  N   UNL     1      13.432  82.544  85.715  0.00  0.00    -0.283 N 
ATOM     36  H   UNL     1      14.164  83.239  85.858  0.00  0.00    +0.155 HD
ATOM     37  N   UNL     1      14.731  80.985  86.891  0.00  0.00    -0.214 NA
BRANCH   4   3
ATOM      1  C   UNL     1      18.791  79.750  88.276  0.00  0.00    +0.020 A 
ATOM      2  C   UNL     1      17.557  79.951  87.551  0.00  0.00    +0.013 A 
ATOM      3  C   UNL     1      16.280  79.553  88.130  0.00  0.00    +0.019 A 
ATOM     38  C   UNL     1      16.286  78.952  89.455  0.00  0.00    +0.120 A 
ATOM     39  N   UNL     1      17.490  78.770  90.129  0.00  0.00    -0.263 NA
ATOM     40  C   UNL     1      18.725  79.147  89.581  0.00  0.00    +0.111 A 
ENDBRANCH   4   3
ENDBRANCH  10   9
BRANCH  12  13
ATOM     13  N   UNL     1       8.655  83.937  85.720  0.00  0.00    -0.281 N 
ATOM     14  C   UNL     1       8.409  85.048  86.509  0.00  0.00    +0.248 C 
ATOM     30  O   UNL     1       9.273  85.805  86.926  0.00  0.00    -0.270 OA
ATOM     31  H   UNL     1       7.877  83.287  85.605  0.00  0.00    +0.155 HD
BRANCH  14  15
ATOM     15  C   UNL     1       7.001  85.355  86.905  0.00  0.00    +0.037 A 
ATOM     16  C   UNL     1       6.659  86.604  87.591  0.00  0.00    +0.013 A 
ATOM     17  C   UNL     1       5.295  86.867  87.976  0.00  0.00    +0.005 A 
ATOM     18  C   UNL     1       4.262  85.880  87.675  0.00  0.00    -0.033 A 
ATOM     28  C   UNL     1       4.628  84.652  86.988  0.00  0.00    +0.005 A 
ATOM     29  C   UNL     1       5.964  84.389  86.610  0.00  0.00    +0.013 A 
BRANCH  18  19
ATOM     19  C   UNL     1       2.785  86.068  88.068  0.00  0.00    +0.119 C 
BRANCH  19  20
ATOM     20  N   UNL     1       1.819  86.371  86.970  0.00  0.00    -0.302 NA
ATOM     21  C   UNL     1       1.275  85.098  86.315  0.00  0.00    +0.066 C 
ATOM     22  C   UNL     1       0.249  85.434  85.184  0.00  0.00    -0.064 C 
ATOM     23  N   UNL     1       0.917  86.336  84.144  0.00  0.00    +0.379 N 
ATOM     24  C   UNL     1      -0.028  86.606  83.050  0.00  0.00    -0.096 C 
ATOM     25  H   UNL     1       1.780  85.776  83.716  0.00  0.00    -0.082 HD
ATOM     26  C   UNL     1       1.462  87.603  84.788  0.00  0.00    -0.064 C 
ATOM     27  C   UNL     1       2.458  87.258  85.930  0.00  0.00    +0.066 C 
ENDBRANCH  19  20
ENDBRANCH  18  19
ENDBRANCH  14  15
ENDBRANCH  12  13
TORSDOF 6
ENDMDL
MODEL 4
REMARK VINA RESULT:      -9.4      3.973      8.167
REMARK  Name = C:\Users\Docking\Desktop\test protocol\1iep_ligandH.pdb
REMARK  8 active torsions:
REMARK  status: ('A' for Active; 'I' for Inactive)
REMARK    1  A    between atoms: _5  and  _11
REMARK    2  A    between atoms: _19  and  _21
REMARK    3  A    between atoms: _22  and  _66
REMARK    4  A    between atoms: _27  and  _30
REMARK    5  A    between atoms: _32  and  _33
REMARK    6  A    between atoms: _38  and  _43
REMARK    7  A    between atoms: _43  and  _46
REMARK    8  A    between atoms: _53  and  _55
REMARK                            x       y       z     vdW  Elec       q    Type
REMARK                         _______ _______ _______ _____ _____    ______ ____
ROOT
ATOM     10  C   UNL     1      17.760  78.898  89.535  0.00  0.00    +0.038 A 
ATOM     11  C   UNL     1      16.551  79.240  88.876  0.00  0.00    +0.047 A 
ATOM     12  C   UNL     1      16.560  79.947  87.605  0.00  0.00    +0.035 A 
ATOM     32  C   UNL     1      17.820  80.289  87.032  0.00  0.00    +0.024 A 
ATOM     33  C   UNL     1      19.058  79.950  87.688  0.00  0.00    +0.007 A 
ATOM     34  C   UNL     1      19.055  79.255  88.944  0.00  0.00    -0.029 A 
ATOM     35  C   UNL     1      20.413  78.924  89.606  0.00  0.00    +0.045 C 
ENDROOT
BRANCH  10   9
ATOM      4  C   UNL     1      17.492  74.865  92.124  0.00  0.00    +0.077 A 
ATOM      5  C   UNL     1      17.457  74.043  90.948  0.00  0.00    +0.048 A 
ATOM      6  C   UNL     1      17.503  74.698  89.697  0.00  0.00    +0.116 A 
ATOM      7  N   UNL     1      17.578  76.072  89.637  0.00  0.00    -0.223 NA
ATOM      8  C   UNL     1      17.608  76.836  90.790  0.00  0.00    +0.220 A 
ATOM      9  N   UNL     1      17.692  78.219  90.754  0.00  0.00    -0.283 N 
ATOM     36  H   UNL     1      17.704  78.747  91.626  0.00  0.00    +0.155 HD
ATOM     37  N   UNL     1      17.564  76.235  91.997  0.00  0.00    -0.214 NA
BRANCH   4   3
ATOM      1  C   UNL     1      17.235  72.433  95.176  0.00  0.00    +0.020 A 
ATOM      2  C   UNL     1      17.263  72.907  93.812  0.00  0.00    +0.013 A 
ATOM      3  C   UNL     1      17.454  74.321  93.518  0.00  0.00    +0.019 A 
ATOM     38  C   UNL     1      17.616  75.238  94.637  0.00  0.00    +0.120 A 
ATOM     39  N   UNL     1      17.583  74.753  95.941  0.00  0.00    -0.263 NA
ATOM     40  C   UNL     1      17.398  73.394  96.235  0.00  0.00    +0.111 A 
ENDBRANCH   4   3
ENDBRANCH  10   9
BRANCH  12  13
ATOM     13  N   UNL     1      15.365  80.327  86.894  0.00  0.00    -0.281 N 
ATOM     14  C   UNL     1      14.128  79.705  86.915  0.00  0.00    +0.248 C 
ATOM     30  O   UNL     1      13.919  78.597  87.386  0.00  0.00    -0.270 OA
ATOM     31  H   UNL     1      15.441  81.155  86.303  0.00  0.00    +0.155 HD
BRANCH  14  15
ATOM     15  C   UNL     1      12.955  80.410  86.313  0.00  0.00    +0.037 A 
ATOM     16  C   UNL     1      13.054  81.800  85.860  0.00  0.00    +0.013 A 
ATOM     17  C   UNL     1      11.903  82.462  85.299  0.00  0.00    +0.005 A 
ATOM     18  C   UNL     1      10.642  81.733  85.186  0.00  0.00    -0.033 A 
ATOM     28  C   UNL     1      10.573  80.353  85.639  0.00  0.00    +0.005 A 
ATOM     29  C   UNL     1      11.699  79.702  86.190  0.00  0.00    +0.013 A 
BRANCH  18  19
ATOM     19  C   UNL     1       9.358  82.366  84.620  0.00  0.00    +0.119 C 
BRANCH  19  20
ATOM     20  N   UNL     1       8.400  82.963  85.598  0.00  0.00    -0.302 NA
ATOM     21  C   UNL     1       6.956  82.910  85.094  0.00  0.00    +0.066 C 
ATOM     22  C   UNL     1       5.965  83.517  86.139  0.00  0.00    -0.064 C 
ATOM     23  N   UNL     1       6.377  84.957  86.452  0.00  0.00    +0.379 N 
ATOM     24  C   UNL     1       5.414  85.550  87.391  0.00  0.00    -0.096 C 
ATOM     25  H   UNL     1       6.324  85.537  85.501  0.00  0.00    -0.082 HD
ATOM     26  C   UNL     1       7.813  85.019  86.951  0.00  0.00    -0.064 C 
ATOM     27  C   UNL     1       8.786  84.386  85.918  0.00  0.00    +0.066 C 
ENDBRANCH  19  20
ENDBRANCH  18  19
ENDBRANCH  14  15
ENDBRANCH  12  13
TORSDOF 6
ENDMDL
MODEL 5
REMARK VINA RESULT:      -9.0      5.926      8.345
REMARK  Name = C:\Users\Docking\Desktop\test protocol\1iep_ligandH.pdb
REMARK  8 active torsions:
REMARK  status: ('A' for Active; 'I' for Inactive)
REMARK    1  A    between atoms: _5  and  _11
REMARK    2  A    between atoms: _19  and  _21
REMARK    3  A    between atoms: _22  and  _66
REMARK    4  A    between atoms: _27  and  _30
REMARK    5  A    between atoms: _32  and  _33
REMARK    6  A    between atoms: _38  and  _43
REMARK    7  A    between atoms: _43  and  _46
REMARK    8  A    between atoms: _53  and  _55
REMARK                            x       y       z     vdW  Elec       q    Type
REMARK                         _______ _______ _______ _____ _____    ______ ____
ROOT
ATOM     10  C   UNL     1      16.634  79.329  89.023  0.00  0.00    +0.038 A 
ATOM     11  C   UNL     1      15.320  79.492  88.514  0.00  0.00    +0.047 A 
ATOM     12  C   UNL     1      15.088  80.081  87.204  0.00  0.00    +0.035 A 
ATOM     32  C   UNL     1      16.217  80.490  86.438  0.00  0.00    +0.024 A 
ATOM     33  C   UNL     1      17.560  80.333  86.940  0.00  0.00    +0.007 A 
ATOM     34  C   UNL     1      17.795  79.755  88.232  0.00  0.00    -0.029 A 
ATOM     35  C   UNL     1      19.255  79.617  88.722  0.00  0.00    +0.045 C 
ENDROOT
BRANCH  10   9
ATOM      4  C   UNL     1      17.322  75.552  91.903  0.00  0.00    +0.077 A 
ATOM      5  C   UNL     1      17.325  74.636  90.799  0.00  0.00    +0.048 A 
ATOM      6  C   UNL     1      17.140  75.176  89.507  0.00  0.00    +0.116 A 
ATOM      7  N   UNL     1      16.965  76.533  89.343  0.00  0.00    -0.223 NA
ATOM      8  C   UNL     1      16.965  77.389  90.429  0.00  0.00    +0.220 A 
ATOM      9  N   UNL     1      16.799  78.758  90.286  0.00  0.00    -0.283 N 
ATOM     36  H   UNL     1      16.798  79.355  91.113  0.00  0.00    +0.155 HD
ATOM     37  N   UNL     1      17.139  76.898  91.674  0.00  0.00    -0.214 NA
BRANCH   4   3
ATOM      1  C   UNL     1      17.686  73.390  95.143  0.00  0.00    +0.020 A 
ATOM      2  C   UNL     1      17.500  73.740  93.753  0.00  0.00    +0.013 A 
ATOM      3  C   UNL     1      17.509  75.135  93.329  0.00  0.00    +0.019 A 
ATOM     38  C   UNL     1      17.709  76.159  94.343  0.00  0.00    +0.120 A 
ATOM     39  N   UNL     1      17.884  75.792  95.674  0.00  0.00    -0.263 NA
ATOM     40  C   UNL     1      17.876  74.453  96.094  0.00  0.00    +0.111 A 
ENDBRANCH   4   3
ENDBRANCH  10   9
BRANCH  12  13
ATOM     13  N   UNL     1      13.776  80.278  86.639  0.00  0.00    -0.281 N 
ATOM     14  C   UNL     1      12.766  79.343  86.482  0.00  0.00    +0.248 C 
ATOM     30  O   UNL     1      12.916  78.137  86.610  0.00  0.00    -0.270 OA
ATOM     31  H   UNL     1      13.566  81.223  86.316  0.00  0.00    +0.155 HD
BRANCH  14  15
ATOM     15  C   UNL     1      11.396  79.814  86.117  0.00  0.00    +0.037 A 
ATOM     16  C   UNL     1      10.199  79.162  86.655  0.00  0.00    +0.013 A 
ATOM     17  C   UNL     1       8.889  79.626  86.272  0.00  0.00    +0.005 A 
ATOM     18  C   UNL     1       8.769  80.750  85.347  0.00  0.00    -0.033 A 
ATOM     28  C   UNL     1       9.973  81.382  84.833  0.00  0.00    +0.005 A 
ATOM     29  C   UNL     1      11.258  80.929  85.204  0.00  0.00    +0.013 A 
BRANCH  18  19
ATOM     19  C   UNL     1       7.411  81.297  84.868  0.00  0.00    +0.119 C 
BRANCH  19  20
ATOM     20  N   UNL     1       6.419  80.308  84.351  0.00  0.00    -0.302 NA
ATOM     21  C   UNL     1       5.451  80.938  83.346  0.00  0.00    +0.066 C 
ATOM     22  C   UNL     1       4.434  79.884  82.798  0.00  0.00    -0.064 C 
ATOM     23  N   UNL     1       3.670  79.261  83.968  0.00  0.00    +0.379 N 
ATOM     24  C   UNL     1       2.673  78.311  83.452  0.00  0.00    -0.096 C 
ATOM     25  H   UNL     1       3.121  80.080  84.488  0.00  0.00    -0.082 HD
ATOM     26  C   UNL     1       4.626  78.635  84.974  0.00  0.00    -0.064 C 
ATOM     27  C   UNL     1       5.651  79.683  85.489  0.00  0.00    +0.066 C 
ENDBRANCH  19  20
ENDBRANCH  18  19
ENDBRANCH  14  15
ENDBRANCH  12  13
TORSDOF 6
ENDMDL
