MODEL 1
REMARK VINA RESULT:      -7.7      0.000      0.000
REMARK  Name = C:\Users\Docking\Desktop\test protocol\1iep_ligandH.pdb
REMARK  8 active torsions:
REMARK  status: ('A' for Active; 'I' for Inactive)
REMARK    1  A    between atoms: _5  and  _11
REMARK    2  A    between atoms: _19  and  _21
REMARK    3  A    between atoms: _22  and  _66
REMARK    4  A    between atoms: _27  and  _30
REMARK    5  A    between atoms: _32  and  _33
REMARK    6  A    between atoms: _38  and  _43
REMARK    7  A    between atoms: _43  and  _46
REMARK    8  A    between atoms: _53  and  _55
REMARK                            x       y       z     vdW  Elec       q    Type
REMARK                         _______ _______ _______ _____ _____    ______ ____
ROOT
ATOM     10  C   UNL     1      -8.296  23.131 -18.000  0.00  0.00    +0.038 A 
ATOM     11  C   UNL     1      -7.623  23.816 -16.956  0.00  0.00    +0.047 A 
ATOM     12  C   UNL     1      -6.178  23.738 -16.814  0.00  0.00    +0.035 A 
ATOM     32  C   UNL     1      -5.448  22.954 -17.755  0.00  0.00    +0.024 A 
ATOM     33  C   UNL     1      -6.116  22.250 -18.821  0.00  0.00    +0.007 A 
ATOM     34  C   UNL     1      -7.542  22.322 -18.965  0.00  0.00    -0.029 A 
ATOM     35  C   UNL     1      -8.206  21.542 -20.123  0.00  0.00    +0.045 C 
ENDROOT
BRANCH  10   9
ATOM      4  C   UNL     1     -12.717  22.459 -16.255  0.00  0.00    +0.077 A 
ATOM      5  C   UNL     1     -12.217  21.808 -15.078  0.00  0.00    +0.048 A 
ATOM      6  C   UNL     1     -10.817  21.660 -14.964  0.00  0.00    +0.116 A 
ATOM      7  N   UNL     1      -9.987  22.132 -15.958  0.00  0.00    -0.223 NA
ATOM      8  C   UNL     1     -10.502  22.753 -17.081  0.00  0.00    +0.220 A 
ATOM      9  N   UNL     1      -9.686  23.242 -18.089  0.00  0.00    -0.283 N 
ATOM     36  H   UNL     1     -10.104  23.688 -18.905  0.00  0.00    +0.155 HD
ATOM     37  N   UNL     1     -11.836  22.905 -17.214  0.00  0.00    -0.214 NA
BRANCH   4   3
ATOM      1  C   UNL     1     -16.506  23.308 -15.788  0.00  0.00    +0.020 A 
ATOM      2  C   UNL     1     -15.111  23.094 -15.480  0.00  0.00    +0.013 A 
ATOM      3  C   UNL     1     -14.172  22.693 -16.519  0.00  0.00    +0.019 A 
ATOM     38  C   UNL     1     -14.680  22.516 -17.871  0.00  0.00    +0.120 A 
ATOM     39  N   UNL     1     -16.029  22.728 -18.138  0.00  0.00    -0.263 NA
ATOM     40  C   UNL     1     -16.943  23.112 -17.145  0.00  0.00    +0.111 A 
ENDBRANCH   4   3
ENDBRANCH  10   9
BRANCH  12  13
ATOM     13  N   UNL     1      -5.440  24.405 -15.770  0.00  0.00    -0.281 N 
ATOM     14  C   UNL     1      -5.440  25.754 -15.456  0.00  0.00    +0.248 C 
ATOM     30  O   UNL     1      -5.912  26.629 -16.167  0.00  0.00    -0.270 OA
ATOM     31  H   UNL     1      -4.847  23.810 -15.191  0.00  0.00    +0.155 HD
BRANCH  14  15
ATOM     15  C   UNL     1      -4.811  26.198 -14.175  0.00  0.00    +0.037 A 
ATOM     16  C   UNL     1      -5.587  26.903 -13.152  0.00  0.00    +0.013 A 
ATOM     17  C   UNL     1      -4.951  27.335 -11.932  0.00  0.00    +0.005 A 
ATOM     18  C   UNL     1      -3.531  27.060 -11.728  0.00  0.00    -0.033 A 
ATOM     28  C   UNL     1      -2.786  26.354 -12.757  0.00  0.00    +0.005 A 
ATOM     29  C   UNL     1      -3.406  25.930 -13.955  0.00  0.00    +0.013 A 
BRANCH  18  19
ATOM     19  C   UNL     1      -2.766  27.503 -10.467  0.00  0.00    +0.119 C 
BRANCH  19  20
ATOM     20  N   UNL     1      -2.906  26.651  -9.248  0.00  0.00    -0.302 NA
ATOM     21  C   UNL     1      -3.090  27.489  -7.980  0.00  0.00    +0.066 C 
ATOM     22  C   UNL     1      -3.258  26.582  -6.718  0.00  0.00    -0.064 C 
ATOM     23  N   UNL     1      -2.042  25.663  -6.588  0.00  0.00    +0.379 N 
ATOM     24  C   UNL     1      -2.170  24.850  -5.370  0.00  0.00    -0.096 C 
ATOM     25  H   UNL     1      -1.142  26.309  -6.471  0.00  0.00    -0.082 HD
ATOM     26  C   UNL     1      -1.850  24.828  -7.846  0.00  0.00    -0.064 C 
ATOM     27  C   UNL     1      -1.714  25.739  -9.098  0.00  0.00    +0.066 C 
ENDBRANCH  19  20
ENDBRANCH  18  19
ENDBRANCH  14  15
ENDBRANCH  12  13
TORSDOF 6
ENDMDL
MODEL 2
REMARK VINA RESULT:      -7.6      2.242     12.712
REMARK  Name = C:\Users\Docking\Desktop\test protocol\1iep_ligandH.pdb
REMARK  8 active torsions:
REMARK  status: ('A' for Active; 'I' for Inactive)
REMARK    1  A    between atoms: _5  and  _11
REMARK    2  A    between atoms: _19  and  _21
REMARK    3  A    between atoms: _22  and  _66
REMARK    4  A    between atoms: _27  and  _30
REMARK    5  A    between atoms: _32  and  _33
REMARK    6  A    between atoms: _38  and  _43
REMARK    7  A    between atoms: _43  and  _46
REMARK    8  A    between atoms: _53  and  _55
REMARK                            x       y       z     vdW  Elec       q    Type
REMARK                         _______ _______ _______ _____ _____    ______ ____
ROOT
ATOM     10  C   UNL     1      -1.474  26.687 -10.472  0.00  0.00    +0.038 A 
ATOM     11  C   UNL     1      -2.323  26.214 -11.505  0.00  0.00    +0.047 A 
ATOM     12  C   UNL     1      -2.988  27.135 -12.414  0.00  0.00    +0.035 A 
ATOM     32  C   UNL     1      -2.763  28.533 -12.243  0.00  0.00    +0.024 A 
ATOM     33  C   UNL     1      -1.904  29.031 -11.198  0.00  0.00    +0.007 A 
ATOM     34  C   UNL     1      -1.248  28.127 -10.297  0.00  0.00    -0.029 A 
ATOM     35  C   UNL     1      -0.343  28.717  -9.190  0.00  0.00    +0.045 C 
ENDROOT
BRANCH  10   9
ATOM      4  C   UNL     1      -1.116  24.357  -6.291  0.00  0.00    +0.077 A 
ATOM      5  C   UNL     1      -2.228  25.071  -5.731  0.00  0.00    +0.048 A 
ATOM      6  C   UNL     1      -2.859  26.034  -6.549  0.00  0.00    +0.116 A 
ATOM      7  N   UNL     1      -2.405  26.258  -7.831  0.00  0.00    -0.223 NA
ATOM      8  C   UNL     1      -1.330  25.554  -8.340  0.00  0.00    +0.220 A 
ATOM      9  N   UNL     1      -0.862  25.758  -9.629  0.00  0.00    -0.283 N 
ATOM     36  H   UNL     1      -0.061  25.223  -9.964  0.00  0.00    +0.155 HD
ATOM     37  N   UNL     1      -0.709  24.630  -7.578  0.00  0.00    -0.214 NA
BRANCH   4   3
ATOM      1  C   UNL     1       0.241  22.020  -3.463  0.00  0.00    +0.020 A 
ATOM      2  C   UNL     1      -0.526  23.048  -4.129  0.00  0.00    +0.013 A 
ATOM      3  C   UNL     1      -0.348  23.306  -5.552  0.00  0.00    +0.019 A 
ATOM     38  C   UNL     1       0.622  22.501  -6.279  0.00  0.00    +0.120 A 
ATOM     39  N   UNL     1       1.348  21.519  -5.611  0.00  0.00    -0.263 NA
ATOM     40  C   UNL     1       1.186  21.263  -4.241  0.00  0.00    +0.111 A 
ENDBRANCH   4   3
ENDBRANCH  10   9
BRANCH  12  13
ATOM     13  N   UNL     1      -3.867  26.714 -13.476  0.00  0.00    -0.281 N 
ATOM     14  C   UNL     1      -3.560  25.931 -14.576  0.00  0.00    +0.248 C 
ATOM     30  O   UNL     1      -2.424  25.648 -14.927  0.00  0.00    -0.270 OA
ATOM     31  H   UNL     1      -4.834  27.033 -13.409  0.00  0.00    +0.155 HD
BRANCH  14  15
ATOM     15  C   UNL     1      -4.674  25.395 -15.416  0.00  0.00    +0.037 A 
ATOM     16  C   UNL     1      -4.805  23.960 -15.680  0.00  0.00    +0.013 A 
ATOM     17  C   UNL     1      -5.879  23.472 -16.508  0.00  0.00    +0.005 A 
ATOM     18  C   UNL     1      -6.834  24.421 -17.075  0.00  0.00    -0.033 A 
ATOM     28  C   UNL     1      -6.684  25.839 -16.793  0.00  0.00    +0.005 A 
ATOM     29  C   UNL     1      -5.631  26.321 -15.983  0.00  0.00    +0.013 A 
BRANCH  18  19
ATOM     19  C   UNL     1      -7.999  23.991 -17.987  0.00  0.00    +0.119 C 
BRANCH  19  20
ATOM     20  N   UNL     1      -9.344  23.847 -17.354  0.00  0.00    -0.302 NA
ATOM     21  C   UNL     1      -9.410  22.641 -16.413  0.00  0.00    +0.066 C 
ATOM     22  C   UNL     1     -10.817  22.519 -15.743  0.00  0.00    -0.064 C 
ATOM     23  N   UNL     1     -11.889  22.417 -16.829  0.00  0.00    +0.379 N 
ATOM     24  C   UNL     1     -13.208  22.243 -16.203  0.00  0.00    -0.096 C 
ATOM     25  H   UNL     1     -11.677  21.502 -17.429  0.00  0.00    -0.082 HD
ATOM     26  C   UNL     1     -11.829  23.611 -17.772  0.00  0.00    -0.064 C 
ATOM     27  C   UNL     1     -10.418  23.741 -18.409  0.00  0.00    +0.066 C 
ENDBRANCH  19  20
ENDBRANCH  18  19
ENDBRANCH  14  15
ENDBRANCH  12  13
TORSDOF 6
ENDMDL
MODEL 3
REMARK VINA RESULT:      -7.6      2.757     13.252
REMARK  Name = C:\Users\Docking\Desktop\test protocol\1iep_ligandH.pdb
REMARK  8 active torsions:
REMARK  status: ('A' for Active; 'I' for Inactive)
REMARK    1  A    between atoms: _5  and  _11
REMARK    2  A    between atoms: _19  and  _21
REMARK    3  A    between atoms: _22  and  _66
REMARK    4  A    between atoms: _27  and  _30
REMARK    5  A    between atoms: _32  and  _33
REMARK    6  A    between atoms: _38  and  _43
REMARK    7  A    between atoms: _43  and  _46
REMARK    8  A    between atoms: _53  and  _55
REMARK                            x       y       z     vdW  Elec       q    Type
REMARK                         _______ _______ _______ _____ _____    ______ ____
ROOT
ATOM     10  C   UNL     1      -1.672  26.374  -8.801  0.00  0.00    +0.038 A 
ATOM     11  C   UNL     1      -2.431  25.839  -9.872  0.00  0.00    +0.047 A 
ATOM     12  C   UNL     1      -2.490  26.509 -11.162  0.00  0.00    +0.035 A 
ATOM     32  C   UNL     1      -1.760  27.723 -11.326  0.00  0.00    +0.024 A 
ATOM     33  C   UNL     1      -0.984  28.282 -10.247  0.00  0.00    +0.007 A 
ATOM     34  C   UNL     1      -0.924  27.626  -8.972  0.00  0.00    -0.029 A 
ATOM     35  C   UNL     1      -0.081  28.274  -7.849  0.00  0.00    +0.045 C 
ENDROOT
BRANCH  10   9
ATOM      4  C   UNL     1       0.110  23.026  -5.860  0.00  0.00    +0.077 A 
ATOM      5  C   UNL     1       1.061  22.587  -6.839  0.00  0.00    +0.048 A 
ATOM      6  C   UNL     1       1.055  23.244  -8.090  0.00  0.00    +0.116 A 
ATOM      7  N   UNL     1       0.159  24.263  -8.332  0.00  0.00    -0.223 NA
ATOM      8  C   UNL     1      -0.746  24.661  -7.365  0.00  0.00    +0.220 A 
ATOM      9  N   UNL     1      -1.651  25.689  -7.584  0.00  0.00    -0.283 N 
ATOM     36  H   UNL     1      -2.308  25.947  -6.848  0.00  0.00    +0.155 HD
ATOM     37  N   UNL     1      -0.761  24.048  -6.163  0.00  0.00    -0.214 NA
BRANCH   4   3
ATOM      1  C   UNL     1       0.574  20.702  -2.747  0.00  0.00    +0.020 A 
ATOM      2  C   UNL     1       0.720  21.234  -4.082  0.00  0.00    +0.013 A 
ATOM      3  C   UNL     1      -0.004  22.432  -4.490  0.00  0.00    +0.019 A 
ATOM     38  C   UNL     1      -0.874  23.072  -3.514  0.00  0.00    +0.120 A 
ATOM     39  N   UNL     1      -0.995  22.536  -2.236  0.00  0.00    -0.263 NA
ATOM     40  C   UNL     1      -0.304  21.383  -1.833  0.00  0.00    +0.111 A 
ENDBRANCH   4   3
ENDBRANCH  10   9
BRANCH  12  13
ATOM     13  N   UNL     1      -3.251  26.018 -12.283  0.00  0.00    -0.281 N 
ATOM     14  C   UNL     1      -4.412  26.547 -12.823  0.00  0.00    +0.248 C 
ATOM     30  O   UNL     1      -5.094  27.407 -12.286  0.00  0.00    -0.270 OA
ATOM     31  H   UNL     1      -2.890  25.177 -12.735  0.00  0.00    +0.155 HD
BRANCH  14  15
ATOM     15  C   UNL     1      -4.893  26.037 -14.143  0.00  0.00    +0.037 A 
ATOM     16  C   UNL     1      -5.667  26.888 -15.050  0.00  0.00    +0.013 A 
ATOM     17  C   UNL     1      -6.134  26.365 -16.310  0.00  0.00    +0.005 A 
ATOM     18  C   UNL     1      -5.825  24.984 -16.671  0.00  0.00    -0.033 A 
ATOM     28  C   UNL     1      -5.050  24.164 -15.755  0.00  0.00    +0.005 A 
ATOM     29  C   UNL     1      -4.592  24.672 -14.518  0.00  0.00    +0.013 A 
BRANCH  18  19
ATOM     19  C   UNL     1      -6.299  24.337 -17.985  0.00  0.00    +0.119 C 
BRANCH  19  20
ATOM     20  N   UNL     1      -7.770  24.310 -18.242  0.00  0.00    -0.302 NA
ATOM     21  C   UNL     1      -8.515  23.441 -17.224  0.00  0.00    +0.066 C 
ATOM     22  C   UNL     1     -10.055  23.442 -17.493  0.00  0.00    -0.064 C 
ATOM     23  N   UNL     1     -10.321  22.954 -18.918  0.00  0.00    +0.379 N 
ATOM     24  C   UNL     1     -11.771  22.899 -19.155  0.00  0.00    -0.096 C 
ATOM     25  H   UNL     1      -9.925  21.915 -18.999  0.00  0.00    -0.082 HD
ATOM     26  C   UNL     1      -9.582  23.811 -19.937  0.00  0.00    -0.064 C 
ATOM     27  C   UNL     1      -8.056  23.827 -19.642  0.00  0.00    +0.066 C 
ENDBRANCH  19  20
ENDBRANCH  18  19
ENDBRANCH  14  15
ENDBRANCH  12  13
TORSDOF 6
ENDMDL
MODEL 4
REMARK VINA RESULT:      -7.6     18.693     23.911
REMARK  Name = C:\Users\Docking\Desktop\test protocol\1iep_ligandH.pdb
REMARK  8 active torsions:
REMARK  status: ('A' for Active; 'I' for Inactive)
REMARK    1  A    between atoms: _5  and  _11
REMARK    2  A    between atoms: _19  and  _21
REMARK    3  A    between atoms: _22  and  _66
REMARK    4  A    between atoms: _27  and  _30
REMARK    5  A    between atoms: _32  and  _33
REMARK    6  A    between atoms: _38  and  _43
REMARK    7  A    between atoms: _43  and  _46
REMARK    8  A    between atoms: _53  and  _55
REMARK                            x       y       z     vdW  Elec       q    Type
REMARK                         _______ _______ _______ _____ _____    ______ ____
ROOT
ATOM     10  C   UNL     1      -7.897  10.165   3.277  0.00  0.00    +0.038 A 
ATOM     11  C   UNL     1      -8.420   9.879   1.990  0.00  0.00    +0.047 A 
ATOM     12  C   UNL     1      -9.187   8.668   1.742  0.00  0.00    +0.035 A 
ATOM     32  C   UNL     1      -9.404   7.771   2.828  0.00  0.00    +0.024 A 
ATOM     33  C   UNL     1      -8.878   8.046   4.142  0.00  0.00    +0.007 A 
ATOM     34  C   UNL     1      -8.119   9.238   4.393  0.00  0.00    -0.029 A 
ATOM     35  C   UNL     1      -7.575   9.478   5.820  0.00  0.00    +0.045 C 
ENDROOT
BRANCH  10   9
ATOM      4  C   UNL     1      -7.564  14.950   3.469  0.00  0.00    +0.077 A 
ATOM      5  C   UNL     1      -8.953  15.118   3.153  0.00  0.00    +0.048 A 
ATOM      6  C   UNL     1      -9.717  13.949   2.942  0.00  0.00    +0.116 A 
ATOM      7  N   UNL     1      -9.125  12.708   3.042  0.00  0.00    -0.223 NA
ATOM      8  C   UNL     1      -7.782  12.581   3.346  0.00  0.00    +0.220 A 
ATOM      9  N   UNL     1      -7.168  11.343   3.459  0.00  0.00    -0.283 N 
ATOM     36  H   UNL     1      -6.174  11.292   3.678  0.00  0.00    +0.155 HD
ATOM     37  N   UNL     1      -7.031  13.683   3.551  0.00  0.00    -0.214 NA
BRANCH   4   3
ATOM      1  C   UNL     1      -4.751  17.201   4.992  0.00  0.00    +0.020 A 
ATOM      2  C   UNL     1      -5.633  16.075   4.789  0.00  0.00    +0.013 A 
ATOM      3  C   UNL     1      -6.626  16.089   3.723  0.00  0.00    +0.019 A 
ATOM     38  C   UNL     1      -6.702  17.267   2.872  0.00  0.00    +0.120 A 
ATOM     39  N   UNL     1      -5.841  18.338   3.092  0.00  0.00    -0.263 NA
ATOM     40  C   UNL     1      -4.882  18.336   4.116  0.00  0.00    +0.111 A 
ENDBRANCH   4   3
ENDBRANCH  10   9
BRANCH  12  13
ATOM     13  N   UNL     1      -9.736   8.320   0.454  0.00  0.00    -0.281 N 
ATOM     14  C   UNL     1      -9.310   7.327  -0.413  0.00  0.00    +0.248 C 
ATOM     30  O   UNL     1      -8.253   6.723  -0.307  0.00  0.00    -0.270 OA
ATOM     31  H   UNL     1     -10.535   8.874   0.145  0.00  0.00    +0.155 HD
BRANCH  14  15
ATOM     15  C   UNL     1     -10.178   6.962  -1.573  0.00  0.00    +0.037 A 
ATOM     16  C   UNL     1     -10.751   7.990  -2.447  0.00  0.00    +0.013 A 
ATOM     17  C   UNL     1     -11.599   7.611  -3.550  0.00  0.00    +0.005 A 
ATOM     18  C   UNL     1     -11.877   6.196  -3.786  0.00  0.00    -0.033 A 
ATOM     28  C   UNL     1     -11.292   5.198  -2.907  0.00  0.00    +0.005 A 
ATOM     29  C   UNL     1     -10.461   5.565  -1.825  0.00  0.00    +0.013 A 
BRANCH  18  19
ATOM     19  C   UNL     1     -12.788   5.702  -4.926  0.00  0.00    +0.119 C 
BRANCH  19  20
ATOM     20  N   UNL     1     -14.191   6.211  -4.949  0.00  0.00    -0.302 NA
ATOM     21  C   UNL     1     -15.196   5.110  -5.302  0.00  0.00    +0.066 C 
ATOM     22  C   UNL     1     -16.661   5.654  -5.300  0.00  0.00    -0.064 C 
ATOM     23  N   UNL     1     -16.770   6.822  -6.282  0.00  0.00    +0.379 N 
ATOM     24  C   UNL     1     -18.160   7.299  -6.325  0.00  0.00    -0.096 C 
ATOM     25  H   UNL     1     -16.513   6.436  -7.296  0.00  0.00    -0.082 HD
ATOM     26  C   UNL     1     -15.773   7.920  -5.939  0.00  0.00    -0.064 C 
ATOM     27  C   UNL     1     -14.323   7.362  -5.915  0.00  0.00    +0.066 C 
ENDBRANCH  19  20
ENDBRANCH  18  19
ENDBRANCH  14  15
ENDBRANCH  12  13
TORSDOF 6
ENDMDL
MODEL 5
REMARK VINA RESULT:      -7.4      5.397     10.487
REMARK  Name = C:\Users\Docking\Desktop\test protocol\1iep_ligandH.pdb
REMARK  8 active torsions:
REMARK  status: ('A' for Active; 'I' for Inactive)
REMARK    1  A    between atoms: _5  and  _11
REMARK    2  A    between atoms: _19  and  _21
REMARK    3  A    between atoms: _22  and  _66
REMARK    4  A    between atoms: _27  and  _30
REMARK    5  A    between atoms: _32  and  _33
REMARK    6  A    between atoms: _38  and  _43
REMARK    7  A    between atoms: _43  and  _46
REMARK    8  A    between atoms: _53  and  _55
REMARK                            x       y       z     vdW  Elec       q    Type
REMARK                         _______ _______ _______ _____ _____    ______ ____
ROOT
ATOM     10  C   UNL     1      -1.218  26.373 -10.812  0.00  0.00    +0.038 A 
ATOM     11  C   UNL     1      -1.216  25.410  -9.770  0.00  0.00    +0.047 A 
ATOM     12  C   UNL     1      -0.624  25.704  -8.474  0.00  0.00    +0.035 A 
ATOM     32  C   UNL     1      -0.046  26.991  -8.272  0.00  0.00    +0.024 A 
ATOM     33  C   UNL     1      -0.038  27.982  -9.320  0.00  0.00    +0.007 A 
ATOM     34  C   UNL     1      -0.618  27.696 -10.601  0.00  0.00    -0.029 A 
ATOM     35  C   UNL     1      -0.576  28.794 -11.690  0.00  0.00    +0.045 C 
ENDROOT
BRANCH  10   9
ATOM      4  C   UNL     1      -4.913  26.339 -13.875  0.00  0.00    +0.077 A 
ATOM      5  C   UNL     1      -5.765  27.025 -12.947  0.00  0.00    +0.048 A 
ATOM      6  C   UNL     1      -5.216  27.363 -11.689  0.00  0.00    +0.116 A 
ATOM      7  N   UNL     1      -3.911  27.034 -11.393  0.00  0.00    -0.223 NA
ATOM      8  C   UNL     1      -3.117  26.370 -12.310  0.00  0.00    +0.220 A 
ATOM      9  N   UNL     1      -1.800  26.037 -12.036  0.00  0.00    -0.283 N 
ATOM     36  H   UNL     1      -1.249  25.541 -12.737  0.00  0.00    +0.155 HD
ATOM     37  N   UNL     1      -3.618  26.036 -13.517  0.00  0.00    -0.214 NA
BRANCH   4   3
ATOM      1  C   UNL     1      -5.526  24.234 -17.114  0.00  0.00    +0.020 A 
ATOM      2  C   UNL     1      -5.085  24.590 -15.785  0.00  0.00    +0.013 A 
ATOM      3  C   UNL     1      -5.347  25.918 -15.244  0.00  0.00    +0.019 A 
ATOM     38  C   UNL     1      -6.064  26.869 -16.080  0.00  0.00    +0.120 A 
ATOM     39  N   UNL     1      -6.475  26.498 -17.357  0.00  0.00    -0.263 NA
ATOM     40  C   UNL     1      -6.227  25.224 -17.888  0.00  0.00    +0.111 A 
ENDBRANCH   4   3
ENDBRANCH  10   9
BRANCH  12  13
ATOM     13  N   UNL     1      -0.585  24.764  -7.382  0.00  0.00    -0.281 N 
ATOM     14  C   UNL     1       0.144  23.589  -7.296  0.00  0.00    +0.248 C 
ATOM     30  O   UNL     1       0.713  23.058  -8.238  0.00  0.00    -0.270 OA
ATOM     31  H   UNL     1      -1.166  24.991  -6.575  0.00  0.00    +0.155 HD
BRANCH  14  15
ATOM     15  C   UNL     1       0.244  22.897  -5.975  0.00  0.00    +0.037 A 
ATOM     16  C   UNL     1      -0.497  23.379  -4.806  0.00  0.00    +0.013 A 
ATOM     17  C   UNL     1      -0.370  22.703  -3.540  0.00  0.00    +0.005 A 
ATOM     18  C   UNL     1       0.503  21.536  -3.435  0.00  0.00    -0.033 A 
ATOM     28  C   UNL     1       1.223  21.076  -4.611  0.00  0.00    +0.005 A 
ATOM     29  C   UNL     1       1.101  21.737  -5.854  0.00  0.00    +0.013 A 
BRANCH  18  19
ATOM     19  C   UNL     1       0.716  20.766  -2.119  0.00  0.00    +0.119 C 
BRANCH  19  20
ATOM     20  N   UNL     1       1.555  21.421  -1.072  0.00  0.00    -0.302 NA
ATOM     21  C   UNL     1       2.813  20.607  -0.752  0.00  0.00    +0.066 C 
ATOM     22  C   UNL     1       3.691  21.317   0.329  0.00  0.00    -0.064 C 
ATOM     23  N   UNL     1       2.857  21.545   1.591  0.00  0.00    +0.379 N 
ATOM     24  C   UNL     1       3.696  22.160   2.630  0.00  0.00    -0.096 C 
ATOM     25  H   UNL     1       2.532  20.546   1.966  0.00  0.00    -0.082 HD
ATOM     26  C   UNL     1       1.603  22.351   1.282  0.00  0.00    -0.064 C 
ATOM     27  C   UNL     1       0.753  21.650   0.185  0.00  0.00    +0.066 C 
ENDBRANCH  19  20
ENDBRANCH  18  19
ENDBRANCH  14  15
ENDBRANCH  12  13
TORSDOF 6
ENDMDL
