MODEL 1
REMARK VINA RESULT:      -7.5      0.000      0.000
REMARK  Name = C:\Users\Docking\Desktop\test protocol\1iep_ligandH.pdb
REMARK  8 active torsions:
REMARK  status: ('A' for Active; 'I' for Inactive)
REMARK    1  A    between atoms: _5  and  _11
REMARK    2  A    between atoms: _19  and  _21
REMARK    3  A    between atoms: _22  and  _66
REMARK    4  A    between atoms: _27  and  _30
REMARK    5  A    between atoms: _32  and  _33
REMARK    6  A    between atoms: _38  and  _43
REMARK    7  A    between atoms: _43  and  _46
REMARK    8  A    between atoms: _53  and  _55
REMARK                            x       y       z     vdW  Elec       q    Type
REMARK                         _______ _______ _______ _____ _____    ______ ____
ROOT
ATOM     10  C   UNL     1      -2.709  27.010  -8.518  0.00  0.00    +0.038 A 
ATOM     11  C   UNL     1      -3.241  26.644  -9.780  0.00  0.00    +0.047 A 
ATOM     12  C   UNL     1      -3.554  27.648 -10.785  0.00  0.00    +0.035 A 
ATOM     32  C   UNL     1      -3.308  29.017 -10.472  0.00  0.00    +0.024 A 
ATOM     33  C   UNL     1      -2.767  29.407  -9.193  0.00  0.00    +0.007 A 
ATOM     34  C   UNL     1      -2.460  28.421  -8.197  0.00  0.00    -0.029 A 
ATOM     35  C   UNL     1      -1.889  28.897  -6.841  0.00  0.00    +0.045 C 
ENDROOT
BRANCH  10   9
ATOM      4  C   UNL     1       0.242  23.783  -6.538  0.00  0.00    +0.077 A 
ATOM      5  C   UNL     1       1.304  24.110  -7.445  0.00  0.00    +0.048 A 
ATOM      6  C   UNL     1       1.048  25.109  -8.411  0.00  0.00    +0.116 A 
ATOM      7  N   UNL     1      -0.182  25.728  -8.457  0.00  0.00    -0.223 NA
ATOM      8  C   UNL     1      -1.185  25.388  -7.568  0.00  0.00    +0.220 A 
ATOM      9  N   UNL     1      -2.427  26.004  -7.590  0.00  0.00    -0.283 N 
ATOM     36  H   UNL     1      -3.143  25.720  -6.922  0.00  0.00    +0.155 HD
ATOM     37  N   UNL     1      -0.966  24.437  -6.637  0.00  0.00    -0.214 NA
BRANCH   4   3
ATOM      1  C   UNL     1      -0.206  21.821  -3.184  0.00  0.00    +0.020 A 
ATOM      2  C   UNL     1      -0.355  22.844  -4.192  0.00  0.00    +0.013 A 
ATOM      3  C   UNL     1       0.360  22.752  -5.459  0.00  0.00    +0.019 A 
ATOM     38  C   UNL     1       1.223  21.601  -5.676  0.00  0.00    +0.120 A 
ATOM     39  N   UNL     1       1.348  20.631  -4.686  0.00  0.00    -0.263 NA
ATOM     40  C   UNL     1       0.666  20.710  -3.462  0.00  0.00    +0.111 A 
ENDBRANCH   4   3
ENDBRANCH  10   9
BRANCH  12  13
ATOM     13  N   UNL     1      -4.104  27.337 -12.081  0.00  0.00    -0.281 N 
ATOM     14  C   UNL     1      -3.577  26.500 -13.051  0.00  0.00    +0.248 C 
ATOM     30  O   UNL     1      -2.439  26.055 -13.037  0.00  0.00    -0.270 OA
ATOM     31  H   UNL     1      -4.989  27.789 -12.311  0.00  0.00    +0.155 HD
BRANCH  14  15
ATOM     15  C   UNL     1      -4.434  26.112 -14.213  0.00  0.00    +0.037 A 
ATOM     16  C   UNL     1      -5.372  27.062 -14.816  0.00  0.00    +0.013 A 
ATOM     17  C   UNL     1      -6.200  26.657 -15.924  0.00  0.00    +0.005 A 
ATOM     18  C   UNL     1      -6.091  25.294 -16.439  0.00  0.00    -0.033 A 
ATOM     28  C   UNL     1      -5.148  24.373 -15.825  0.00  0.00    +0.005 A 
ATOM     29  C   UNL     1      -4.337  24.766 -14.737  0.00  0.00    +0.013 A 
BRANCH  18  19
ATOM     19  C   UNL     1      -6.949  24.769 -17.605  0.00  0.00    +0.119 C 
BRANCH  19  20
ATOM     20  N   UNL     1      -8.389  24.488 -17.322  0.00  0.00    -0.302 NA
ATOM     21  C   UNL     1      -8.602  23.072 -16.780  0.00  0.00    +0.066 C 
ATOM     22  C   UNL     1     -10.111  22.804 -16.468  0.00  0.00    -0.064 C 
ATOM     23  N   UNL     1     -10.938  23.030 -17.735  0.00  0.00    +0.379 N 
ATOM     24  C   UNL     1     -12.349  22.722 -17.460  0.00  0.00    -0.096 C 
ATOM     25  H   UNL     1     -10.579  22.309 -18.506  0.00  0.00    -0.082 HD
ATOM     26  C   UNL     1     -10.730  24.434 -18.282  0.00  0.00    -0.064 C 
ATOM     27  C   UNL     1      -9.224  24.701 -18.561  0.00  0.00    +0.066 C 
ENDBRANCH  19  20
ENDBRANCH  18  19
ENDBRANCH  14  15
ENDBRANCH  12  13
TORSDOF 6
ENDMDL
MODEL 2
REMARK VINA RESULT:      -7.5      1.334      2.010
REMARK  Name = C:\Users\Docking\Desktop\test protocol\1iep_ligandH.pdb
REMARK  8 active torsions:
REMARK  status: ('A' for Active; 'I' for Inactive)
REMARK    1  A    between atoms: _5  and  _11
REMARK    2  A    between atoms: _19  and  _21
REMARK    3  A    between atoms: _22  and  _66
REMARK    4  A    between atoms: _27  and  _30
REMARK    5  A    between atoms: _32  and  _33
REMARK    6  A    between atoms: _38  and  _43
REMARK    7  A    between atoms: _43  and  _46
REMARK    8  A    between atoms: _53  and  _55
REMARK                            x       y       z     vdW  Elec       q    Type
REMARK                         _______ _______ _______ _____ _____    ______ ____
ROOT
ATOM     10  C   UNL     1      -1.647  26.550  -9.929  0.00  0.00    +0.038 A 
ATOM     11  C   UNL     1      -2.491  26.057 -10.957  0.00  0.00    +0.047 A 
ATOM     12  C   UNL     1      -3.220  26.962 -11.831  0.00  0.00    +0.035 A 
ATOM     32  C   UNL     1      -3.065  28.365 -11.633  0.00  0.00    +0.024 A 
ATOM     33  C   UNL     1      -2.212  28.884 -10.592  0.00  0.00    +0.007 A 
ATOM     34  C   UNL     1      -1.492  27.996  -9.725  0.00  0.00    -0.029 A 
ATOM     35  C   UNL     1      -0.598  28.608  -8.622  0.00  0.00    +0.045 C 
ENDROOT
BRANCH  10   9
ATOM      4  C   UNL     1      -1.090  24.146  -5.812  0.00  0.00    +0.077 A 
ATOM      5  C   UNL     1      -2.228  24.786  -5.216  0.00  0.00    +0.048 A 
ATOM      6  C   UNL     1      -2.925  25.732  -6.000  0.00  0.00    +0.116 A 
ATOM      7  N   UNL     1      -2.507  26.011  -7.283  0.00  0.00    -0.223 NA
ATOM      8  C   UNL     1      -1.404  25.377  -7.827  0.00  0.00    +0.220 A 
ATOM      9  N   UNL     1      -0.971  25.636  -9.118  0.00  0.00    -0.283 N 
ATOM     36  H   UNL     1      -0.148  25.154  -9.480  0.00  0.00    +0.155 HD
ATOM     37  N   UNL     1      -0.721  24.471  -7.098  0.00  0.00    -0.214 NA
BRANCH   4   3
ATOM      1  C   UNL     1       1.465  21.275  -5.088  0.00  0.00    +0.020 A 
ATOM      2  C   UNL     1       0.679  22.248  -5.812  0.00  0.00    +0.013 A 
ATOM      3  C   UNL     1      -0.253  23.122  -5.112  0.00  0.00    +0.019 A 
ATOM     38  C   UNL     1      -0.368  22.985  -3.667  0.00  0.00    +0.120 A 
ATOM     39  N   UNL     1       0.400  22.038  -2.997  0.00  0.00    -0.263 NA
ATOM     40  C   UNL     1       1.300  21.190  -3.661  0.00  0.00    +0.111 A 
ENDBRANCH   4   3
ENDBRANCH  10   9
BRANCH  12  13
ATOM     13  N   UNL     1      -4.097  26.519 -12.886  0.00  0.00    -0.281 N 
ATOM     14  C   UNL     1      -3.875  26.563 -14.253  0.00  0.00    +0.248 C 
ATOM     30  O   UNL     1      -2.972  27.190 -14.787  0.00  0.00    -0.270 OA
ATOM     31  H   UNL     1      -4.990  26.124 -12.590  0.00  0.00    +0.155 HD
BRANCH  14  15
ATOM     15  C   UNL     1      -4.798  25.814 -15.159  0.00  0.00    +0.037 A 
ATOM     16  C   UNL     1      -4.687  24.362 -15.326  0.00  0.00    +0.013 A 
ATOM     17  C   UNL     1      -5.579  23.667 -16.219  0.00  0.00    +0.005 A 
ATOM     18  C   UNL     1      -6.593  24.423 -16.952  0.00  0.00    -0.033 A 
ATOM     28  C   UNL     1      -6.684  25.861 -16.763  0.00  0.00    +0.005 A 
ATOM     29  C   UNL     1      -5.811  26.546 -15.889  0.00  0.00    +0.013 A 
BRANCH  18  19
ATOM     19  C   UNL     1      -7.573  23.766 -17.942  0.00  0.00    +0.119 C 
BRANCH  19  20
ATOM     20  N   UNL     1      -9.018  23.753 -17.566  0.00  0.00    -0.302 NA
ATOM     21  C   UNL     1      -9.306  22.770 -16.427  0.00  0.00    +0.066 C 
ATOM     22  C   UNL     1     -10.818  22.785 -16.031  0.00  0.00    -0.064 C 
ATOM     23  N   UNL     1     -11.667  22.454 -17.259  0.00  0.00    +0.379 N 
ATOM     24  C   UNL     1     -13.086  22.410 -16.877  0.00  0.00    -0.096 C 
ATOM     25  H   UNL     1     -11.378  21.434 -17.605  0.00  0.00    -0.082 HD
ATOM     26  C   UNL     1     -11.385  23.424 -18.398  0.00  0.00    -0.064 C 
ATOM     27  C   UNL     1      -9.875  23.423 -18.763  0.00  0.00    +0.066 C 
ENDBRANCH  19  20
ENDBRANCH  18  19
ENDBRANCH  14  15
ENDBRANCH  12  13
TORSDOF 6
ENDMDL
MODEL 3
REMARK VINA RESULT:      -7.5      2.604     13.059
REMARK  Name = C:\Users\Docking\Desktop\test protocol\1iep_ligandH.pdb
REMARK  8 active torsions:
REMARK  status: ('A' for Active; 'I' for Inactive)
REMARK    1  A    between atoms: _5  and  _11
REMARK    2  A    between atoms: _19  and  _21
REMARK    3  A    between atoms: _22  and  _66
REMARK    4  A    between atoms: _27  and  _30
REMARK    5  A    between atoms: _32  and  _33
REMARK    6  A    between atoms: _38  and  _43
REMARK    7  A    between atoms: _43  and  _46
REMARK    8  A    between atoms: _53  and  _55
REMARK                            x       y       z     vdW  Elec       q    Type
REMARK                         _______ _______ _______ _____ _____    ______ ____
ROOT
ATOM     10  C   UNL     1      -8.345  23.100 -18.013  0.00  0.00    +0.038 A 
ATOM     11  C   UNL     1      -7.683  23.785 -16.962  0.00  0.00    +0.047 A 
ATOM     12  C   UNL     1      -6.236  23.732 -16.825  0.00  0.00    +0.035 A 
ATOM     32  C   UNL     1      -5.494  22.974 -17.777  0.00  0.00    +0.024 A 
ATOM     33  C   UNL     1      -6.151  22.270 -18.850  0.00  0.00    +0.007 A 
ATOM     34  C   UNL     1      -7.579  22.317 -18.989  0.00  0.00    -0.029 A 
ATOM     35  C   UNL     1      -8.230  21.538 -20.155  0.00  0.00    +0.045 C 
ENDROOT
BRANCH  10   9
ATOM      4  C   UNL     1     -12.746  22.385 -16.234  0.00  0.00    +0.077 A 
ATOM      5  C   UNL     1     -12.230  21.765 -15.047  0.00  0.00    +0.048 A 
ATOM      6  C   UNL     1     -10.826  21.644 -14.937  0.00  0.00    +0.116 A 
ATOM      7  N   UNL     1     -10.010  22.110 -15.944  0.00  0.00    -0.223 NA
ATOM      8  C   UNL     1     -10.540  22.701 -17.076  0.00  0.00    +0.220 A 
ATOM      9  N   UNL     1      -9.737  23.185 -18.097  0.00  0.00    -0.283 N 
ATOM     36  H   UNL     1     -10.167  23.607 -18.920  0.00  0.00    +0.155 HD
ATOM     37  N   UNL     1     -11.877  22.828 -17.206  0.00  0.00    -0.214 NA
BRANCH   4   3
ATOM      1  C   UNL     1     -16.526  23.289 -15.796  0.00  0.00    +0.020 A 
ATOM      2  C   UNL     1     -15.125  23.110 -15.492  0.00  0.00    +0.013 A 
ATOM      3  C   UNL     1     -14.206  22.589 -16.496  0.00  0.00    +0.019 A 
ATOM     38  C   UNL     1     -14.740  22.256 -17.807  0.00  0.00    +0.120 A 
ATOM     39  N   UNL     1     -16.094  22.437 -18.071  0.00  0.00    -0.263 NA
ATOM     40  C   UNL     1     -16.989  22.937 -17.113  0.00  0.00    +0.111 A 
ENDBRANCH   4   3
ENDBRANCH  10   9
BRANCH  12  13
ATOM     13  N   UNL     1      -5.509  24.401 -15.774  0.00  0.00    -0.281 N 
ATOM     14  C   UNL     1      -5.414  25.762 -15.537  0.00  0.00    +0.248 C 
ATOM     30  O   UNL     1      -5.769  26.627 -16.324  0.00  0.00    -0.270 OA
ATOM     31  H   UNL     1      -5.002  23.797 -15.127  0.00  0.00    +0.155 HD
BRANCH  14  15
ATOM     15  C   UNL     1      -4.828  26.231 -14.245  0.00  0.00    +0.037 A 
ATOM     16  C   UNL     1      -5.639  26.948 -13.258  0.00  0.00    +0.013 A 
ATOM     17  C   UNL     1      -5.044  27.404 -12.027  0.00  0.00    +0.005 A 
ATOM     18  C   UNL     1      -3.628  27.143 -11.776  0.00  0.00    -0.033 A 
ATOM     28  C   UNL     1      -2.848  26.425 -12.770  0.00  0.00    +0.005 A 
ATOM     29  C   UNL     1      -3.428  25.977 -13.978  0.00  0.00    +0.013 A 
BRANCH  18  19
ATOM     19  C   UNL     1      -2.905  27.612 -10.499  0.00  0.00    +0.119 C 
BRANCH  19  20
ATOM     20  N   UNL     1      -3.040  26.756  -9.283  0.00  0.00    -0.302 NA
ATOM     21  C   UNL     1      -3.117  27.588  -8.000  0.00  0.00    +0.066 C 
ATOM     22  C   UNL     1      -3.281  26.677  -6.740  0.00  0.00    -0.064 C 
ATOM     23  N   UNL     1      -2.116  25.687  -6.675  0.00  0.00    +0.379 N 
ATOM     24  C   UNL     1      -2.236  24.868  -5.460  0.00  0.00    -0.096 C 
ATOM     25  H   UNL     1      -1.174  26.278  -6.593  0.00  0.00    -0.082 HD
ATOM     26  C   UNL     1      -2.031  24.857  -7.948  0.00  0.00    -0.064 C 
ATOM     27  C   UNL     1      -1.898  25.773  -9.197  0.00  0.00    +0.066 C 
ENDBRANCH  19  20
ENDBRANCH  18  19
ENDBRANCH  14  15
ENDBRANCH  12  13
TORSDOF 6
ENDMDL
MODEL 4
REMARK VINA RESULT:      -7.4     17.603     21.204
REMARK  Name = C:\Users\Docking\Desktop\test protocol\1iep_ligandH.pdb
REMARK  8 active torsions:
REMARK  status: ('A' for Active; 'I' for Inactive)
REMARK    1  A    between atoms: _5  and  _11
REMARK    2  A    between atoms: _19  and  _21
REMARK    3  A    between atoms: _22  and  _66
REMARK    4  A    between atoms: _27  and  _30
REMARK    5  A    between atoms: _32  and  _33
REMARK    6  A    between atoms: _38  and  _43
REMARK    7  A    between atoms: _43  and  _46
REMARK    8  A    between atoms: _53  and  _55
REMARK                            x       y       z     vdW  Elec       q    Type
REMARK                         _______ _______ _______ _____ _____    ______ ____
ROOT
ATOM     10  C   UNL     1      -7.923  10.037   3.269  0.00  0.00    +0.038 A 
ATOM     11  C   UNL     1      -8.468   9.765   1.988  0.00  0.00    +0.047 A 
ATOM     12  C   UNL     1      -9.236   8.555   1.738  0.00  0.00    +0.035 A 
ATOM     32  C   UNL     1      -9.432   7.645   2.817  0.00  0.00    +0.024 A 
ATOM     33  C   UNL     1      -8.884   7.905   4.125  0.00  0.00    +0.007 A 
ATOM     34  C   UNL     1      -8.124   9.095   4.377  0.00  0.00    -0.029 A 
ATOM     35  C   UNL     1      -7.555   9.319   5.797  0.00  0.00    +0.045 C 
ENDROOT
BRANCH  10   9
ATOM      4  C   UNL     1      -7.610  14.816   3.581  0.00  0.00    +0.077 A 
ATOM      5  C   UNL     1      -9.013  14.984   3.330  0.00  0.00    +0.048 A 
ATOM      6  C   UNL     1      -9.778  13.815   3.119  0.00  0.00    +0.116 A 
ATOM      7  N   UNL     1      -9.175  12.576   3.158  0.00  0.00    -0.223 NA
ATOM      8  C   UNL     1      -7.820  12.450   3.401  0.00  0.00    +0.220 A 
ATOM      9  N   UNL     1      -7.194  11.214   3.452  0.00  0.00    -0.283 N 
ATOM     36  H   UNL     1      -6.191  11.164   3.627  0.00  0.00    +0.155 HD
ATOM     37  N   UNL     1      -7.067  13.551   3.604  0.00  0.00    -0.214 NA
BRANCH   4   3
ATOM      1  C   UNL     1      -4.902  17.143   5.179  0.00  0.00    +0.020 A 
ATOM      2  C   UNL     1      -5.792  16.021   4.989  0.00  0.00    +0.013 A 
ATOM      3  C   UNL     1      -6.670  15.955   3.827  0.00  0.00    +0.019 A 
ATOM     38  C   UNL     1      -6.621  17.049   2.868  0.00  0.00    +0.120 A 
ATOM     39  N   UNL     1      -5.755  18.117   3.078  0.00  0.00    -0.263 NA
ATOM     40  C   UNL     1      -4.907  18.192   4.193  0.00  0.00    +0.111 A 
ENDBRANCH   4   3
ENDBRANCH  10   9
BRANCH  12  13
ATOM     13  N   UNL     1      -9.806   8.222   0.456  0.00  0.00    -0.281 N 
ATOM     14  C   UNL     1      -9.398   7.235  -0.427  0.00  0.00    +0.248 C 
ATOM     30  O   UNL     1      -8.342   6.626  -0.343  0.00  0.00    -0.270 OA
ATOM     31  H   UNL     1     -10.608   8.781   0.164  0.00  0.00    +0.155 HD
BRANCH  14  15
ATOM     15  C   UNL     1     -10.286   6.884  -1.577  0.00  0.00    +0.037 A 
ATOM     16  C   UNL     1     -10.633   5.492  -1.872  0.00  0.00    +0.013 A 
ATOM     17  C   UNL     1     -11.477   5.180  -2.998  0.00  0.00    +0.005 A 
ATOM     18  C   UNL     1     -11.981   6.264  -3.838  0.00  0.00    -0.033 A 
ATOM     28  C   UNL     1     -11.625   7.637  -3.520  0.00  0.00    +0.005 A 
ATOM     29  C   UNL     1     -10.797   7.947  -2.417  0.00  0.00    +0.013 A 
BRANCH  18  19
ATOM     19  C   UNL     1     -12.870   6.022  -5.072  0.00  0.00    +0.119 C 
BRANCH  19  20
ATOM     20  N   UNL     1     -13.755   4.819  -5.052  0.00  0.00    -0.302 NA
ATOM     21  C   UNL     1     -13.198   3.682  -5.913  0.00  0.00    +0.066 C 
ATOM     22  C   UNL     1     -14.125   2.424  -5.862  0.00  0.00    -0.064 C 
ATOM     23  N   UNL     1     -15.532   2.811  -6.321  0.00  0.00    +0.379 N 
ATOM     24  C   UNL     1     -16.391   1.618  -6.330  0.00  0.00    -0.096 C 
ATOM     25  H   UNL     1     -15.455   3.181  -7.370  0.00  0.00    -0.082 HD
ATOM     26  C   UNL     1     -16.092   3.944  -5.472  0.00  0.00    -0.064 C 
ATOM     27  C   UNL     1     -15.149   5.178  -5.505  0.00  0.00    +0.066 C 
ENDBRANCH  19  20
ENDBRANCH  18  19
ENDBRANCH  14  15
ENDBRANCH  12  13
TORSDOF 6
ENDMDL
MODEL 5
REMARK VINA RESULT:      -7.4     17.233     20.673
REMARK  Name = C:\Users\Docking\Desktop\test protocol\1iep_ligandH.pdb
REMARK  8 active torsions:
REMARK  status: ('A' for Active; 'I' for Inactive)
REMARK    1  A    between atoms: _5  and  _11
REMARK    2  A    between atoms: _19  and  _21
REMARK    3  A    between atoms: _22  and  _66
REMARK    4  A    between atoms: _27  and  _30
REMARK    5  A    between atoms: _32  and  _33
REMARK    6  A    between atoms: _38  and  _43
REMARK    7  A    between atoms: _43  and  _46
REMARK    8  A    between atoms: _53  and  _55
REMARK                            x       y       z     vdW  Elec       q    Type
REMARK                         _______ _______ _______ _____ _____    ______ ____
ROOT
ATOM     10  C   UNL     1      -7.988  10.188   3.252  0.00  0.00    +0.038 A 
ATOM     11  C   UNL     1      -8.498   9.862   1.970  0.00  0.00    +0.047 A 
ATOM     12  C   UNL     1      -9.285   8.657   1.757  0.00  0.00    +0.035 A 
ATOM     32  C   UNL     1      -9.536   7.808   2.874  0.00  0.00    +0.024 A 
ATOM     33  C   UNL     1      -9.024   8.123   4.184  0.00  0.00    +0.007 A 
ATOM     34  C   UNL     1      -8.245   9.309   4.400  0.00  0.00    -0.029 A 
ATOM     35  C   UNL     1      -7.716   9.594   5.825  0.00  0.00    +0.045 C 
ENDROOT
BRANCH  10   9
ATOM      4  C   UNL     1      -7.599  14.967   3.467  0.00  0.00    +0.077 A 
ATOM      5  C   UNL     1      -9.003  15.151   3.239  0.00  0.00    +0.048 A 
ATOM      6  C   UNL     1      -9.790  13.990   3.065  0.00  0.00    +0.116 A 
ATOM      7  N   UNL     1      -9.205  12.743   3.116  0.00  0.00    -0.223 NA
ATOM      8  C   UNL     1      -7.847  12.601   3.336  0.00  0.00    +0.220 A 
ATOM      9  N   UNL     1      -7.239  11.357   3.400  0.00  0.00    -0.283 N 
ATOM     36  H   UNL     1      -6.233  11.295   3.556  0.00  0.00    +0.155 HD
ATOM     37  N   UNL     1      -7.074  13.694   3.504  0.00  0.00    -0.214 NA
BRANCH   4   3
ATOM      1  C   UNL     1      -4.751  17.230   4.906  0.00  0.00    +0.020 A 
ATOM      2  C   UNL     1      -5.658  16.115   4.752  0.00  0.00    +0.013 A 
ATOM      3  C   UNL     1      -6.637  16.096   3.672  0.00  0.00    +0.019 A 
ATOM     38  C   UNL     1      -6.673  17.228   2.759  0.00  0.00    +0.120 A 
ATOM     39  N   UNL     1      -5.788  18.288   2.933  0.00  0.00    -0.263 NA
ATOM     40  C   UNL     1      -4.843  18.318   3.969  0.00  0.00    +0.111 A 
ENDBRANCH   4   3
ENDBRANCH  10   9
BRANCH  12  13
ATOM     13  N   UNL     1      -9.822   8.270   0.476  0.00  0.00    -0.281 N 
ATOM     14  C   UNL     1      -9.377   7.264  -0.365  0.00  0.00    +0.248 C 
ATOM     30  O   UNL     1      -8.311   6.680  -0.240  0.00  0.00    -0.270 OA
ATOM     31  H   UNL     1     -10.629   8.803   0.150  0.00  0.00    +0.155 HD
BRANCH  14  15
ATOM     15  C   UNL     1     -10.233   6.857  -1.521  0.00  0.00    +0.037 A 
ATOM     16  C   UNL     1     -10.544   5.448  -1.778  0.00  0.00    +0.013 A 
ATOM     17  C   UNL     1     -11.358   5.082  -2.909  0.00  0.00    +0.005 A 
ATOM     18  C   UNL     1     -11.869   6.128  -3.792  0.00  0.00    -0.033 A 
ATOM     28  C   UNL     1     -11.550   7.518  -3.511  0.00  0.00    +0.005 A 
ATOM     29  C   UNL     1     -10.751   7.880  -2.403  0.00  0.00    +0.013 A 
BRANCH  18  19
ATOM     19  C   UNL     1     -12.728   5.827  -5.035  0.00  0.00    +0.119 C 
BRANCH  19  20
ATOM     20  N   UNL     1     -14.146   6.297  -5.016  0.00  0.00    -0.302 NA
ATOM     21  C   UNL     1     -15.126   5.179  -5.383  0.00  0.00    +0.066 C 
ATOM     22  C   UNL     1     -16.606   5.682  -5.336  0.00  0.00    -0.064 C 
ATOM     23  N   UNL     1     -16.766   6.874  -6.281  0.00  0.00    +0.379 N 
ATOM     24  C   UNL     1     -18.170   7.313  -6.283  0.00  0.00    -0.096 C 
ATOM     25  H   UNL     1     -16.519   6.526  -7.310  0.00  0.00    -0.082 HD
ATOM     26  C   UNL     1     -15.793   7.989  -5.925  0.00  0.00    -0.064 C 
ATOM     27  C   UNL     1     -14.328   7.472  -5.945  0.00  0.00    +0.066 C 
ENDBRANCH  19  20
ENDBRANCH  18  19
ENDBRANCH  14  15
ENDBRANCH  12  13
TORSDOF 6
ENDMDL
