MODEL 1
REMARK VINA RESULT:      -7.5      0.000      0.000
REMARK  Name = C:\Users\Docking\Desktop\test protocol\1iep_ligandH.pdb
REMARK  8 active torsions:
REMARK  status: ('A' for Active; 'I' for Inactive)
REMARK    1  A    between atoms: _5  and  _11
REMARK    2  A    between atoms: _19  and  _21
REMARK    3  A    between atoms: _22  and  _66
REMARK    4  A    between atoms: _27  and  _30
REMARK    5  A    between atoms: _32  and  _33
REMARK    6  A    between atoms: _38  and  _43
REMARK    7  A    between atoms: _43  and  _46
REMARK    8  A    between atoms: _53  and  _55
REMARK                            x       y       z     vdW  Elec       q    Type
REMARK                         _______ _______ _______ _____ _____    ______ ____
ROOT
ATOM     10  C   UNL     1      -2.739  27.367 -10.538  0.00  0.00    +0.038 A 
ATOM     11  C   UNL     1      -3.483  26.775 -11.591  0.00  0.00    +0.047 A 
ATOM     12  C   UNL     1      -3.771  27.509 -12.813  0.00  0.00    +0.035 A 
ATOM     32  C   UNL     1      -3.284  28.844 -12.931  0.00  0.00    +0.024 A 
ATOM     33  C   UNL     1      -2.527  29.461 -11.870  0.00  0.00    +0.007 A 
ATOM     34  C   UNL     1      -2.242  28.743 -10.661  0.00  0.00    -0.029 A 
ATOM     35  C   UNL     1      -1.432  29.456  -9.554  0.00  0.00    +0.045 C 
ENDROOT
BRANCH  10   9
ATOM      4  C   UNL     1      -0.117  24.249  -8.001  0.00  0.00    +0.077 A 
ATOM      5  C   UNL     1       0.825  24.080  -9.070  0.00  0.00    +0.048 A 
ATOM      6  C   UNL     1       0.594  24.808 -10.259  0.00  0.00    +0.116 A 
ATOM      7  N   UNL     1      -0.499  25.641 -10.359  0.00  0.00    -0.223 NA
ATOM      8  C   UNL     1      -1.389  25.779  -9.310  0.00  0.00    +0.220 A 
ATOM      9  N   UNL     1      -2.491  26.616  -9.387  0.00  0.00    -0.283 N 
ATOM     36  H   UNL     1      -3.128  26.685  -8.593  0.00  0.00    +0.155 HD
ATOM     37  N   UNL     1      -1.192  25.093  -8.165  0.00  0.00    -0.214 NA
BRANCH   4   3
ATOM      1  C   UNL     1       0.878  21.722  -5.186  0.00  0.00    +0.020 A 
ATOM      2  C   UNL     1       0.807  22.358  -6.481  0.00  0.00    +0.013 A 
ATOM      3  C   UNL     1      -0.008  23.550  -6.681  0.00  0.00    +0.019 A 
ATOM     38  C   UNL     1      -0.743  24.077  -5.542  0.00  0.00    +0.120 A 
ATOM     39  N   UNL     1      -0.656  23.442  -4.307  0.00  0.00    -0.263 NA
ATOM     40  C   UNL     1       0.123  22.294  -4.102  0.00  0.00    +0.111 A 
ENDBRANCH   4   3
ENDBRANCH  10   9
BRANCH  12  13
ATOM     13  N   UNL     1      -4.528  26.964 -13.913  0.00  0.00    -0.281 N 
ATOM     14  C   UNL     1      -4.128  26.006 -14.830  0.00  0.00    +0.248 C 
ATOM     30  O   UNL     1      -2.976  25.625 -14.973  0.00  0.00    -0.270 OA
ATOM     31  H   UNL     1      -5.474  27.328 -14.029  0.00  0.00    +0.155 HD
BRANCH  14  15
ATOM     15  C   UNL     1      -5.154  25.392 -15.727  0.00  0.00    +0.037 A 
ATOM     16  C   UNL     1      -5.151  23.955 -16.013  0.00  0.00    +0.013 A 
ATOM     17  C   UNL     1      -6.142  23.391 -16.896  0.00  0.00    +0.005 A 
ATOM     18  C   UNL     1      -7.146  24.266 -17.497  0.00  0.00    -0.033 A 
ATOM     28  C   UNL     1      -7.129  25.687 -17.191  0.00  0.00    +0.005 A 
ATOM     29  C   UNL     1      -6.159  26.243 -16.327  0.00  0.00    +0.013 A 
BRANCH  18  19
ATOM     19  C   UNL     1      -8.228  23.754 -18.466  0.00  0.00    +0.119 C 
BRANCH  19  20
ATOM     20  N   UNL     1      -9.633  23.712 -17.962  0.00  0.00    -0.302 NA
ATOM     21  C   UNL     1      -9.757  22.889 -16.677  0.00  0.00    +0.066 C 
ATOM     22  C   UNL     1     -11.229  22.873 -16.151  0.00  0.00    -0.064 C 
ATOM     23  N   UNL     1     -12.151  22.321 -17.239  0.00  0.00    +0.379 N 
ATOM     24  C   UNL     1     -13.528  22.251 -16.728  0.00  0.00    -0.096 C 
ATOM     25  H   UNL     1     -11.821  21.280 -17.465  0.00  0.00    -0.082 HD
ATOM     26  C   UNL     1     -12.032  23.131 -18.522  0.00  0.00    -0.064 C 
ATOM     27  C   UNL     1     -10.560  23.165 -19.020  0.00  0.00    +0.066 C 
ENDBRANCH  19  20
ENDBRANCH  18  19
ENDBRANCH  14  15
ENDBRANCH  12  13
TORSDOF 6
ENDMDL
MODEL 2
REMARK VINA RESULT:      -7.5      1.469      2.016
REMARK  Name = C:\Users\Docking\Desktop\test protocol\1iep_ligandH.pdb
REMARK  8 active torsions:
REMARK  status: ('A' for Active; 'I' for Inactive)
REMARK    1  A    between atoms: _5  and  _11
REMARK    2  A    between atoms: _19  and  _21
REMARK    3  A    between atoms: _22  and  _66
REMARK    4  A    between atoms: _27  and  _30
REMARK    5  A    between atoms: _32  and  _33
REMARK    6  A    between atoms: _38  and  _43
REMARK    7  A    between atoms: _43  and  _46
REMARK    8  A    between atoms: _53  and  _55
REMARK                            x       y       z     vdW  Elec       q    Type
REMARK                         _______ _______ _______ _____ _____    ______ ____
ROOT
ATOM     10  C   UNL     1      -2.719  27.025  -8.510  0.00  0.00    +0.038 A 
ATOM     11  C   UNL     1      -3.279  26.637  -9.754  0.00  0.00    +0.047 A 
ATOM     12  C   UNL     1      -3.605  27.624 -10.772  0.00  0.00    +0.035 A 
ATOM     32  C   UNL     1      -3.347  28.997 -10.490  0.00  0.00    +0.024 A 
ATOM     33  C   UNL     1      -2.779  29.409  -9.230  0.00  0.00    +0.007 A 
ATOM     34  C   UNL     1      -2.457  28.440  -8.221  0.00  0.00    -0.029 A 
ATOM     35  C   UNL     1      -1.857  28.940  -6.886  0.00  0.00    +0.045 C 
ENDROOT
BRANCH  10   9
ATOM      4  C   UNL     1       0.212  23.741  -6.597  0.00  0.00    +0.077 A 
ATOM      5  C   UNL     1       1.233  23.998  -7.572  0.00  0.00    +0.048 A 
ATOM      6  C   UNL     1       0.961  24.978  -8.553  0.00  0.00    +0.116 A 
ATOM      7  N   UNL     1      -0.245  25.645  -8.549  0.00  0.00    -0.223 NA
ATOM      8  C   UNL     1      -1.208  25.372  -7.596  0.00  0.00    +0.220 A 
ATOM      9  N   UNL     1      -2.425  26.036  -7.568  0.00  0.00    -0.283 N 
ATOM     36  H   UNL     1      -3.112  25.801  -6.853  0.00  0.00    +0.155 HD
ATOM     37  N   UNL     1      -0.974  24.439  -6.649  0.00  0.00    -0.214 NA
BRANCH   4   3
ATOM      1  C   UNL     1      -0.166  21.867  -3.184  0.00  0.00    +0.020 A 
ATOM      2  C   UNL     1      -0.334  22.865  -4.215  0.00  0.00    +0.013 A 
ATOM      3  C   UNL     1       0.351  22.737  -5.495  0.00  0.00    +0.019 A 
ATOM     38  C   UNL     1       1.206  21.577  -5.702  0.00  0.00    +0.120 A 
ATOM     39  N   UNL     1       1.350  20.633  -4.690  0.00  0.00    -0.263 NA
ATOM     40  C   UNL     1       0.696  20.747  -3.454  0.00  0.00    +0.111 A 
ENDBRANCH   4   3
ENDBRANCH  10   9
BRANCH  12  13
ATOM     13  N   UNL     1      -4.183  27.290 -12.051  0.00  0.00    -0.281 N 
ATOM     14  C   UNL     1      -3.590  26.607 -13.100  0.00  0.00    +0.248 C 
ATOM     30  O   UNL     1      -2.395  26.365 -13.180  0.00  0.00    -0.270 OA
ATOM     31  H   UNL     1      -5.145  27.594 -12.200  0.00  0.00    +0.155 HD
BRANCH  14  15
ATOM     15  C   UNL     1      -4.447  26.139 -14.232  0.00  0.00    +0.037 A 
ATOM     16  C   UNL     1      -4.376  24.759 -14.718  0.00  0.00    +0.013 A 
ATOM     17  C   UNL     1      -5.201  24.337 -15.823  0.00  0.00    +0.005 A 
ATOM     18  C   UNL     1      -6.106  25.299 -16.448  0.00  0.00    -0.033 A 
ATOM     28  C   UNL     1      -6.161  26.660 -15.942  0.00  0.00    +0.005 A 
ATOM     29  C   UNL     1      -5.353  27.077 -14.860  0.00  0.00    +0.013 A 
BRANCH  18  19
ATOM     19  C   UNL     1      -7.008  24.943 -17.644  0.00  0.00    +0.119 C 
BRANCH  19  20
ATOM     20  N   UNL     1      -8.432  24.604 -17.351  0.00  0.00    -0.302 NA
ATOM     21  C   UNL     1      -8.579  23.197 -16.764  0.00  0.00    +0.066 C 
ATOM     22  C   UNL     1     -10.073  22.868 -16.442  0.00  0.00    -0.064 C 
ATOM     23  N   UNL     1     -10.911  23.015 -17.713  0.00  0.00    +0.379 N 
ATOM     24  C   UNL     1     -12.306  22.650 -17.427  0.00  0.00    -0.096 C 
ATOM     25  H   UNL     1     -10.518  22.289 -18.462  0.00  0.00    -0.082 HD
ATOM     26  C   UNL     1     -10.768  24.410 -18.305  0.00  0.00    -0.064 C 
ATOM     27  C   UNL     1      -9.277  24.738 -18.594  0.00  0.00    +0.066 C 
ENDBRANCH  19  20
ENDBRANCH  18  19
ENDBRANCH  14  15
ENDBRANCH  12  13
TORSDOF 6
ENDMDL
MODEL 3
REMARK VINA RESULT:      -7.4      2.094     12.608
REMARK  Name = C:\Users\Docking\Desktop\test protocol\1iep_ligandH.pdb
REMARK  8 active torsions:
REMARK  status: ('A' for Active; 'I' for Inactive)
REMARK    1  A    between atoms: _5  and  _11
REMARK    2  A    between atoms: _19  and  _21
REMARK    3  A    between atoms: _22  and  _66
REMARK    4  A    between atoms: _27  and  _30
REMARK    5  A    between atoms: _32  and  _33
REMARK    6  A    between atoms: _38  and  _43
REMARK    7  A    between atoms: _43  and  _46
REMARK    8  A    between atoms: _53  and  _55
REMARK                            x       y       z     vdW  Elec       q    Type
REMARK                         _______ _______ _______ _____ _____    ______ ____
ROOT
ATOM     10  C   UNL     1      -8.181  23.313 -18.019  0.00  0.00    +0.038 A 
ATOM     11  C   UNL     1      -7.494  23.979 -16.972  0.00  0.00    +0.047 A 
ATOM     12  C   UNL     1      -6.052  23.858 -16.822  0.00  0.00    +0.035 A 
ATOM     32  C   UNL     1      -5.341  23.052 -17.758  0.00  0.00    +0.024 A 
ATOM     33  C   UNL     1      -6.024  22.367 -18.828  0.00  0.00    +0.007 A 
ATOM     34  C   UNL     1      -7.446  22.481 -18.979  0.00  0.00    -0.029 A 
ATOM     35  C   UNL     1      -8.127  21.720 -20.140  0.00  0.00    +0.045 C 
ENDROOT
BRANCH  10   9
ATOM      4  C   UNL     1     -12.636  22.674 -16.351  0.00  0.00    +0.077 A 
ATOM      5  C   UNL     1     -12.167  21.954 -15.202  0.00  0.00    +0.048 A 
ATOM      6  C   UNL     1     -10.772  21.764 -15.082  0.00  0.00    +0.116 A 
ATOM      7  N   UNL     1      -9.920  22.261 -16.044  0.00  0.00    -0.223 NA
ATOM      8  C   UNL     1     -10.406  22.949 -17.140  0.00  0.00    +0.220 A 
ATOM      9  N   UNL     1      -9.566  23.465 -18.116  0.00  0.00    -0.283 N 
ATOM     36  H   UNL     1      -9.965  23.960 -18.913  0.00  0.00    +0.155 HD
ATOM     37  N   UNL     1     -11.734  23.143 -17.279  0.00  0.00    -0.214 NA
BRANCH   4   3
ATOM      1  C   UNL     1     -16.478  23.242 -15.880  0.00  0.00    +0.020 A 
ATOM      2  C   UNL     1     -15.095  22.960 -15.570  0.00  0.00    +0.013 A 
ATOM      3  C   UNL     1     -14.082  22.959 -16.617  0.00  0.00    +0.019 A 
ATOM     38  C   UNL     1     -14.503  23.252 -17.979  0.00  0.00    +0.120 A 
ATOM     39  N   UNL     1     -15.842  23.519 -18.248  0.00  0.00    -0.263 NA
ATOM     40  C   UNL     1     -16.827  23.520 -17.248  0.00  0.00    +0.111 A 
ENDBRANCH   4   3
ENDBRANCH  10   9
BRANCH  12  13
ATOM     13  N   UNL     1      -5.301  24.504 -15.775  0.00  0.00    -0.281 N 
ATOM     14  C   UNL     1      -5.383  25.822 -15.357  0.00  0.00    +0.248 C 
ATOM     30  O   UNL     1      -5.967  26.706 -15.967  0.00  0.00    -0.270 OA
ATOM     31  H   UNL     1      -4.627  23.918 -15.281  0.00  0.00    +0.155 HD
BRANCH  14  15
ATOM     15  C   UNL     1      -4.707  26.220 -14.084  0.00  0.00    +0.037 A 
ATOM     16  C   UNL     1      -5.429  26.942 -13.034  0.00  0.00    +0.013 A 
ATOM     17  C   UNL     1      -4.749  27.329 -11.823  0.00  0.00    +0.005 A 
ATOM     18  C   UNL     1      -3.337  26.992 -11.657  0.00  0.00    -0.033 A 
ATOM     28  C   UNL     1      -2.646  26.270 -12.712  0.00  0.00    +0.005 A 
ATOM     29  C   UNL     1      -3.310  25.890 -13.901  0.00  0.00    +0.013 A 
BRANCH  18  19
ATOM     19  C   UNL     1      -2.526  27.383 -10.407  0.00  0.00    +0.119 C 
BRANCH  19  20
ATOM     20  N   UNL     1      -2.735  26.568  -9.173  0.00  0.00    -0.302 NA
ATOM     21  C   UNL     1      -3.059  27.440  -7.957  0.00  0.00    +0.066 C 
ATOM     22  C   UNL     1      -3.297  26.570  -6.680  0.00  0.00    -0.064 C 
ATOM     23  N   UNL     1      -2.061  25.709  -6.415  0.00  0.00    +0.379 N 
ATOM     24  C   UNL     1      -2.259  24.933  -5.182  0.00  0.00    -0.096 C 
ATOM     25  H   UNL     1      -1.199  26.396  -6.248  0.00  0.00    -0.082 HD
ATOM     26  C   UNL     1      -1.730  24.840  -7.621  0.00  0.00    -0.064 C 
ATOM     27  C   UNL     1      -1.524  25.713  -8.891  0.00  0.00    +0.066 C 
ENDBRANCH  19  20
ENDBRANCH  18  19
ENDBRANCH  14  15
ENDBRANCH  12  13
TORSDOF 6
ENDMDL
MODEL 4
REMARK VINA RESULT:      -7.3     18.310     21.525
REMARK  Name = C:\Users\Docking\Desktop\test protocol\1iep_ligandH.pdb
REMARK  8 active torsions:
REMARK  status: ('A' for Active; 'I' for Inactive)
REMARK    1  A    between atoms: _5  and  _11
REMARK    2  A    between atoms: _19  and  _21
REMARK    3  A    between atoms: _22  and  _66
REMARK    4  A    between atoms: _27  and  _30
REMARK    5  A    between atoms: _32  and  _33
REMARK    6  A    between atoms: _38  and  _43
REMARK    7  A    between atoms: _43  and  _46
REMARK    8  A    between atoms: _53  and  _55
REMARK                            x       y       z     vdW  Elec       q    Type
REMARK                         _______ _______ _______ _____ _____    ______ ____
ROOT
ATOM     10  C   UNL     1      -7.919  10.169   3.251  0.00  0.00    +0.038 A 
ATOM     11  C   UNL     1      -8.448   9.874   1.968  0.00  0.00    +0.047 A 
ATOM     12  C   UNL     1      -9.224   8.666   1.733  0.00  0.00    +0.035 A 
ATOM     32  C   UNL     1      -9.445   7.782   2.829  0.00  0.00    +0.024 A 
ATOM     33  C   UNL     1      -8.914   8.066   4.139  0.00  0.00    +0.007 A 
ATOM     34  C   UNL     1      -8.146   9.254   4.376  0.00  0.00    -0.029 A 
ATOM     35  C   UNL     1      -7.596   9.504   5.800  0.00  0.00    +0.045 C 
ENDROOT
BRANCH  10   9
ATOM      4  C   UNL     1      -7.564  14.951   3.468  0.00  0.00    +0.077 A 
ATOM      5  C   UNL     1      -8.962  15.126   3.196  0.00  0.00    +0.048 A 
ATOM      6  C   UNL     1      -9.736  13.960   2.999  0.00  0.00    +0.116 A 
ATOM      7  N   UNL     1      -9.145  12.717   3.072  0.00  0.00    -0.223 NA
ATOM      8  C   UNL     1      -7.794  12.583   3.334  0.00  0.00    +0.220 A 
ATOM      9  N   UNL     1      -7.182  11.343   3.419  0.00  0.00    -0.283 N 
ATOM     36  H   UNL     1      -6.181  11.287   3.608  0.00  0.00    +0.155 HD
ATOM     37  N   UNL     1      -7.033  13.681   3.524  0.00  0.00    -0.214 NA
BRANCH   4   3
ATOM      1  C   UNL     1      -4.756  17.218   4.975  0.00  0.00    +0.020 A 
ATOM      2  C   UNL     1      -5.649  16.098   4.793  0.00  0.00    +0.013 A 
ATOM      3  C   UNL     1      -6.616  16.085   3.702  0.00  0.00    +0.019 A 
ATOM     38  C   UNL     1      -6.651  17.230   2.805  0.00  0.00    +0.120 A 
ATOM     39  N   UNL     1      -5.779  18.296   3.005  0.00  0.00    -0.263 NA
ATOM     40  C   UNL     1      -4.846  18.320   4.053  0.00  0.00    +0.111 A 
ENDBRANCH   4   3
ENDBRANCH  10   9
BRANCH  12  13
ATOM     13  N   UNL     1      -9.779   8.310   0.451  0.00  0.00    -0.281 N 
ATOM     14  C   UNL     1      -9.374   7.294  -0.399  0.00  0.00    +0.248 C 
ATOM     30  O   UNL     1      -8.331   6.669  -0.282  0.00  0.00    -0.270 OA
ATOM     31  H   UNL     1     -10.565   8.876   0.131  0.00  0.00    +0.155 HD
BRANCH  14  15
ATOM     15  C   UNL     1     -10.248   6.929  -1.556  0.00  0.00    +0.037 A 
ATOM     16  C   UNL     1     -10.591   5.533  -1.838  0.00  0.00    +0.013 A 
ATOM     17  C   UNL     1     -11.422   5.207  -2.970  0.00  0.00    +0.005 A 
ATOM     18  C   UNL     1     -11.918   6.282  -3.827  0.00  0.00    -0.033 A 
ATOM     28  C   UNL     1     -11.567   7.658  -3.521  0.00  0.00    +0.005 A 
ATOM     29  C   UNL     1     -10.751   7.981  -2.413  0.00  0.00    +0.013 A 
BRANCH  18  19
ATOM     19  C   UNL     1     -12.793   6.025  -5.068  0.00  0.00    +0.119 C 
BRANCH  19  20
ATOM     20  N   UNL     1     -13.693   4.834  -5.036  0.00  0.00    -0.302 NA
ATOM     21  C   UNL     1     -13.155   3.683  -5.892  0.00  0.00    +0.066 C 
ATOM     22  C   UNL     1     -14.098   2.437  -5.828  0.00  0.00    -0.064 C 
ATOM     23  N   UNL     1     -15.502   2.840  -6.282  0.00  0.00    +0.379 N 
ATOM     24  C   UNL     1     -16.376   1.658  -6.279  0.00  0.00    -0.096 C 
ATOM     25  H   UNL     1     -15.426   3.202  -7.334  0.00  0.00    -0.082 HD
ATOM     26  C   UNL     1     -16.043   3.985  -5.438  0.00  0.00    -0.064 C 
ATOM     27  C   UNL     1     -15.084   5.207  -5.485  0.00  0.00    +0.066 C 
ENDBRANCH  19  20
ENDBRANCH  18  19
ENDBRANCH  14  15
ENDBRANCH  12  13
TORSDOF 6
ENDMDL
MODEL 5
REMARK VINA RESULT:      -7.3     18.142     21.169
REMARK  Name = C:\Users\Docking\Desktop\test protocol\1iep_ligandH.pdb
REMARK  8 active torsions:
REMARK  status: ('A' for Active; 'I' for Inactive)
REMARK    1  A    between atoms: _5  and  _11
REMARK    2  A    between atoms: _19  and  _21
REMARK    3  A    between atoms: _22  and  _66
REMARK    4  A    between atoms: _27  and  _30
REMARK    5  A    between atoms: _32  and  _33
REMARK    6  A    between atoms: _38  and  _43
REMARK    7  A    between atoms: _43  and  _46
REMARK    8  A    between atoms: _53  and  _55
REMARK                            x       y       z     vdW  Elec       q    Type
REMARK                         _______ _______ _______ _____ _____    ______ ____
ROOT
ATOM     10  C   UNL     1      -8.027   9.985   3.230  0.00  0.00    +0.038 A 
ATOM     11  C   UNL     1      -8.567   9.703   1.949  0.00  0.00    +0.047 A 
ATOM     12  C   UNL     1      -9.326   8.486   1.704  0.00  0.00    +0.035 A 
ATOM     32  C   UNL     1      -9.516   7.579   2.787  0.00  0.00    +0.024 A 
ATOM     33  C   UNL     1      -8.973   7.849   4.095  0.00  0.00    +0.007 A 
ATOM     34  C   UNL     1      -8.222   9.047   4.342  0.00  0.00    -0.029 A 
ATOM     35  C   UNL     1      -7.657   9.282   5.762  0.00  0.00    +0.045 C 
ENDROOT
BRANCH  10   9
ATOM      4  C   UNL     1      -7.742  14.770   3.469  0.00  0.00    +0.077 A 
ATOM      5  C   UNL     1      -9.139  14.927   3.186  0.00  0.00    +0.048 A 
ATOM      6  C   UNL     1      -9.895  13.751   2.978  0.00  0.00    +0.116 A 
ATOM      7  N   UNL     1      -9.288  12.516   3.051  0.00  0.00    -0.223 NA
ATOM      8  C   UNL     1      -7.937  12.400   3.324  0.00  0.00    +0.220 A 
ATOM      9  N   UNL     1      -7.307  11.168   3.409  0.00  0.00    -0.283 N 
ATOM     36  H   UNL     1      -6.308  11.126   3.605  0.00  0.00    +0.155 HD
ATOM     37  N   UNL     1      -7.193  13.508   3.525  0.00  0.00    -0.214 NA
BRANCH   4   3
ATOM      1  C   UNL     1      -4.936  17.045   4.970  0.00  0.00    +0.020 A 
ATOM      2  C   UNL     1      -5.811  15.912   4.775  0.00  0.00    +0.013 A 
ATOM      3  C   UNL     1      -6.812  15.917   3.715  0.00  0.00    +0.019 A 
ATOM     38  C   UNL     1      -6.902  17.093   2.864  0.00  0.00    +0.120 A 
ATOM     39  N   UNL     1      -6.048  18.171   3.076  0.00  0.00    -0.263 NA
ATOM     40  C   UNL     1      -5.082  18.178   4.094  0.00  0.00    +0.111 A 
ENDBRANCH   4   3
ENDBRANCH  10   9
BRANCH  12  13
ATOM     13  N   UNL     1      -9.891   8.142   0.423  0.00  0.00    -0.281 N 
ATOM     14  C   UNL     1      -9.432   7.204  -0.487  0.00  0.00    +0.248 C 
ATOM     30  O   UNL     1      -8.336   6.666  -0.431  0.00  0.00    -0.270 OA
ATOM     31  H   UNL     1     -10.733   8.652   0.154  0.00  0.00    +0.155 HD
BRANCH  14  15
ATOM     15  C   UNL     1     -10.311   6.819  -1.633  0.00  0.00    +0.037 A 
ATOM     16  C   UNL     1     -10.727   5.429  -1.838  0.00  0.00    +0.013 A 
ATOM     17  C   UNL     1     -11.561   5.082  -2.961  0.00  0.00    +0.005 A 
ATOM     18  C   UNL     1     -11.986   6.128  -3.888  0.00  0.00    -0.033 A 
ATOM     28  C   UNL     1     -11.563   7.499  -3.658  0.00  0.00    +0.005 A 
ATOM     29  C   UNL     1     -10.744   7.843  -2.559  0.00  0.00    +0.013 A 
BRANCH  18  19
ATOM     19  C   UNL     1     -12.858   5.845  -5.125  0.00  0.00    +0.119 C 
BRANCH  19  20
ATOM     20  N   UNL     1     -14.281   6.297  -5.076  0.00  0.00    -0.302 NA
ATOM     21  C   UNL     1     -15.255   5.170  -5.431  0.00  0.00    +0.066 C 
ATOM     22  C   UNL     1     -16.739   5.654  -5.353  0.00  0.00    -0.064 C 
ATOM     23  N   UNL     1     -16.932   6.850  -6.286  0.00  0.00    +0.379 N 
ATOM     24  C   UNL     1     -18.340   7.271  -6.259  0.00  0.00    -0.096 C 
ATOM     25  H   UNL     1     -16.700   6.511  -7.323  0.00  0.00    -0.082 HD
ATOM     26  C   UNL     1     -15.966   7.975  -5.942  0.00  0.00    -0.064 C 
ATOM     27  C   UNL     1     -14.495   7.475  -5.994  0.00  0.00    +0.066 C 
ENDBRANCH  19  20
ENDBRANCH  18  19
ENDBRANCH  14  15
ENDBRANCH  12  13
TORSDOF 6
ENDMDL
