MODEL 1
REMARK VINA RESULT:      -8.2      0.000      0.000
REMARK  Name = C:\Users\Docking\Desktop\test protocol\1iep_ligandH.pdb
REMARK  8 active torsions:
REMARK  status: ('A' for Active; 'I' for Inactive)
REMARK    1  A    between atoms: _5  and  _11
REMARK    2  A    between atoms: _19  and  _21
REMARK    3  A    between atoms: _22  and  _66
REMARK    4  A    between atoms: _27  and  _30
REMARK    5  A    between atoms: _32  and  _33
REMARK    6  A    between atoms: _38  and  _43
REMARK    7  A    between atoms: _43  and  _46
REMARK    8  A    between atoms: _53  and  _55
REMARK                            x       y       z     vdW  Elec       q    Type
REMARK                         _______ _______ _______ _____ _____    ______ ____
ROOT
ATOM     10  C   UNL     1      64.780 -18.962  20.632  0.00  0.00    +0.038 A 
ATOM     11  C   UNL     1      65.261 -18.358  21.821  0.00  0.00    +0.047 A 
ATOM     12  C   UNL     1      65.975 -19.133  22.824  0.00  0.00    +0.035 A 
ATOM     32  C   UNL     1      66.182 -20.522  22.582  0.00  0.00    +0.024 A 
ATOM     33  C   UNL     1      65.699 -21.153  21.379  0.00  0.00    +0.007 A 
ATOM     34  C   UNL     1      64.992 -20.394  20.387  0.00  0.00    -0.029 A 
ATOM     35  C   UNL     1      64.490 -21.124  19.120  0.00  0.00    +0.045 C 
ENDROOT
BRANCH  10   9
ATOM      4  C   UNL     1      60.790 -16.896  18.944  0.00  0.00    +0.077 A 
ATOM      5  C   UNL     1      59.984 -17.465  19.986  0.00  0.00    +0.048 A 
ATOM      6  C   UNL     1      60.633 -18.289  20.932  0.00  0.00    +0.116 A 
ATOM      7  N   UNL     1      61.988 -18.520  20.834  0.00  0.00    -0.223 NA
ATOM      8  C   UNL     1      62.736 -17.958  19.816  0.00  0.00    +0.220 A 
ATOM      9  N   UNL     1      64.101 -18.170  19.703  0.00  0.00    -0.283 N 
ATOM     36  H   UNL     1      64.616 -17.743  18.933  0.00  0.00    +0.155 HD
ATOM     37  N   UNL     1      62.139 -17.168  18.899  0.00  0.00    -0.214 NA
BRANCH   4   3
ATOM      1  C   UNL     1      59.586 -15.520  15.486  0.00  0.00    +0.020 A 
ATOM      2  C   UNL     1      60.114 -16.423  16.483  0.00  0.00    +0.013 A 
ATOM      3  C   UNL     1      60.249 -16.002  17.872  0.00  0.00    +0.019 A 
ATOM     38  C   UNL     1      59.837 -14.651  18.222  0.00  0.00    +0.120 A 
ATOM     39  N   UNL     1      59.333 -13.803  17.240  0.00  0.00    -0.263 NA
ATOM     40  C   UNL     1      59.200 -14.197  15.900  0.00  0.00    +0.111 A 
ENDBRANCH   4   3
ENDBRANCH  10   9
BRANCH  12  13
ATOM     13  N   UNL     1      66.480 -18.575  24.054  0.00  0.00    -0.281 N 
ATOM     14  C   UNL     1      65.769 -17.929  25.051  0.00  0.00    +0.248 C 
ATOM     30  O   UNL     1      64.616 -17.541  24.937  0.00  0.00    -0.270 OA
ATOM     31  H   UNL     1      67.484 -18.669  24.208  0.00  0.00    +0.155 HD
BRANCH  14  15
ATOM     15  C   UNL     1      66.440 -17.661  26.359  0.00  0.00    +0.037 A 
ATOM     16  C   UNL     1      67.520 -16.677  26.472  0.00  0.00    +0.013 A 
ATOM     17  C   UNL     1      68.162 -16.451  27.743  0.00  0.00    +0.005 A 
ATOM     18  C   UNL     1      67.724 -17.210  28.912  0.00  0.00    -0.033 A 
ATOM     28  C   UNL     1      66.648 -18.176  28.772  0.00  0.00    +0.005 A 
ATOM     29  C   UNL     1      66.016 -18.402  27.528  0.00  0.00    +0.013 A 
BRANCH  18  19
ATOM     19  C   UNL     1      68.367 -17.049  30.302  0.00  0.00    +0.119 C 
BRANCH  19  20
ATOM     20  N   UNL     1      69.810 -17.409  30.434  0.00  0.00    -0.302 NA
ATOM     21  C   UNL     1      70.044 -18.914  30.278  0.00  0.00    +0.066 C 
ATOM     22  C   UNL     1      71.562 -19.269  30.396  0.00  0.00    -0.064 C 
ATOM     23  N   UNL     1      72.095 -18.775  31.742  0.00  0.00    +0.379 N 
ATOM     24  C   UNL     1      73.507 -19.160  31.881  0.00  0.00    -0.096 C 
ATOM     25  H   UNL     1      71.522 -19.296  32.544  0.00  0.00    -0.082 HD
ATOM     26  C   UNL     1      71.864 -17.280  31.907  0.00  0.00    -0.064 C 
ATOM     27  C   UNL     1      70.356 -16.934  31.758  0.00  0.00    +0.066 C 
ENDBRANCH  19  20
ENDBRANCH  18  19
ENDBRANCH  14  15
ENDBRANCH  12  13
TORSDOF 6
ENDMDL
MODEL 2
REMARK VINA RESULT:      -8.1      6.843     14.478
REMARK  Name = C:\Users\Docking\Desktop\test protocol\1iep_ligandH.pdb
REMARK  8 active torsions:
REMARK  status: ('A' for Active; 'I' for Inactive)
REMARK    1  A    between atoms: _5  and  _11
REMARK    2  A    between atoms: _19  and  _21
REMARK    3  A    between atoms: _22  and  _66
REMARK    4  A    between atoms: _27  and  _30
REMARK    5  A    between atoms: _32  and  _33
REMARK    6  A    between atoms: _38  and  _43
REMARK    7  A    between atoms: _43  and  _46
REMARK    8  A    between atoms: _53  and  _55
REMARK                            x       y       z     vdW  Elec       q    Type
REMARK                         _______ _______ _______ _____ _____    ______ ____
ROOT
ATOM     10  C   UNL     1      59.506 -14.934  16.930  0.00  0.00    +0.038 A 
ATOM     11  C   UNL     1      59.686 -13.529  17.015  0.00  0.00    +0.047 A 
ATOM     12  C   UNL     1      58.592 -12.612  16.735  0.00  0.00    +0.035 A 
ATOM     32  C   UNL     1      57.327 -13.160  16.373  0.00  0.00    +0.024 A 
ATOM     33  C   UNL     1      57.127 -14.585  16.281  0.00  0.00    +0.007 A 
ATOM     34  C   UNL     1      58.203 -15.494  16.554  0.00  0.00    -0.029 A 
ATOM     35  C   UNL     1      57.933 -17.012  16.434  0.00  0.00    +0.045 C 
ENDROOT
BRANCH  10   9
ATOM      4  C   UNL     1      62.091 -17.656  19.922  0.00  0.00    +0.077 A 
ATOM      5  C   UNL     1      61.222 -17.370  21.027  0.00  0.00    +0.048 A 
ATOM      6  C   UNL     1      60.125 -16.513  20.785  0.00  0.00    +0.116 A 
ATOM      7  N   UNL     1      59.922 -15.986  19.528  0.00  0.00    -0.223 NA
ATOM      8  C   UNL     1      60.780 -16.280  18.485  0.00  0.00    +0.220 A 
ATOM      9  N   UNL     1      60.591 -15.768  17.210  0.00  0.00    -0.283 N 
ATOM     36  H   UNL     1      61.250 -16.003  16.469  0.00  0.00    +0.155 HD
ATOM     37  N   UNL     1      61.836 -17.095  18.690  0.00  0.00    -0.214 NA
BRANCH   4   3
ATOM      1  C   UNL     1      65.597 -19.106  20.872  0.00  0.00    +0.020 A 
ATOM      2  C   UNL     1      64.465 -18.210  20.812  0.00  0.00    +0.013 A 
ATOM      3  C   UNL     1      63.290 -18.547  20.018  0.00  0.00    +0.019 A 
ATOM     38  C   UNL     1      63.292 -19.807  19.291  0.00  0.00    +0.120 A 
ATOM     39  N   UNL     1      64.397 -20.649  19.366  0.00  0.00    -0.263 NA
ATOM     40  C   UNL     1      65.534 -20.335  20.125  0.00  0.00    +0.111 A 
ENDBRANCH   4   3
ENDBRANCH  10   9
BRANCH  12  13
ATOM     13  N   UNL     1      58.717 -11.177  16.797  0.00  0.00    -0.281 N 
ATOM     14  C   UNL     1      59.102 -10.402  17.879  0.00  0.00    +0.248 C 
ATOM     30  O   UNL     1      59.192 -10.812  19.026  0.00  0.00    -0.270 OA
ATOM     31  H   UNL     1      58.495 -10.671  15.939  0.00  0.00    +0.155 HD
BRANCH  14  15
ATOM     15  C   UNL     1      59.419  -8.958  17.656  0.00  0.00    +0.037 A 
ATOM     16  C   UNL     1      58.946  -8.252  16.463  0.00  0.00    +0.013 A 
ATOM     17  C   UNL     1      59.280  -6.864  16.264  0.00  0.00    +0.005 A 
ATOM     18  C   UNL     1      60.092  -6.173  17.263  0.00  0.00    -0.033 A 
ATOM     28  C   UNL     1      60.544  -6.896  18.440  0.00  0.00    +0.005 A 
ATOM     29  C   UNL     1      60.219  -8.257  18.637  0.00  0.00    +0.013 A 
BRANCH  18  19
ATOM     19  C   UNL     1      60.515  -4.698  17.123  0.00  0.00    +0.119 C 
BRANCH  19  20
ATOM     20  N   UNL     1      61.115  -4.280  15.821  0.00  0.00    -0.302 NA
ATOM     21  C   UNL     1      62.452  -3.558  16.010  0.00  0.00    +0.066 C 
ATOM     22  C   UNL     1      63.077  -3.148  14.637  0.00  0.00    -0.064 C 
ATOM     23  N   UNL     1      62.088  -2.264  13.874  0.00  0.00    +0.379 N 
ATOM     24  C   UNL     1      62.696  -1.829  12.608  0.00  0.00    -0.096 C 
ATOM     25  H   UNL     1      61.903  -1.354  14.491  0.00  0.00    -0.082 HD
ATOM     26  C   UNL     1      60.755  -2.973  13.684  0.00  0.00    -0.064 C 
ATOM     27  C   UNL     1      60.157  -3.403  15.052  0.00  0.00    +0.066 C 
ENDBRANCH  19  20
ENDBRANCH  18  19
ENDBRANCH  14  15
ENDBRANCH  12  13
TORSDOF 6
ENDMDL
MODEL 3
REMARK VINA RESULT:      -7.9     34.219     37.099
REMARK  Name = C:\Users\Docking\Desktop\test protocol\1iep_ligandH.pdb
REMARK  8 active torsions:
REMARK  status: ('A' for Active; 'I' for Inactive)
REMARK    1  A    between atoms: _5  and  _11
REMARK    2  A    between atoms: _19  and  _21
REMARK    3  A    between atoms: _22  and  _66
REMARK    4  A    between atoms: _27  and  _30
REMARK    5  A    between atoms: _32  and  _33
REMARK    6  A    between atoms: _38  and  _43
REMARK    7  A    between atoms: _43  and  _46
REMARK    8  A    between atoms: _53  and  _55
REMARK                            x       y       z     vdW  Elec       q    Type
REMARK                         _______ _______ _______ _____ _____    ______ ____
ROOT
ATOM     10  C   UNL     1      89.828 -20.873  -0.618  0.00  0.00    +0.038 A 
ATOM     11  C   UNL     1      89.991 -22.278  -0.511  0.00  0.00    +0.047 A 
ATOM     12  C   UNL     1      89.746 -22.970   0.745  0.00  0.00    +0.035 A 
ATOM     32  C   UNL     1      89.335 -22.201   1.872  0.00  0.00    +0.024 A 
ATOM     33  C   UNL     1      89.165 -20.772   1.781  0.00  0.00    +0.007 A 
ATOM     34  C   UNL     1      89.407 -20.083   0.546  0.00  0.00    -0.029 A 
ATOM     35  C   UNL     1      89.216 -18.549   0.508  0.00  0.00    +0.045 C 
ENDROOT
BRANCH  10   9
ATOM      4  C   UNL     1      92.788 -19.457  -4.121  0.00  0.00    +0.077 A 
ATOM      5  C   UNL     1      93.941 -19.957  -3.429  0.00  0.00    +0.048 A 
ATOM      6  C   UNL     1      93.730 -20.566  -2.172  0.00  0.00    +0.116 A 
ATOM      7  N   UNL     1      92.456 -20.662  -1.654  0.00  0.00    -0.223 NA
ATOM      8  C   UNL     1      91.366 -20.167  -2.346  0.00  0.00    +0.220 A 
ATOM      9  N   UNL     1      90.076 -20.260  -1.848  0.00  0.00    -0.283 N 
ATOM     36  H   UNL     1      89.299 -19.876  -2.386  0.00  0.00    +0.155 HD
ATOM     37  N   UNL     1      91.541 -19.580  -3.548  0.00  0.00    -0.214 NA
BRANCH   4   3
ATOM      1  C   UNL     1      91.938 -18.319  -7.766  0.00  0.00    +0.020 A 
ATOM      2  C   UNL     1      91.833 -18.986  -6.488  0.00  0.00    +0.013 A 
ATOM      3  C   UNL     1      92.848 -18.791  -5.460  0.00  0.00    +0.019 A 
ATOM     38  C   UNL     1      93.964 -17.906  -5.758  0.00  0.00    +0.120 A 
ATOM     39  N   UNL     1      94.039 -17.278  -6.998  0.00  0.00    -0.263 NA
ATOM     40  C   UNL     1      93.070 -17.460  -7.995  0.00  0.00    +0.111 A 
ENDBRANCH   4   3
ENDBRANCH  10   9
BRANCH  12  13
ATOM     13  N   UNL     1      89.903 -24.393   0.915  0.00  0.00    -0.281 N 
ATOM     14  C   UNL     1      90.570 -25.061   1.930  0.00  0.00    +0.248 C 
ATOM     30  O   UNL     1      91.318 -24.526   2.734  0.00  0.00    -0.270 OA
ATOM     31  H   UNL     1      89.470 -24.980   0.202  0.00  0.00    +0.155 HD
BRANCH  14  15
ATOM     15  C   UNL     1      90.390 -26.539   2.061  0.00  0.00    +0.037 A 
ATOM     16  C   UNL     1      89.105 -27.178   1.764  0.00  0.00    +0.013 A 
ATOM     17  C   UNL     1      88.953 -28.603   1.915  0.00  0.00    +0.005 A 
ATOM     18  C   UNL     1      90.092 -29.401   2.365  0.00  0.00    -0.033 A 
ATOM     28  C   UNL     1      91.356 -28.742   2.648  0.00  0.00    +0.005 A 
ATOM     29  C   UNL     1      91.508 -27.345   2.501  0.00  0.00    +0.013 A 
BRANCH  18  19
ATOM     19  C   UNL     1      90.015 -30.924   2.574  0.00  0.00    +0.119 C 
BRANCH  19  20
ATOM     20  N   UNL     1      90.284 -31.792   1.389  0.00  0.00    -0.302 NA
ATOM     21  C   UNL     1      89.487 -31.348   0.159  0.00  0.00    +0.066 C 
ATOM     22  C   UNL     1      89.797 -32.252  -1.078  0.00  0.00    -0.064 C 
ATOM     23  N   UNL     1      89.489 -33.710  -0.730  0.00  0.00    +0.379 N 
ATOM     24  C   UNL     1      89.725 -34.556  -1.909  0.00  0.00    -0.096 C 
ATOM     25  H   UNL     1      88.405 -33.775  -0.478  0.00  0.00    -0.082 HD
ATOM     26  C   UNL     1      90.276 -34.159   0.493  0.00  0.00    -0.064 C 
ATOM     27  C   UNL     1      89.982 -33.236   1.709  0.00  0.00    +0.066 C 
ENDBRANCH  19  20
ENDBRANCH  18  19
ENDBRANCH  14  15
ENDBRANCH  12  13
TORSDOF 6
ENDMDL
MODEL 4
REMARK VINA RESULT:      -7.9     18.758     23.886
REMARK  Name = C:\Users\Docking\Desktop\test protocol\1iep_ligandH.pdb
REMARK  8 active torsions:
REMARK  status: ('A' for Active; 'I' for Inactive)
REMARK    1  A    between atoms: _5  and  _11
REMARK    2  A    between atoms: _19  and  _21
REMARK    3  A    between atoms: _22  and  _66
REMARK    4  A    between atoms: _27  and  _30
REMARK    5  A    between atoms: _32  and  _33
REMARK    6  A    between atoms: _38  and  _43
REMARK    7  A    between atoms: _43  and  _46
REMARK    8  A    between atoms: _53  and  _55
REMARK                            x       y       z     vdW  Elec       q    Type
REMARK                         _______ _______ _______ _____ _____    ______ ____
ROOT
ATOM     10  C   UNL     1      76.805 -11.381   5.817  0.00  0.00    +0.038 A 
ATOM     11  C   UNL     1      75.660 -11.877   5.143  0.00  0.00    +0.047 A 
ATOM     12  C   UNL     1      75.786 -12.747   3.985  0.00  0.00    +0.035 A 
ATOM     32  C   UNL     1      77.095 -13.095   3.540  0.00  0.00    +0.024 A 
ATOM     33  C   UNL     1      78.270 -12.599   4.212  0.00  0.00    +0.007 A 
ATOM     34  C   UNL     1      78.152 -11.738   5.354  0.00  0.00    -0.029 A 
ATOM     35  C   UNL     1      79.446 -11.231   6.031  0.00  0.00    +0.045 C 
ENDROOT
BRANCH  10   9
ATOM      4  C   UNL     1      74.029  -9.220   9.081  0.00  0.00    +0.077 A 
ATOM      5  C   UNL     1      72.832  -9.774   8.517  0.00  0.00    +0.048 A 
ATOM      6  C   UNL     1      72.974 -10.604   7.383  0.00  0.00    +0.116 A 
ATOM      7  N   UNL     1      74.224 -10.855   6.860  0.00  0.00    -0.223 NA
ATOM      8  C   UNL     1      75.358 -10.303   7.428  0.00  0.00    +0.220 A 
ATOM      9  N   UNL     1      76.626 -10.549   6.924  0.00  0.00    -0.283 N 
ATOM     36  H   UNL     1      77.437 -10.117   7.367  0.00  0.00    +0.155 HD
ATOM     37  N   UNL     1      75.249  -9.506   8.511  0.00  0.00    -0.214 NA
BRANCH   4   3
ATOM      1  C   UNL     1      73.146  -7.565  12.514  0.00  0.00    +0.020 A 
ATOM      2  C   UNL     1      73.088  -8.453  11.376  0.00  0.00    +0.013 A 
ATOM      3  C   UNL     1      74.044  -8.326  10.283  0.00  0.00    +0.019 A 
ATOM     38  C   UNL     1      75.054  -7.282  10.373  0.00  0.00    +0.120 A 
ATOM     39  N   UNL     1      75.084  -6.441  11.480  0.00  0.00    -0.263 NA
ATOM     40  C   UNL     1      74.168  -6.552  12.538  0.00  0.00    +0.111 A 
ENDBRANCH   4   3
ENDBRANCH  10   9
BRANCH  12  13
ATOM     13  N   UNL     1      74.659 -13.275   3.256  0.00  0.00    -0.281 N 
ATOM     14  C   UNL     1      73.476 -13.783   3.767  0.00  0.00    +0.248 C 
ATOM     30  O   UNL     1      73.294 -14.058   4.944  0.00  0.00    -0.270 OA
ATOM     31  H   UNL     1      74.744 -13.274   2.239  0.00  0.00    +0.155 HD
BRANCH  14  15
ATOM     15  C   UNL     1      72.335 -14.034   2.835  0.00  0.00    +0.037 A 
ATOM     16  C   UNL     1      72.317 -15.204   1.954  0.00  0.00    +0.013 A 
ATOM     17  C   UNL     1      71.213 -15.414   1.052  0.00  0.00    +0.005 A 
ATOM     18  C   UNL     1      70.115 -14.450   1.028  0.00  0.00    -0.033 A 
ATOM     28  C   UNL     1      70.155 -13.301   1.917  0.00  0.00    +0.005 A 
ATOM     29  C   UNL     1      71.237 -13.091   2.802  0.00  0.00    +0.013 A 
BRANCH  18  19
ATOM     19  C   UNL     1      68.906 -14.583   0.083  0.00  0.00    +0.119 C 
BRANCH  19  20
ATOM     20  N   UNL     1      67.551 -14.366   0.672  0.00  0.00    -0.302 NA
ATOM     21  C   UNL     1      67.156 -15.491   1.633  0.00  0.00    +0.066 C 
ATOM     22  C   UNL     1      65.745 -15.237   2.257  0.00  0.00    -0.064 C 
ATOM     23  N   UNL     1      64.713 -15.095   1.137  0.00  0.00    +0.379 N 
ATOM     24  C   UNL     1      63.376 -14.914   1.722  0.00  0.00    -0.096 C 
ATOM     25  H   UNL     1      64.704 -16.049   0.562  0.00  0.00    -0.082 HD
ATOM     26  C   UNL     1      65.099 -13.980   0.175  0.00  0.00    -0.064 C 
ATOM     27  C   UNL     1      66.515 -14.227  -0.417  0.00  0.00    +0.066 C 
ENDBRANCH  19  20
ENDBRANCH  18  19
ENDBRANCH  14  15
ENDBRANCH  12  13
TORSDOF 6
ENDMDL
MODEL 5
REMARK VINA RESULT:      -7.8     10.705     20.865
REMARK  Name = C:\Users\Docking\Desktop\test protocol\1iep_ligandH.pdb
REMARK  8 active torsions:
REMARK  status: ('A' for Active; 'I' for Inactive)
REMARK    1  A    between atoms: _5  and  _11
REMARK    2  A    between atoms: _19  and  _21
REMARK    3  A    between atoms: _22  and  _66
REMARK    4  A    between atoms: _27  and  _30
REMARK    5  A    between atoms: _32  and  _33
REMARK    6  A    between atoms: _38  and  _43
REMARK    7  A    between atoms: _43  and  _46
REMARK    8  A    between atoms: _53  and  _55
REMARK                            x       y       z     vdW  Elec       q    Type
REMARK                         _______ _______ _______ _____ _____    ______ ____
ROOT
ATOM     10  C   UNL     1      59.161  -8.102  15.746  0.00  0.00    +0.038 A 
ATOM     11  C   UNL     1      58.466  -7.849  14.536  0.00  0.00    +0.047 A 
ATOM     12  C   UNL     1      57.943  -6.526  14.231  0.00  0.00    +0.035 A 
ATOM     32  C   UNL     1      58.148  -5.483  15.181  0.00  0.00    +0.024 A 
ATOM     33  C   UNL     1      58.851  -5.724  16.417  0.00  0.00    +0.007 A 
ATOM     34  C   UNL     1      59.368  -7.027  16.723  0.00  0.00    -0.029 A 
ATOM     35  C   UNL     1      60.108  -7.229  18.066  0.00  0.00    +0.045 C 
ENDROOT
BRANCH  10   9
ATOM      4  C   UNL     1      58.495 -12.772  16.632  0.00  0.00    +0.077 A 
ATOM      5  C   UNL     1      57.068 -12.627  16.643  0.00  0.00    +0.048 A 
ATOM      6  C   UNL     1      56.546 -11.333  16.423  0.00  0.00    +0.116 A 
ATOM      7  N   UNL     1      57.397 -10.270  16.210  0.00  0.00    -0.223 NA
ATOM      8  C   UNL     1      58.769 -10.444  16.207  0.00  0.00    +0.220 A 
ATOM      9  N   UNL     1      59.643  -9.391  15.987  0.00  0.00    -0.283 N 
ATOM     36  H   UNL     1      60.648  -9.559  16.000  0.00  0.00    +0.155 HD
ATOM     37  N   UNL     1      59.292 -11.670  16.416  0.00  0.00    -0.214 NA
BRANCH   4   3
ATOM      1  C   UNL     1      60.037 -16.320  16.054  0.00  0.00    +0.020 A 
ATOM      2  C   UNL     1      59.348 -15.077  15.796  0.00  0.00    +0.013 A 
ATOM      3  C   UNL     1      59.198 -14.077  16.846  0.00  0.00    +0.019 A 
ATOM     38  C   UNL     1      59.761 -14.368  18.155  0.00  0.00    +0.120 A 
ATOM     39  N   UNL     1      60.418 -15.575  18.375  0.00  0.00    -0.263 NA
ATOM     40  C   UNL     1      60.567 -16.546  17.373  0.00  0.00    +0.111 A 
ENDBRANCH   4   3
ENDBRANCH  10   9
BRANCH  12  13
ATOM     13  N   UNL     1      57.222  -6.211  13.023  0.00  0.00    -0.281 N 
ATOM     14  C   UNL     1      57.634  -6.396  11.713  0.00  0.00    +0.248 C 
ATOM     30  O   UNL     1      58.779  -6.665  11.380  0.00  0.00    -0.270 OA
ATOM     31  H   UNL     1      56.296  -5.802  13.148  0.00  0.00    +0.155 HD
BRANCH  14  15
ATOM     15  C   UNL     1      56.633  -6.247  10.613  0.00  0.00    +0.037 A 
ATOM     16  C   UNL     1      57.051  -5.964   9.238  0.00  0.00    +0.013 A 
ATOM     17  C   UNL     1      56.064  -5.808   8.199  0.00  0.00    +0.005 A 
ATOM     18  C   UNL     1      54.647  -5.935   8.533  0.00  0.00    -0.033 A 
ATOM     28  C   UNL     1      54.260  -6.220   9.905  0.00  0.00    +0.005 A 
ATOM     29  C   UNL     1      55.225  -6.373  10.925  0.00  0.00    +0.013 A 
BRANCH  18  19
ATOM     19  C   UNL     1      53.524  -5.762   7.493  0.00  0.00    +0.119 C 
BRANCH  19  20
ATOM     20  N   UNL     1      53.038  -4.374   7.236  0.00  0.00    -0.302 NA
ATOM     21  C   UNL     1      52.896  -4.082   5.740  0.00  0.00    +0.066 C 
ATOM     22  C   UNL     1      52.365  -2.633   5.490  0.00  0.00    -0.064 C 
ATOM     23  N   UNL     1      53.307  -1.626   6.151  0.00  0.00    +0.379 N 
ATOM     24  C   UNL     1      52.842  -0.260   5.869  0.00  0.00    -0.096 C 
ATOM     25  H   UNL     1      54.311  -1.745   5.683  0.00  0.00    -0.082 HD
ATOM     26  C   UNL     1      53.455  -1.911   7.639  0.00  0.00    -0.064 C 
ATOM     27  C   UNL     1      53.956  -3.363   7.877  0.00  0.00    +0.066 C 
ENDBRANCH  19  20
ENDBRANCH  18  19
ENDBRANCH  14  15
ENDBRANCH  12  13
TORSDOF 6
ENDMDL
