MODEL 1
REMARK VINA RESULT:      -8.3      0.000      0.000
REMARK  Name = C:\Users\Docking\Desktop\test protocol\1iep_ligandH.pdb
REMARK  8 active torsions:
REMARK  status: ('A' for Active; 'I' for Inactive)
REMARK    1  A    between atoms: _5  and  _11
REMARK    2  A    between atoms: _19  and  _21
REMARK    3  A    between atoms: _22  and  _66
REMARK    4  A    between atoms: _27  and  _30
REMARK    5  A    between atoms: _32  and  _33
REMARK    6  A    between atoms: _38  and  _43
REMARK    7  A    between atoms: _43  and  _46
REMARK    8  A    between atoms: _53  and  _55
REMARK                            x       y       z     vdW  Elec       q    Type
REMARK                         _______ _______ _______ _____ _____    ______ ____
ROOT
ATOM     10  C   UNL     1      89.838 -20.964  -0.659  0.00  0.00    +0.038 A 
ATOM     11  C   UNL     1      90.088 -22.334  -0.391  0.00  0.00    +0.047 A 
ATOM     12  C   UNL     1      89.872 -22.893   0.935  0.00  0.00    +0.035 A 
ATOM     32  C   UNL     1      89.396 -22.029   1.963  0.00  0.00    +0.024 A 
ATOM     33  C   UNL     1      89.138 -20.633   1.708  0.00  0.00    +0.007 A 
ATOM     34  C   UNL     1      89.352 -20.076   0.403  0.00  0.00    -0.029 A 
ATOM     35  C   UNL     1      89.064 -18.571   0.189  0.00  0.00    +0.045 C 
ENDROOT
BRANCH  10   9
ATOM      4  C   UNL     1      92.752 -19.517  -4.188  0.00  0.00    +0.077 A 
ATOM      5  C   UNL     1      93.923 -19.716  -3.383  0.00  0.00    +0.048 A 
ATOM      6  C   UNL     1      93.731 -20.185  -2.064  0.00  0.00    +0.116 A 
ATOM      7  N   UNL     1      92.459 -20.434  -1.596  0.00  0.00    -0.223 NA
ATOM      8  C   UNL     1      91.351 -20.230  -2.398  0.00  0.00    +0.220 A 
ATOM      9  N   UNL     1      90.064 -20.481  -1.950  0.00  0.00    -0.283 N 
ATOM     36  H   UNL     1      89.272 -20.311  -2.570  0.00  0.00    +0.155 HD
ATOM     37  N   UNL     1      91.507 -19.781  -3.660  0.00  0.00    -0.214 NA
BRANCH   4   3
ATOM      1  C   UNL     1      92.248 -19.241  -8.057  0.00  0.00    +0.020 A 
ATOM      2  C   UNL     1      92.182 -19.757  -6.709  0.00  0.00    +0.013 A 
ATOM      3  C   UNL     1      92.791 -19.029  -5.603  0.00  0.00    +0.019 A 
ATOM     38  C   UNL     1      93.462 -17.772  -5.897  0.00  0.00    +0.120 A 
ATOM     39  N   UNL     1      93.511 -17.301  -7.205  0.00  0.00    -0.263 NA
ATOM     40  C   UNL     1      92.931 -17.994  -8.278  0.00  0.00    +0.111 A 
ENDBRANCH   4   3
ENDBRANCH  10   9
BRANCH  12  13
ATOM     13  N   UNL     1      90.116 -24.275   1.268  0.00  0.00    -0.281 N 
ATOM     14  C   UNL     1      89.240 -25.180   1.845  0.00  0.00    +0.248 C 
ATOM     30  O   UNL     1      88.173 -24.877   2.359  0.00  0.00    -0.270 OA
ATOM     31  H   UNL     1      91.048 -24.628   1.054  0.00  0.00    +0.155 HD
BRANCH  14  15
ATOM     15  C   UNL     1      89.607 -26.628   1.865  0.00  0.00    +0.037 A 
ATOM     16  C   UNL     1      88.636 -27.664   1.504  0.00  0.00    +0.013 A 
ATOM     17  C   UNL     1      89.011 -29.055   1.549  0.00  0.00    +0.005 A 
ATOM     18  C   UNL     1      90.367 -29.418   1.955  0.00  0.00    -0.033 A 
ATOM     28  C   UNL     1      91.312 -28.370   2.302  0.00  0.00    +0.005 A 
ATOM     29  C   UNL     1      90.947 -27.005   2.261  0.00  0.00    +0.013 A 
BRANCH  18  19
ATOM     19  C   UNL     1      90.848 -30.878   2.051  0.00  0.00    +0.119 C 
BRANCH  19  20
ATOM     20  N   UNL     1      90.887 -31.670   0.786  0.00  0.00    -0.302 NA
ATOM     21  C   UNL     1      90.807 -30.776  -0.455  0.00  0.00    +0.066 C 
ATOM     22  C   UNL     1      90.872 -31.619  -1.769  0.00  0.00    -0.064 C 
ATOM     23  N   UNL     1      89.738 -32.646  -1.769  0.00  0.00    +0.379 N 
ATOM     24  C   UNL     1      89.761 -33.402  -3.030  0.00  0.00    -0.096 C 
ATOM     25  H   UNL     1      88.775 -32.087  -1.727  0.00  0.00    -0.082 HD
ATOM     26  C   UNL     1      89.808 -33.538  -0.537  0.00  0.00    -0.064 C 
ATOM     27  C   UNL     1      89.774 -32.688   0.763  0.00  0.00    +0.066 C 
ENDBRANCH  19  20
ENDBRANCH  18  19
ENDBRANCH  14  15
ENDBRANCH  12  13
TORSDOF 6
ENDMDL
MODEL 2
REMARK VINA RESULT:      -8.0     35.462     40.078
REMARK  Name = C:\Users\Docking\Desktop\test protocol\1iep_ligandH.pdb
REMARK  8 active torsions:
REMARK  status: ('A' for Active; 'I' for Inactive)
REMARK    1  A    between atoms: _5  and  _11
REMARK    2  A    between atoms: _19  and  _21
REMARK    3  A    between atoms: _22  and  _66
REMARK    4  A    between atoms: _27  and  _30
REMARK    5  A    between atoms: _32  and  _33
REMARK    6  A    between atoms: _38  and  _43
REMARK    7  A    between atoms: _43  and  _46
REMARK    8  A    between atoms: _53  and  _55
REMARK                            x       y       z     vdW  Elec       q    Type
REMARK                         _______ _______ _______ _____ _____    ______ ____
ROOT
ATOM     10  C   UNL     1      57.632 -15.527  16.883  0.00  0.00    +0.038 A 
ATOM     11  C   UNL     1      57.865 -14.226  16.368  0.00  0.00    +0.047 A 
ATOM     12  C   UNL     1      56.764 -13.312  16.108  0.00  0.00    +0.035 A 
ATOM     32  C   UNL     1      55.438 -13.754  16.386  0.00  0.00    +0.024 A 
ATOM     33  C   UNL     1      55.183 -15.074  16.908  0.00  0.00    +0.007 A 
ATOM     34  C   UNL     1      56.265 -15.981  17.165  0.00  0.00    -0.029 A 
ATOM     35  C   UNL     1      55.932 -17.386  17.720  0.00  0.00    +0.045 C 
ENDROOT
BRANCH  10   9
ATOM      4  C   UNL     1      61.360 -16.985  19.532  0.00  0.00    +0.077 A 
ATOM      5  C   UNL     1      61.124 -15.977  20.526  0.00  0.00    +0.048 A 
ATOM      6  C   UNL     1      60.037 -15.099  20.314  0.00  0.00    +0.116 A 
ATOM      7  N   UNL     1      59.252 -15.228  19.189  0.00  0.00    -0.223 NA
ATOM      8  C   UNL     1      59.508 -16.210  18.250  0.00  0.00    +0.220 A 
ATOM      9  N   UNL     1      58.726 -16.363  17.115  0.00  0.00    -0.283 N 
ATOM     36  H   UNL     1      58.953 -17.095  16.442  0.00  0.00    +0.155 HD
ATOM     37  N   UNL     1      60.541 -17.060  18.428  0.00  0.00    -0.214 NA
BRANCH   4   3
ATOM      1  C   UNL     1      64.787 -18.708  20.299  0.00  0.00    +0.020 A 
ATOM      2  C   UNL     1      63.751 -17.702  20.244  0.00  0.00    +0.013 A 
ATOM      3  C   UNL     1      62.467 -17.989  19.616  0.00  0.00    +0.019 A 
ATOM     38  C   UNL     1      62.262 -19.313  19.048  0.00  0.00    +0.120 A 
ATOM     39  N   UNL     1      63.279 -20.260  19.114  0.00  0.00    -0.263 NA
ATOM     40  C   UNL     1      64.519 -19.996  19.715  0.00  0.00    +0.111 A 
ENDBRANCH   4   3
ENDBRANCH  10   9
BRANCH  12  13
ATOM     13  N   UNL     1      56.939 -11.982  15.578  0.00  0.00    -0.281 N 
ATOM     14  C   UNL     1      57.518 -10.887  16.198  0.00  0.00    +0.248 C 
ATOM     30  O   UNL     1      57.784 -10.829  17.389  0.00  0.00    -0.270 OA
ATOM     31  H   UNL     1      56.593 -11.829  14.630  0.00  0.00    +0.155 HD
BRANCH  14  15
ATOM     15  C   UNL     1      57.836  -9.678  15.379  0.00  0.00    +0.037 A 
ATOM     16  C   UNL     1      59.103  -8.960  15.543  0.00  0.00    +0.013 A 
ATOM     17  C   UNL     1      59.376  -7.786  14.752  0.00  0.00    +0.005 A 
ATOM     18  C   UNL     1      58.380  -7.323  13.789  0.00  0.00    -0.033 A 
ATOM     28  C   UNL     1      57.133  -8.057  13.644  0.00  0.00    +0.005 A 
ATOM     29  C   UNL     1      56.861  -9.207  14.418  0.00  0.00    +0.013 A 
BRANCH  18  19
ATOM     19  C   UNL     1      58.578  -6.068  12.919  0.00  0.00    +0.119 C 
BRANCH  19  20
ATOM     20  N   UNL     1      57.561  -5.804  11.858  0.00  0.00    -0.302 NA
ATOM     21  C   UNL     1      58.183  -5.788  10.458  0.00  0.00    +0.066 C 
ATOM     22  C   UNL     1      57.101  -5.533   9.358  0.00  0.00    -0.064 C 
ATOM     23  N   UNL     1      56.384  -4.214   9.648  0.00  0.00    +0.379 N 
ATOM     24  C   UNL     1      55.407  -3.943   8.583  0.00  0.00    -0.096 C 
ATOM     25  H   UNL     1      57.147  -3.401   9.621  0.00  0.00    -0.082 HD
ATOM     26  C   UNL     1      55.765  -4.221  11.038  0.00  0.00    -0.064 C 
ATOM     27  C   UNL     1      56.843  -4.504  12.122  0.00  0.00    +0.066 C 
ENDBRANCH  19  20
ENDBRANCH  18  19
ENDBRANCH  14  15
ENDBRANCH  12  13
TORSDOF 6
ENDMDL
MODEL 3
REMARK VINA RESULT:      -7.8     35.281     40.038
REMARK  Name = C:\Users\Docking\Desktop\test protocol\1iep_ligandH.pdb
REMARK  8 active torsions:
REMARK  status: ('A' for Active; 'I' for Inactive)
REMARK    1  A    between atoms: _5  and  _11
REMARK    2  A    between atoms: _19  and  _21
REMARK    3  A    between atoms: _22  and  _66
REMARK    4  A    between atoms: _27  and  _30
REMARK    5  A    between atoms: _32  and  _33
REMARK    6  A    between atoms: _38  and  _43
REMARK    7  A    between atoms: _43  and  _46
REMARK    8  A    between atoms: _53  and  _55
REMARK                            x       y       z     vdW  Elec       q    Type
REMARK                         _______ _______ _______ _____ _____    ______ ____
ROOT
ATOM     10  C   UNL     1      57.552 -15.050  16.829  0.00  0.00    +0.038 A 
ATOM     11  C   UNL     1      57.763 -13.783  16.226  0.00  0.00    +0.047 A 
ATOM     12  C   UNL     1      56.652 -12.883  15.959  0.00  0.00    +0.035 A 
ATOM     32  C   UNL     1      55.339 -13.304  16.321  0.00  0.00    +0.024 A 
ATOM     33  C   UNL     1      55.107 -14.589  16.933  0.00  0.00    +0.007 A 
ATOM     34  C   UNL     1      56.199 -15.482  17.197  0.00  0.00    -0.029 A 
ATOM     35  C   UNL     1      55.890 -16.849  17.850  0.00  0.00    +0.045 C 
ENDROOT
BRANCH  10   9
ATOM      4  C   UNL     1      61.182 -16.587  19.567  0.00  0.00    +0.077 A 
ATOM      5  C   UNL     1      60.871 -15.651  20.609  0.00  0.00    +0.048 A 
ATOM      6  C   UNL     1      59.773 -14.786  20.397  0.00  0.00    +0.116 A 
ATOM      7  N   UNL     1      59.048 -14.862  19.228  0.00  0.00    -0.223 NA
ATOM      8  C   UNL     1      59.376 -15.775  18.243  0.00  0.00    +0.220 A 
ATOM      9  N   UNL     1      58.655 -15.874  17.063  0.00  0.00    -0.283 N 
ATOM     36  H   UNL     1      58.934 -16.556  16.358  0.00  0.00    +0.155 HD
ATOM     37  N   UNL     1      60.420 -16.611  18.420  0.00  0.00    -0.214 NA
BRANCH   4   3
ATOM      1  C   UNL     1      64.485 -18.404  20.611  0.00  0.00    +0.020 A 
ATOM      2  C   UNL     1      63.421 -17.428  20.577  0.00  0.00    +0.013 A 
ATOM      3  C   UNL     1      62.310 -17.569  19.644  0.00  0.00    +0.019 A 
ATOM     38  C   UNL     1      62.305 -18.719  18.753  0.00  0.00    +0.120 A 
ATOM     39  N   UNL     1      63.344 -19.643  18.807  0.00  0.00    -0.263 NA
ATOM     40  C   UNL     1      64.420 -19.516  19.700  0.00  0.00    +0.111 A 
ENDBRANCH   4   3
ENDBRANCH  10   9
BRANCH  12  13
ATOM     13  N   UNL     1      56.804 -11.589  15.342  0.00  0.00    -0.281 N 
ATOM     14  C   UNL     1      57.407 -10.459  15.870  0.00  0.00    +0.248 C 
ATOM     30  O   UNL     1      57.721 -10.328  17.044  0.00  0.00    -0.270 OA
ATOM     31  H   UNL     1      56.420 -11.494  14.401  0.00  0.00    +0.155 HD
BRANCH  14  15
ATOM     15  C   UNL     1      57.689  -9.302  14.967  0.00  0.00    +0.037 A 
ATOM     16  C   UNL     1      56.703  -8.847  13.984  0.00  0.00    +0.013 A 
ATOM     17  C   UNL     1      57.007  -7.739  13.113  0.00  0.00    +0.005 A 
ATOM     18  C   UNL     1      58.305  -7.078  13.223  0.00  0.00    -0.033 A 
ATOM     28  C   UNL     1      59.264  -7.547  14.210  0.00  0.00    +0.005 A 
ATOM     29  C   UNL     1      58.969  -8.633  15.065  0.00  0.00    +0.013 A 
BRANCH  18  19
ATOM     19  C   UNL     1      58.724  -5.902  12.321  0.00  0.00    +0.119 C 
BRANCH  19  20
ATOM     20  N   UNL     1      59.361  -4.725  12.983  0.00  0.00    -0.302 NA
ATOM     21  C   UNL     1      58.718  -3.404  12.550  0.00  0.00    +0.066 C 
ATOM     22  C   UNL     1      59.382  -2.185  13.270  0.00  0.00    -0.064 C 
ATOM     23  N   UNL     1      60.883  -2.179  12.976  0.00  0.00    +0.379 N 
ATOM     24  C   UNL     1      61.500  -1.001  13.603  0.00  0.00    -0.096 C 
ATOM     25  H   UNL     1      61.011  -2.081  11.873  0.00  0.00    -0.082 HD
ATOM     26  C   UNL     1      61.530  -3.489  13.401  0.00  0.00    -0.064 C 
ATOM     27  C   UNL     1      60.844  -4.696  12.702  0.00  0.00    +0.066 C 
ENDBRANCH  19  20
ENDBRANCH  18  19
ENDBRANCH  14  15
ENDBRANCH  12  13
TORSDOF 6
ENDMDL
MODEL 4
REMARK VINA RESULT:      -7.8     37.027     41.634
REMARK  Name = C:\Users\Docking\Desktop\test protocol\1iep_ligandH.pdb
REMARK  8 active torsions:
REMARK  status: ('A' for Active; 'I' for Inactive)
REMARK    1  A    between atoms: _5  and  _11
REMARK    2  A    between atoms: _19  and  _21
REMARK    3  A    between atoms: _22  and  _66
REMARK    4  A    between atoms: _27  and  _30
REMARK    5  A    between atoms: _32  and  _33
REMARK    6  A    between atoms: _38  and  _43
REMARK    7  A    between atoms: _43  and  _46
REMARK    8  A    between atoms: _53  and  _55
REMARK                            x       y       z     vdW  Elec       q    Type
REMARK                         _______ _______ _______ _____ _____    ______ ____
ROOT
ATOM     10  C   UNL     1      59.333  -8.061  15.976  0.00  0.00    +0.038 A 
ATOM     11  C   UNL     1      58.656  -7.805  14.756  0.00  0.00    +0.047 A 
ATOM     12  C   UNL     1      58.172  -6.473  14.429  0.00  0.00    +0.035 A 
ATOM     32  C   UNL     1      58.397  -5.424  15.367  0.00  0.00    +0.024 A 
ATOM     33  C   UNL     1      59.082  -5.666  16.612  0.00  0.00    +0.007 A 
ATOM     34  C   UNL     1      59.560  -6.979  16.941  0.00  0.00    -0.029 A 
ATOM     35  C   UNL     1      60.282  -7.182  18.293  0.00  0.00    +0.045 C 
ENDROOT
BRANCH  10   9
ATOM      4  C   UNL     1      58.569 -12.772  16.486  0.00  0.00    +0.077 A 
ATOM      5  C   UNL     1      57.164 -12.632  16.235  0.00  0.00    +0.048 A 
ATOM      6  C   UNL     1      56.677 -11.329  15.985  0.00  0.00    +0.116 A 
ATOM      7  N   UNL     1      57.539 -10.255  15.989  0.00  0.00    -0.223 NA
ATOM      8  C   UNL     1      58.889 -10.425  16.238  0.00  0.00    +0.220 A 
ATOM      9  N   UNL     1      59.776  -9.359  16.239  0.00  0.00    -0.283 N 
ATOM     36  H   UNL     1      60.763  -9.525  16.434  0.00  0.00    +0.155 HD
ATOM     37  N   UNL     1      59.379 -11.658  16.480  0.00  0.00    -0.214 NA
BRANCH   4   3
ATOM      1  C   UNL     1      60.437 -15.707  18.276  0.00  0.00    +0.020 A 
ATOM      2  C   UNL     1      59.804 -14.426  18.061  0.00  0.00    +0.013 A 
ATOM      3  C   UNL     1      59.236 -14.084  16.763  0.00  0.00    +0.019 A 
ATOM     38  C   UNL     1      59.324 -15.069  15.696  0.00  0.00    +0.120 A 
ATOM     39  N   UNL     1      59.940 -16.294  15.932  0.00  0.00    -0.263 NA
ATOM     40  C   UNL     1      60.492 -16.633  17.177  0.00  0.00    +0.111 A 
ENDBRANCH   4   3
ENDBRANCH  10   9
BRANCH  12  13
ATOM     13  N   UNL     1      57.472  -6.155  13.209  0.00  0.00    -0.281 N 
ATOM     14  C   UNL     1      57.815  -6.507  11.914  0.00  0.00    +0.248 C 
ATOM     30  O   UNL     1      58.897  -6.970  11.587  0.00  0.00    -0.270 OA
ATOM     31  H   UNL     1      56.620  -5.604  13.314  0.00  0.00    +0.155 HD
BRANCH  14  15
ATOM     15  C   UNL     1      56.816  -6.301  10.822  0.00  0.00    +0.037 A 
ATOM     16  C   UNL     1      55.379  -6.457  11.066  0.00  0.00    +0.013 A 
ATOM     17  C   UNL     1      54.438  -6.269   9.990  0.00  0.00    +0.005 A 
ATOM     18  C   UNL     1      54.931  -5.921   8.660  0.00  0.00    -0.033 A 
ATOM     28  C   UNL     1      56.361  -5.767   8.447  0.00  0.00    +0.005 A 
ATOM     29  C   UNL     1      57.286  -5.951   9.498  0.00  0.00    +0.013 A 
BRANCH  18  19
ATOM     19  C   UNL     1      54.001  -5.722   7.449  0.00  0.00    +0.119 C 
BRANCH  19  20
ATOM     20  N   UNL     1      52.946  -4.671   7.562  0.00  0.00    -0.302 NA
ATOM     21  C   UNL     1      51.832  -4.861   6.528  0.00  0.00    +0.066 C 
ATOM     22  C   UNL     1      50.726  -3.766   6.675  0.00  0.00    -0.064 C 
ATOM     23  N   UNL     1      51.362  -2.381   6.539  0.00  0.00    +0.379 N 
ATOM     24  C   UNL     1      50.316  -1.351   6.619  0.00  0.00    -0.096 C 
ATOM     25  H   UNL     1      51.821  -2.319   5.525  0.00  0.00    -0.082 HD
ATOM     26  C   UNL     1      52.472  -2.185   7.561  0.00  0.00    -0.064 C 
ATOM     27  C   UNL     1      53.551  -3.296   7.425  0.00  0.00    +0.066 C 
ENDBRANCH  19  20
ENDBRANCH  18  19
ENDBRANCH  14  15
ENDBRANCH  12  13
TORSDOF 6
ENDMDL
MODEL 5
REMARK VINA RESULT:      -7.7     25.672     28.658
REMARK  Name = C:\Users\Docking\Desktop\test protocol\1iep_ligandH.pdb
REMARK  8 active torsions:
REMARK  status: ('A' for Active; 'I' for Inactive)
REMARK    1  A    between atoms: _5  and  _11
REMARK    2  A    between atoms: _19  and  _21
REMARK    3  A    between atoms: _22  and  _66
REMARK    4  A    between atoms: _27  and  _30
REMARK    5  A    between atoms: _32  and  _33
REMARK    6  A    between atoms: _38  and  _43
REMARK    7  A    between atoms: _43  and  _46
REMARK    8  A    between atoms: _53  and  _55
REMARK                            x       y       z     vdW  Elec       q    Type
REMARK                         _______ _______ _______ _____ _____    ______ ____
ROOT
ATOM     10  C   UNL     1      78.309   0.226  -2.017  0.00  0.00    +0.038 A 
ATOM     11  C   UNL     1      77.449  -0.885  -2.210  0.00  0.00    +0.047 A 
ATOM     12  C   UNL     1      77.656  -1.814  -3.310  0.00  0.00    +0.035 A 
ATOM     32  C   UNL     1      78.751  -1.583  -4.193  0.00  0.00    +0.024 A 
ATOM     33  C   UNL     1      79.634  -0.458  -4.011  0.00  0.00    +0.007 A 
ATOM     34  C   UNL     1      79.433   0.464  -2.930  0.00  0.00    -0.029 A 
ATOM     35  C   UNL     1      80.408   1.656  -2.787  0.00  0.00    +0.045 C 
ENDROOT
BRANCH  10   9
ATOM      4  C   UNL     1      76.077   3.981  -0.027  0.00  0.00    +0.077 A 
ATOM      5  C   UNL     1      75.359   4.270  -1.235  0.00  0.00    +0.048 A 
ATOM      6  C   UNL     1      75.598   3.433  -2.348  0.00  0.00    +0.116 A 
ATOM      7  N   UNL     1      76.490   2.387  -2.248  0.00  0.00    -0.223 NA
ATOM      8  C   UNL     1      77.167   2.137  -1.069  0.00  0.00    +0.220 A 
ATOM      9  N   UNL     1      78.063   1.087  -0.944  0.00  0.00    -0.283 N 
ATOM     36  H   UNL     1      78.548   0.940  -0.059  0.00  0.00    +0.155 HD
ATOM     37  N   UNL     1      76.958   2.923   0.007  0.00  0.00    -0.214 NA
BRANCH   4   3
ATOM      1  C   UNL     1      74.719   5.389   3.360  0.00  0.00    +0.020 A 
ATOM      2  C   UNL     1      74.814   4.599   2.155  0.00  0.00    +0.013 A 
ATOM      3  C   UNL     1      75.931   4.774   1.235  0.00  0.00    +0.019 A 
ATOM     38  C   UNL     1      76.944   5.764   1.567  0.00  0.00    +0.120 A 
ATOM     39  N   UNL     1      76.826   6.511   2.735  0.00  0.00    -0.263 NA
ATOM     40  C   UNL     1      75.754   6.353   3.627  0.00  0.00    +0.111 A 
ENDBRANCH   4   3
ENDBRANCH  10   9
BRANCH  12  13
ATOM     13  N   UNL     1      76.811  -2.955  -3.561  0.00  0.00    -0.281 N 
ATOM     14  C   UNL     1      75.426  -3.000  -3.589  0.00  0.00    +0.248 C 
ATOM     30  O   UNL     1      74.698  -2.105  -3.188  0.00  0.00    -0.270 OA
ATOM     31  H   UNL     1      77.291  -3.837  -3.741  0.00  0.00    +0.155 HD
BRANCH  14  15
ATOM     15  C   UNL     1      74.754  -4.222  -4.125  0.00  0.00    +0.037 A 
ATOM     16  C   UNL     1      75.196  -4.846  -5.375  0.00  0.00    +0.013 A 
ATOM     17  C   UNL     1      74.519  -6.014  -5.880  0.00  0.00    +0.005 A 
ATOM     18  C   UNL     1      73.393  -6.568  -5.132  0.00  0.00    -0.033 A 
ATOM     28  C   UNL     1      72.978  -5.932  -3.892  0.00  0.00    +0.005 A 
ATOM     29  C   UNL     1      73.639  -4.786  -3.395  0.00  0.00    +0.013 A 
BRANCH  18  19
ATOM     19  C   UNL     1      72.599  -7.799  -5.606  0.00  0.00    +0.119 C 
BRANCH  19  20
ATOM     20  N   UNL     1      71.559  -7.580  -6.655  0.00  0.00    -0.302 NA
ATOM     21  C   UNL     1      70.169  -8.024  -6.189  0.00  0.00    +0.066 C 
ATOM     22  C   UNL     1      69.090  -7.767  -7.291  0.00  0.00    -0.064 C 
ATOM     23  N   UNL     1      69.490  -8.497  -8.573  0.00  0.00    +0.379 N 
ATOM     24  C   UNL     1      68.449  -8.305  -9.593  0.00  0.00    -0.096 C 
ATOM     25  H   UNL     1      69.539  -9.587  -8.341  0.00  0.00    -0.082 HD
ATOM     26  C   UNL     1      70.872  -8.064  -9.042  0.00  0.00    -0.064 C 
ATOM     27  C   UNL     1      71.932  -8.297  -7.930  0.00  0.00    +0.066 C 
ENDBRANCH  19  20
ENDBRANCH  18  19
ENDBRANCH  14  15
ENDBRANCH  12  13
TORSDOF 6
ENDMDL
