MODEL 1
REMARK VINA RESULT:      -8.0      0.000      0.000
REMARK  Name = C:\Users\Docking\Desktop\test protocol\1iep_ligandH.pdb
REMARK  8 active torsions:
REMARK  status: ('A' for Active; 'I' for Inactive)
REMARK    1  A    between atoms: _5  and  _11
REMARK    2  A    between atoms: _19  and  _21
REMARK    3  A    between atoms: _22  and  _66
REMARK    4  A    between atoms: _27  and  _30
REMARK    5  A    between atoms: _32  and  _33
REMARK    6  A    between atoms: _38  and  _43
REMARK    7  A    between atoms: _43  and  _46
REMARK    8  A    between atoms: _53  and  _55
REMARK                            x       y       z     vdW  Elec       q    Type
REMARK                         _______ _______ _______ _____ _____    ______ ____
ROOT
ATOM     10  C   UNL     1      87.152 -25.181   7.445  0.00  0.00    +0.038 A 
ATOM     11  C   UNL     1      88.103 -24.478   8.228  0.00  0.00    +0.047 A 
ATOM     12  C   UNL     1      87.699 -23.387   9.101  0.00  0.00    +0.035 A 
ATOM     32  C   UNL     1      86.318 -23.039   9.154  0.00  0.00    +0.024 A 
ATOM     33  C   UNL     1      85.338 -23.742   8.363  0.00  0.00    +0.007 A 
ATOM     34  C   UNL     1      85.731 -24.818   7.498  0.00  0.00    -0.029 A 
ATOM     35  C   UNL     1      84.638 -25.532   6.669  0.00  0.00    +0.045 C 
ENDROOT
BRANCH  10   9
ATOM      4  C   UNL     1      88.611 -26.900   3.207  0.00  0.00    +0.077 A 
ATOM      5  C   UNL     1      88.451 -25.625   2.569  0.00  0.00    +0.048 A 
ATOM      6  C   UNL     1      87.985 -24.554   3.364  0.00  0.00    +0.116 A 
ATOM      7  N   UNL     1      87.702 -24.755   4.698  0.00  0.00    -0.223 NA
ATOM      8  C   UNL     1      87.865 -25.998   5.282  0.00  0.00    +0.220 A 
ATOM      9  N   UNL     1      87.595 -26.220   6.624  0.00  0.00    -0.283 N 
ATOM     36  H   UNL     1      87.721 -27.153   7.015  0.00  0.00    +0.155 HD
ATOM     37  N   UNL     1      88.308 -27.036   4.544  0.00  0.00    -0.214 NA
BRANCH   4   3
ATOM      1  C   UNL     1      89.593 -29.458   0.416  0.00  0.00    +0.020 A 
ATOM      2  C   UNL     1      89.112 -28.252   1.049  0.00  0.00    +0.013 A 
ATOM      3  C   UNL     1      89.097 -28.127   2.501  0.00  0.00    +0.019 A 
ATOM     38  C   UNL     1      89.581 -29.249   3.290  0.00  0.00    +0.120 A 
ATOM     39  N   UNL     1      90.037 -30.399   2.653  0.00  0.00    -0.263 NA
ATOM     40  C   UNL     1      90.054 -30.532   1.257  0.00  0.00    +0.111 A 
ENDBRANCH   4   3
ENDBRANCH  10   9
BRANCH  12  13
ATOM     13  N   UNL     1      88.621 -22.632   9.914  0.00  0.00    -0.281 N 
ATOM     14  C   UNL     1      89.464 -23.103  10.907  0.00  0.00    +0.248 C 
ATOM     30  O   UNL     1      89.399 -24.222  11.395  0.00  0.00    -0.270 OA
ATOM     31  H   UNL     1      88.655 -21.628   9.736  0.00  0.00    +0.155 HD
BRANCH  14  15
ATOM     15  C   UNL     1      90.524 -22.197  11.444  0.00  0.00    +0.037 A 
ATOM     16  C   UNL     1      91.844 -22.114  10.814  0.00  0.00    +0.013 A 
ATOM     17  C   UNL     1      92.854 -21.244  11.363  0.00  0.00    +0.005 A 
ATOM     18  C   UNL     1      92.546 -20.449  12.549  0.00  0.00    -0.033 A 
ATOM     28  C   UNL     1      91.227 -20.546  13.151  0.00  0.00    +0.005 A 
ATOM     29  C   UNL     1      90.235 -21.398  12.616  0.00  0.00    +0.013 A 
BRANCH  18  19
ATOM     19  C   UNL     1      93.570 -19.510  13.215  0.00  0.00    +0.119 C 
BRANCH  19  20
ATOM     20  N   UNL     1      93.330 -18.041  13.094  0.00  0.00    -0.302 NA
ATOM     21  C   UNL     1      93.453 -17.555  11.647  0.00  0.00    +0.066 C 
ATOM     22  C   UNL     1      93.176 -16.021  11.536  0.00  0.00    -0.064 C 
ATOM     23  N   UNL     1      94.146 -15.264  12.446  0.00  0.00    +0.379 N 
ATOM     24  C   UNL     1      93.927 -13.817  12.300  0.00  0.00    -0.096 C 
ATOM     25  H   UNL     1      95.181 -15.486  12.097  0.00  0.00    -0.082 HD
ATOM     26  C   UNL     1      94.032 -15.742  13.886  0.00  0.00    -0.064 C 
ATOM     27  C   UNL     1      94.279 -17.273  13.981  0.00  0.00    +0.066 C 
ENDBRANCH  19  20
ENDBRANCH  18  19
ENDBRANCH  14  15
ENDBRANCH  12  13
TORSDOF 6
ENDMDL
MODEL 2
REMARK VINA RESULT:      -8.0     30.137     33.467
REMARK  Name = C:\Users\Docking\Desktop\test protocol\1iep_ligandH.pdb
REMARK  8 active torsions:
REMARK  status: ('A' for Active; 'I' for Inactive)
REMARK    1  A    between atoms: _5  and  _11
REMARK    2  A    between atoms: _19  and  _21
REMARK    3  A    between atoms: _22  and  _66
REMARK    4  A    between atoms: _27  and  _30
REMARK    5  A    between atoms: _32  and  _33
REMARK    6  A    between atoms: _38  and  _43
REMARK    7  A    between atoms: _43  and  _46
REMARK    8  A    between atoms: _53  and  _55
REMARK                            x       y       z     vdW  Elec       q    Type
REMARK                         _______ _______ _______ _____ _____    ______ ____
ROOT
ATOM     10  C   UNL     1      59.459 -14.777  16.854  0.00  0.00    +0.038 A 
ATOM     11  C   UNL     1      59.667 -13.374  16.857  0.00  0.00    +0.047 A 
ATOM     12  C   UNL     1      58.599 -12.453  16.502  0.00  0.00    +0.035 A 
ATOM     32  C   UNL     1      57.328 -12.996  16.151  0.00  0.00    +0.024 A 
ATOM     33  C   UNL     1      57.099 -14.420  16.141  0.00  0.00    +0.007 A 
ATOM     34  C   UNL     1      58.150 -15.333  16.488  0.00  0.00    -0.029 A 
ATOM     35  C   UNL     1      57.849 -16.849  16.454  0.00  0.00    +0.045 C 
ENDROOT
BRANCH  10   9
ATOM      4  C   UNL     1      62.109 -17.124  20.095  0.00  0.00    +0.077 A 
ATOM      5  C   UNL     1      61.329 -16.616  21.187  0.00  0.00    +0.048 A 
ATOM      6  C   UNL     1      60.259 -15.748  20.872  0.00  0.00    +0.116 A 
ATOM      7  N   UNL     1      59.998 -15.420  19.560  0.00  0.00    -0.223 NA
ATOM      8  C   UNL     1      60.770 -15.926  18.531  0.00  0.00    +0.220 A 
ATOM      9  N   UNL     1      60.520 -15.615  17.203  0.00  0.00    -0.283 N 
ATOM     36  H   UNL     1      61.118 -16.002  16.473  0.00  0.00    +0.155 HD
ATOM     37  N   UNL     1      61.798 -16.755  18.805  0.00  0.00    -0.214 NA
BRANCH   4   3
ATOM      1  C   UNL     1      65.432 -18.752  21.361  0.00  0.00    +0.020 A 
ATOM      2  C   UNL     1      64.333 -17.823  21.235  0.00  0.00    +0.013 A 
ATOM      3  C   UNL     1      63.270 -18.053  20.266  0.00  0.00    +0.019 A 
ATOM     38  C   UNL     1      63.348 -19.244  19.433  0.00  0.00    +0.120 A 
ATOM     39  N   UNL     1      64.419 -20.121  19.575  0.00  0.00    -0.263 NA
ATOM     40  C   UNL     1      65.449 -19.908  20.503  0.00  0.00    +0.111 A 
ENDBRANCH   4   3
ENDBRANCH  10   9
BRANCH  12  13
ATOM     13  N   UNL     1      58.754 -11.020  16.480  0.00  0.00    -0.281 N 
ATOM     14  C   UNL     1      58.541 -10.124  17.515  0.00  0.00    +0.248 C 
ATOM     30  O   UNL     1      57.976 -10.400  18.563  0.00  0.00    -0.270 OA
ATOM     31  H   UNL     1      59.057 -10.617  15.593  0.00  0.00    +0.155 HD
BRANCH  14  15
ATOM     15  C   UNL     1      59.011  -8.714  17.358  0.00  0.00    +0.037 A 
ATOM     16  C   UNL     1      58.525  -7.868  16.265  0.00  0.00    +0.013 A 
ATOM     17  C   UNL     1      59.007  -6.517  16.126  0.00  0.00    +0.005 A 
ATOM     18  C   UNL     1      59.983  -6.003  17.085  0.00  0.00    -0.033 A 
ATOM     28  C   UNL     1      60.445  -6.862  18.162  0.00  0.00    +0.005 A 
ATOM     29  C   UNL     1      59.975  -8.187  18.301  0.00  0.00    +0.013 A 
BRANCH  18  19
ATOM     19  C   UNL     1      60.568  -4.581  17.001  0.00  0.00    +0.119 C 
BRANCH  19  20
ATOM     20  N   UNL     1      61.167  -4.164  15.698  0.00  0.00    -0.302 NA
ATOM     21  C   UNL     1      62.571  -3.577  15.873  0.00  0.00    +0.066 C 
ATOM     22  C   UNL     1      63.191  -3.166  14.498  0.00  0.00    -0.064 C 
ATOM     23  N   UNL     1      62.268  -2.164  13.803  0.00  0.00    +0.379 N 
ATOM     24  C   UNL     1      62.876  -1.732  12.537  0.00  0.00    -0.096 C 
ATOM     25  H   UNL     1      62.185  -1.268  14.462  0.00  0.00    -0.082 HD
ATOM     26  C   UNL     1      60.869  -2.739  13.628  0.00  0.00    -0.064 C 
ATOM     27  C   UNL     1      60.273  -3.171  14.997  0.00  0.00    +0.066 C 
ENDBRANCH  19  20
ENDBRANCH  18  19
ENDBRANCH  14  15
ENDBRANCH  12  13
TORSDOF 6
ENDMDL
MODEL 3
REMARK VINA RESULT:      -7.7     27.452     30.468
REMARK  Name = C:\Users\Docking\Desktop\test protocol\1iep_ligandH.pdb
REMARK  8 active torsions:
REMARK  status: ('A' for Active; 'I' for Inactive)
REMARK    1  A    between atoms: _5  and  _11
REMARK    2  A    between atoms: _19  and  _21
REMARK    3  A    between atoms: _22  and  _66
REMARK    4  A    between atoms: _27  and  _30
REMARK    5  A    between atoms: _32  and  _33
REMARK    6  A    between atoms: _38  and  _43
REMARK    7  A    between atoms: _43  and  _46
REMARK    8  A    between atoms: _53  and  _55
REMARK                            x       y       z     vdW  Elec       q    Type
REMARK                         _______ _______ _______ _____ _____    ______ ____
ROOT
ATOM     10  C   UNL     1      74.107 -26.977 -18.635  0.00  0.00    +0.038 A 
ATOM     11  C   UNL     1      73.726 -27.038 -17.270  0.00  0.00    +0.047 A 
ATOM     12  C   UNL     1      72.498 -26.414 -16.803  0.00  0.00    +0.035 A 
ATOM     32  C   UNL     1      71.679 -25.737 -17.755  0.00  0.00    +0.024 A 
ATOM     33  C   UNL     1      72.052 -25.665 -19.145  0.00  0.00    +0.007 A 
ATOM     34  C   UNL     1      73.264 -26.276 -19.611  0.00  0.00    -0.029 A 
ATOM     35  C   UNL     1      73.617 -26.161 -21.112  0.00  0.00    +0.045 C 
ENDROOT
BRANCH  10   9
ATOM      4  C   UNL     1      76.647 -30.841 -19.920  0.00  0.00    +0.077 A 
ATOM      5  C   UNL     1      75.515 -31.709 -19.769  0.00  0.00    +0.048 A 
ATOM      6  C   UNL     1      74.299 -31.122 -19.352  0.00  0.00    +0.116 A 
ATOM      7  N   UNL     1      74.232 -29.768 -19.107  0.00  0.00    -0.223 NA
ATOM      8  C   UNL     1      75.343 -28.959 -19.261  0.00  0.00    +0.220 A 
ATOM      9  N   UNL     1      75.297 -27.594 -19.028  0.00  0.00    -0.283 N 
ATOM     36  H   UNL     1      76.140 -27.033 -19.145  0.00  0.00    +0.155 HD
ATOM     37  N   UNL     1      76.517 -29.496 -19.657  0.00  0.00    -0.214 NA
BRANCH   4   3
ATOM      1  C   UNL     1      80.009 -32.826 -20.171  0.00  0.00    +0.020 A 
ATOM      2  C   UNL     1      78.704 -32.411 -19.710  0.00  0.00    +0.013 A 
ATOM      3  C   UNL     1      78.000 -31.311 -20.356  0.00  0.00    +0.019 A 
ATOM     38  C   UNL     1      78.650 -30.646 -21.476  0.00  0.00    +0.120 A 
ATOM     39  N   UNL     1      79.907 -31.066 -21.897  0.00  0.00    -0.263 NA
ATOM     40  C   UNL     1      80.595 -32.123 -21.282  0.00  0.00    +0.111 A 
ENDBRANCH   4   3
ENDBRANCH  10   9
BRANCH  12  13
ATOM     13  N   UNL     1      72.063 -26.436 -15.428  0.00  0.00    -0.281 N 
ATOM     14  C   UNL     1      71.408 -25.438 -14.726  0.00  0.00    +0.248 C 
ATOM     30  O   UNL     1      71.285 -24.286 -15.115  0.00  0.00    -0.270 OA
ATOM     31  H   UNL     1      72.263 -27.292 -14.910  0.00  0.00    +0.155 HD
BRANCH  14  15
ATOM     15  C   UNL     1      70.816 -25.763 -13.393  0.00  0.00    +0.037 A 
ATOM     16  C   UNL     1      71.479 -25.363 -12.149  0.00  0.00    +0.013 A 
ATOM     17  C   UNL     1      70.895 -25.704 -10.876  0.00  0.00    +0.005 A 
ATOM     18  C   UNL     1      69.639 -26.448 -10.841  0.00  0.00    -0.033 A 
ATOM     28  C   UNL     1      69.000 -26.828 -12.090  0.00  0.00    +0.005 A 
ATOM     29  C   UNL     1      69.569 -26.497 -13.339  0.00  0.00    +0.013 A 
BRANCH  18  19
ATOM     19  C   UNL     1      68.955 -26.873  -9.528  0.00  0.00    +0.119 C 
BRANCH  19  20
ATOM     20  N   UNL     1      68.996 -28.323  -9.174  0.00  0.00    -0.302 NA
ATOM     21  C   UNL     1      68.926 -28.547  -7.660  0.00  0.00    +0.066 C 
ATOM     22  C   UNL     1      68.947 -30.071  -7.309  0.00  0.00    -0.064 C 
ATOM     23  N   UNL     1      70.209 -30.709  -7.894  0.00  0.00    +0.379 N 
ATOM     24  C   UNL     1      70.260 -32.129  -7.516  0.00  0.00    -0.096 C 
ATOM     25  H   UNL     1      71.088 -30.203  -7.432  0.00  0.00    -0.082 HD
ATOM     26  C   UNL     1      70.287 -30.488  -9.398  0.00  0.00    -0.064 C 
ATOM     27  C   UNL     1      70.236 -28.973  -9.738  0.00  0.00    +0.066 C 
ENDBRANCH  19  20
ENDBRANCH  18  19
ENDBRANCH  14  15
ENDBRANCH  12  13
TORSDOF 6
ENDMDL
MODEL 4
REMARK VINA RESULT:      -7.6     28.245     32.678
REMARK  Name = C:\Users\Docking\Desktop\test protocol\1iep_ligandH.pdb
REMARK  8 active torsions:
REMARK  status: ('A' for Active; 'I' for Inactive)
REMARK    1  A    between atoms: _5  and  _11
REMARK    2  A    between atoms: _19  and  _21
REMARK    3  A    between atoms: _22  and  _66
REMARK    4  A    between atoms: _27  and  _30
REMARK    5  A    between atoms: _32  and  _33
REMARK    6  A    between atoms: _38  and  _43
REMARK    7  A    between atoms: _43  and  _46
REMARK    8  A    between atoms: _53  and  _55
REMARK                            x       y       z     vdW  Elec       q    Type
REMARK                         _______ _______ _______ _____ _____    ______ ____
ROOT
ATOM     10  C   UNL     1      64.940 -14.259  -1.651  0.00  0.00    +0.038 A 
ATOM     11  C   UNL     1      63.587 -13.883  -1.457  0.00  0.00    +0.047 A 
ATOM     12  C   UNL     1      62.812 -13.278  -2.530  0.00  0.00    +0.035 A 
ATOM     32  C   UNL     1      63.447 -13.075  -3.789  0.00  0.00    +0.024 A 
ATOM     33  C   UNL     1      64.823 -13.451  -4.004  0.00  0.00    +0.007 A 
ATOM     34  C   UNL     1      65.592 -14.045  -2.949  0.00  0.00    -0.029 A 
ATOM     35  C   UNL     1      67.065 -14.422  -3.234  0.00  0.00    +0.045 C 
ENDROOT
BRANCH  10   9
ATOM      4  C   UNL     1      67.707 -13.950   2.259  0.00  0.00    +0.077 A 
ATOM      5  C   UNL     1      67.794 -12.521   2.156  0.00  0.00    +0.048 A 
ATOM      6  C   UNL     1      67.119 -11.906   1.079  0.00  0.00    +0.116 A 
ATOM      7  N   UNL     1      66.411 -12.671   0.177  0.00  0.00    -0.223 NA
ATOM      8  C   UNL     1      66.349 -14.047   0.304  0.00  0.00    +0.220 A 
ATOM      9  N   UNL     1      65.637 -14.835  -0.587  0.00  0.00    -0.283 N 
ATOM     36  H   UNL     1      65.622 -15.847  -0.463  0.00  0.00    +0.155 HD
ATOM     37  N   UNL     1      66.987 -14.659   1.323  0.00  0.00    -0.214 NA
BRANCH   4   3
ATOM      1  C   UNL     1      69.515 -14.954   5.578  0.00  0.00    +0.020 A 
ATOM      2  C   UNL     1      68.891 -14.141   4.561  0.00  0.00    +0.013 A 
ATOM      3  C   UNL     1      68.364 -14.745   3.344  0.00  0.00    +0.019 A 
ATOM     38  C   UNL     1      68.485 -16.187   3.186  0.00  0.00    +0.120 A 
ATOM     39  N   UNL     1      69.093 -16.944   4.182  0.00  0.00    -0.263 NA
ATOM     40  C   UNL     1      69.605 -16.374   5.357  0.00  0.00    +0.111 A 
ENDBRANCH   4   3
ENDBRANCH  10   9
BRANCH  12  13
ATOM     13  N   UNL     1      61.437 -12.868  -2.388  0.00  0.00    -0.281 N 
ATOM     14  C   UNL     1      60.326 -13.670  -2.189  0.00  0.00    +0.248 C 
ATOM     30  O   UNL     1      60.319 -14.886  -2.315  0.00  0.00    -0.270 OA
ATOM     31  H   UNL     1      61.262 -11.865  -2.442  0.00  0.00    +0.155 HD
BRANCH  14  15
ATOM     15  C   UNL     1      59.031 -13.028  -1.808  0.00  0.00    +0.037 A 
ATOM     16  C   UNL     1      58.997 -11.728  -1.133  0.00  0.00    +0.013 A 
ATOM     17  C   UNL     1      57.736 -11.138  -0.761  0.00  0.00    +0.005 A 
ATOM     18  C   UNL     1      56.496 -11.849  -1.065  0.00  0.00    -0.033 A 
ATOM     28  C   UNL     1      56.558 -13.134  -1.740  0.00  0.00    +0.005 A 
ATOM     29  C   UNL     1      57.793 -13.716  -2.106  0.00  0.00    +0.013 A 
BRANCH  18  19
ATOM     19  C   UNL     1      55.106 -11.305  -0.686  0.00  0.00    +0.119 C 
BRANCH  19  20
ATOM     20  N   UNL     1      54.826  -9.870  -0.991  0.00  0.00    -0.302 NA
ATOM     21  C   UNL     1      53.549  -9.375  -0.307  0.00  0.00    +0.066 C 
ATOM     22  C   UNL     1      53.284  -7.866  -0.618  0.00  0.00    -0.064 C 
ATOM     23  N   UNL     1      53.199  -7.668  -2.132  0.00  0.00    +0.379 N 
ATOM     24  C   UNL     1      52.893  -6.261  -2.426  0.00  0.00    -0.096 C 
ATOM     25  H   UNL     1      52.349  -8.285  -2.507  0.00  0.00    -0.082 HD
ATOM     26  C   UNL     1      54.465  -8.160  -2.821  0.00  0.00    -0.064 C 
ATOM     27  C   UNL     1      54.734  -9.652  -2.481  0.00  0.00    +0.066 C 
ENDBRANCH  19  20
ENDBRANCH  18  19
ENDBRANCH  14  15
ENDBRANCH  12  13
TORSDOF 6
ENDMDL
MODEL 5
REMARK VINA RESULT:      -7.5     33.893     37.747
REMARK  Name = C:\Users\Docking\Desktop\test protocol\1iep_ligandH.pdb
REMARK  8 active torsions:
REMARK  status: ('A' for Active; 'I' for Inactive)
REMARK    1  A    between atoms: _5  and  _11
REMARK    2  A    between atoms: _19  and  _21
REMARK    3  A    between atoms: _22  and  _66
REMARK    4  A    between atoms: _27  and  _30
REMARK    5  A    between atoms: _32  and  _33
REMARK    6  A    between atoms: _38  and  _43
REMARK    7  A    between atoms: _43  and  _46
REMARK    8  A    between atoms: _53  and  _55
REMARK                            x       y       z     vdW  Elec       q    Type
REMARK                         _______ _______ _______ _____ _____    ______ ____
ROOT
ATOM     10  C   UNL     1      59.250  -8.043  15.657  0.00  0.00    +0.038 A 
ATOM     11  C   UNL     1      58.675  -7.901  14.368  0.00  0.00    +0.047 A 
ATOM     12  C   UNL     1      58.196  -6.611  13.896  0.00  0.00    +0.035 A 
ATOM     32  C   UNL     1      58.320  -5.486  14.762  0.00  0.00    +0.024 A 
ATOM     33  C   UNL     1      58.901  -5.612  16.076  0.00  0.00    +0.007 A 
ATOM     34  C   UNL     1      59.373  -6.882  16.548  0.00  0.00    -0.029 A 
ATOM     35  C   UNL     1      59.981  -6.961  17.968  0.00  0.00    +0.045 C 
ENDROOT
BRANCH  10   9
ATOM      4  C   UNL     1      58.539 -12.719  16.473  0.00  0.00    +0.077 A 
ATOM      5  C   UNL     1      57.158 -12.636  16.091  0.00  0.00    +0.048 A 
ATOM      6  C   UNL     1      56.668 -11.370  15.699  0.00  0.00    +0.116 A 
ATOM      7  N   UNL     1      57.506 -10.275  15.691  0.00  0.00    -0.223 NA
ATOM      8  C   UNL     1      58.832 -10.390  16.066  0.00  0.00    +0.220 A 
ATOM      9  N   UNL     1      59.694  -9.304  16.059  0.00  0.00    -0.283 N 
ATOM     36  H   UNL     1      60.664  -9.428  16.350  0.00  0.00    +0.155 HD
ATOM     37  N   UNL     1      59.323 -11.587  16.447  0.00  0.00    -0.214 NA
BRANCH   4   3
ATOM      1  C   UNL     1      60.064 -16.321  16.486  0.00  0.00    +0.020 A 
ATOM      2  C   UNL     1      59.416 -15.118  16.015  0.00  0.00    +0.013 A 
ATOM      3  C   UNL     1      59.204 -13.987  16.909  0.00  0.00    +0.019 A 
ATOM     38  C   UNL     1      59.664 -14.104  18.284  0.00  0.00    +0.120 A 
ATOM     39  N   UNL     1      60.284 -15.275  18.710  0.00  0.00    -0.263 NA
ATOM     40  C   UNL     1      60.492 -16.371  17.860  0.00  0.00    +0.111 A 
ENDBRANCH   4   3
ENDBRANCH  10   9
BRANCH  12  13
ATOM     13  N   UNL     1      57.596  -6.408  12.601  0.00  0.00    -0.281 N 
ATOM     14  C   UNL     1      56.803  -7.287  11.882  0.00  0.00    +0.248 C 
ATOM     30  O   UNL     1      56.665  -8.471  12.151  0.00  0.00    -0.270 OA
ATOM     31  H   UNL     1      57.777  -5.505  12.161  0.00  0.00    +0.155 HD
BRANCH  14  15
ATOM     15  C   UNL     1      56.069  -6.782  10.682  0.00  0.00    +0.037 A 
ATOM     16  C   UNL     1      56.786  -6.224   9.532  0.00  0.00    +0.013 A 
ATOM     17  C   UNL     1      56.053  -5.729   8.394  0.00  0.00    +0.005 A 
ATOM     18  C   UNL     1      54.593  -5.790   8.401  0.00  0.00    -0.033 A 
ATOM     28  C   UNL     1      53.908  -6.353   9.552  0.00  0.00    +0.005 A 
ATOM     29  C   UNL     1      54.623  -6.839  10.670  0.00  0.00    +0.013 A 
BRANCH  18  19
ATOM     19  C   UNL     1      53.729  -5.265   7.239  0.00  0.00    +0.119 C 
BRANCH  19  20
ATOM     20  N   UNL     1      53.187  -3.878   7.362  0.00  0.00    -0.302 NA
ATOM     21  C   UNL     1      52.913  -3.246   5.995  0.00  0.00    +0.066 C 
ATOM     22  C   UNL     1      52.325  -1.804   6.142  0.00  0.00    -0.064 C 
ATOM     23  N   UNL     1      53.295  -0.942   6.953  0.00  0.00    +0.379 N 
ATOM     24  C   UNL     1      52.773   0.429   7.045  0.00  0.00    -0.096 C 
ATOM     25  H   UNL     1      54.259  -0.901   6.395  0.00  0.00    -0.082 HD
ATOM     26  C   UNL     1      53.575  -1.566   8.313  0.00  0.00    -0.064 C 
ATOM     27  C   UNL     1      54.131  -3.009   8.156  0.00  0.00    +0.066 C 
ENDBRANCH  19  20
ENDBRANCH  18  19
ENDBRANCH  14  15
ENDBRANCH  12  13
TORSDOF 6
ENDMDL
