MODEL 1
REMARK VINA RESULT:      -7.6      0.000      0.000
REMARK  Name = C:\Users\Docking\Desktop\test protocol\1iep_ligandH.pdb
REMARK  8 active torsions:
REMARK  status: ('A' for Active; 'I' for Inactive)
REMARK    1  A    between atoms: _5  and  _11
REMARK    2  A    between atoms: _19  and  _21
REMARK    3  A    between atoms: _22  and  _66
REMARK    4  A    between atoms: _27  and  _30
REMARK    5  A    between atoms: _32  and  _33
REMARK    6  A    between atoms: _38  and  _43
REMARK    7  A    between atoms: _43  and  _46
REMARK    8  A    between atoms: _53  and  _55
REMARK                            x       y       z     vdW  Elec       q    Type
REMARK                         _______ _______ _______ _____ _____    ______ ____
ROOT
ATOM     10  C   UNL     1      23.061  14.932  14.816  0.00  0.00    +0.038 A 
ATOM     11  C   UNL     1      23.550  15.482  13.604  0.00  0.00    +0.047 A 
ATOM     12  C   UNL     1      22.828  16.537  12.910  0.00  0.00    +0.035 A 
ATOM     32  C   UNL     1      21.611  17.010  13.481  0.00  0.00    +0.024 A 
ATOM     33  C   UNL     1      21.099  16.462  14.712  0.00  0.00    +0.007 A 
ATOM     34  C   UNL     1      21.806  15.420  15.400  0.00  0.00    -0.029 A 
ATOM     35  C   UNL     1      21.206  14.865  16.713  0.00  0.00    +0.045 C 
ENDROOT
BRANCH  10   9
ATOM      4  C   UNL     1      24.723  10.435  15.048  0.00  0.00    +0.077 A 
ATOM      5  C   UNL     1      24.049  10.061  13.838  0.00  0.00    +0.048 A 
ATOM      6  C   UNL     1      23.279  11.053  13.190  0.00  0.00    +0.116 A 
ATOM      7  N   UNL     1      23.197  12.322  13.722  0.00  0.00    -0.223 NA
ATOM      8  C   UNL     1      23.858  12.649  14.891  0.00  0.00    +0.220 A 
ATOM      9  N   UNL     1      23.796  13.921  15.440  0.00  0.00    -0.283 N 
ATOM     36  H   UNL     1      24.292  14.121  16.308  0.00  0.00    +0.155 HD
ATOM     37  N   UNL     1      24.598  11.719  15.530  0.00  0.00    -0.214 NA
BRANCH   4   3
ATOM      1  C   UNL     1      27.328   9.011  17.594  0.00  0.00    +0.020 A 
ATOM      2  C   UNL     1      26.527   9.956  16.851  0.00  0.00    +0.013 A 
ATOM      3  C   UNL     1      25.577   9.499  15.845  0.00  0.00    +0.019 A 
ATOM     38  C   UNL     1      25.459   8.067  15.614  0.00  0.00    +0.120 A 
ATOM     39  N   UNL     1      26.245   7.181  16.344  0.00  0.00    -0.263 NA
ATOM     40  C   UNL     1      27.164   7.609  17.313  0.00  0.00    +0.111 A 
ENDBRANCH   4   3
ENDBRANCH  10   9
BRANCH  12  13
ATOM     13  N   UNL     1      23.272  17.128  11.672  0.00  0.00    -0.281 N 
ATOM     14  C   UNL     1      22.805  16.875  10.392  0.00  0.00    +0.248 C 
ATOM     30  O   UNL     1      22.077  15.939  10.094  0.00  0.00    -0.270 OA
ATOM     31  H   UNL     1      24.021  17.816  11.748  0.00  0.00    +0.155 HD
BRANCH  14  15
ATOM     15  C   UNL     1      23.219  17.783   9.280  0.00  0.00    +0.037 A 
ATOM     16  C   UNL     1      22.273  18.727   8.678  0.00  0.00    +0.013 A 
ATOM     17  C   UNL     1      22.693  19.580   7.595  0.00  0.00    +0.005 A 
ATOM     18  C   UNL     1      24.068  19.495   7.108  0.00  0.00    -0.033 A 
ATOM     28  C   UNL     1      24.987  18.554   7.727  0.00  0.00    +0.005 A 
ATOM     29  C   UNL     1      24.578  17.715   8.788  0.00  0.00    +0.013 A 
BRANCH  18  19
ATOM     19  C   UNL     1      24.597  20.352   5.943  0.00  0.00    +0.119 C 
BRANCH  19  20
ATOM     20  N   UNL     1      24.361  19.844   4.558  0.00  0.00    -0.302 NA
ATOM     21  C   UNL     1      25.442  18.853   4.117  0.00  0.00    +0.066 C 
ATOM     22  C   UNL     1      25.167  18.315   2.675  0.00  0.00    -0.064 C 
ATOM     23  N   UNL     1      25.082  19.493   1.702  0.00  0.00    +0.379 N 
ATOM     24  C   UNL     1      24.881  18.987   0.337  0.00  0.00    -0.096 C 
ATOM     25  H   UNL     1      26.063  20.022   1.726  0.00  0.00    -0.082 HD
ATOM     26  C   UNL     1      24.011  20.484   2.135  0.00  0.00    -0.064 C 
ATOM     27  C   UNL     1      24.278  20.990   3.580  0.00  0.00    +0.066 C 
ENDBRANCH  19  20
ENDBRANCH  18  19
ENDBRANCH  14  15
ENDBRANCH  12  13
TORSDOF 6
ENDMDL
MODEL 2
REMARK VINA RESULT:      -7.6      3.767     13.592
REMARK  Name = C:\Users\Docking\Desktop\test protocol\1iep_ligandH.pdb
REMARK  8 active torsions:
REMARK  status: ('A' for Active; 'I' for Inactive)
REMARK    1  A    between atoms: _5  and  _11
REMARK    2  A    between atoms: _19  and  _21
REMARK    3  A    between atoms: _22  and  _66
REMARK    4  A    between atoms: _27  and  _30
REMARK    5  A    between atoms: _32  and  _33
REMARK    6  A    between atoms: _38  and  _43
REMARK    7  A    between atoms: _43  and  _46
REMARK    8  A    between atoms: _53  and  _55
REMARK                            x       y       z     vdW  Elec       q    Type
REMARK                         _______ _______ _______ _____ _____    ______ ____
ROOT
ATOM     10  C   UNL     1      22.853  19.937   7.573  0.00  0.00    +0.038 A 
ATOM     11  C   UNL     1      22.598  19.037   8.640  0.00  0.00    +0.047 A 
ATOM     12  C   UNL     1      23.518  17.953   8.946  0.00  0.00    +0.035 A 
ATOM     32  C   UNL     1      24.691  17.817   8.148  0.00  0.00    +0.024 A 
ATOM     33  C   UNL     1      24.966  18.722   7.060  0.00  0.00    +0.007 A 
ATOM     34  C   UNL     1      24.060  19.791   6.751  0.00  0.00    -0.029 A 
ATOM     35  C   UNL     1      24.402  20.727   5.568  0.00  0.00    +0.045 C 
ENDROOT
BRANCH  10   9
ATOM      4  C   UNL     1      19.127  21.787   5.180  0.00  0.00    +0.077 A 
ATOM      5  C   UNL     1      19.016  20.630   4.339  0.00  0.00    +0.048 A 
ATOM      6  C   UNL     1      19.942  19.584   4.550  0.00  0.00    +0.116 A 
ATOM      7  N   UNL     1      20.902  19.697   5.532  0.00  0.00    -0.223 NA
ATOM      8  C   UNL     1      20.982  20.827   6.324  0.00  0.00    +0.220 A 
ATOM      9  N   UNL     1      21.935  20.959   7.323  0.00  0.00    -0.283 N 
ATOM     36  H   UNL     1      21.966  21.812   7.881  0.00  0.00    +0.155 HD
ATOM     37  N   UNL     1      20.111  21.841   6.142  0.00  0.00    -0.214 NA
BRANCH   4   3
ATOM      1  C   UNL     1      17.352  25.199   5.895  0.00  0.00    +0.020 A 
ATOM      2  C   UNL     1      18.249  24.076   6.036  0.00  0.00    +0.013 A 
ATOM      3  C   UNL     1      18.220  22.974   5.081  0.00  0.00    +0.019 A 
ATOM     38  C   UNL     1      17.263  23.042   3.986  0.00  0.00    +0.120 A 
ATOM     39  N   UNL     1      16.411  24.136   3.877  0.00  0.00    -0.263 NA
ATOM     40  C   UNL     1      16.429  25.200   4.790  0.00  0.00    +0.111 A 
ENDBRANCH   4   3
ENDBRANCH  10   9
BRANCH  12  13
ATOM     13  N   UNL     1      23.308  17.004  10.011  0.00  0.00    -0.281 N 
ATOM     14  C   UNL     1      22.799  15.719   9.919  0.00  0.00    +0.248 C 
ATOM     30  O   UNL     1      22.246  15.264   8.929  0.00  0.00    -0.270 OA
ATOM     31  H   UNL     1      23.565  17.318  10.947  0.00  0.00    +0.155 HD
BRANCH  14  15
ATOM     15  C   UNL     1      22.909  14.812  11.102  0.00  0.00    +0.037 A 
ATOM     16  C   UNL     1      22.884  13.355  10.948  0.00  0.00    +0.013 A 
ATOM     17  C   UNL     1      22.974  12.504  12.107  0.00  0.00    +0.005 A 
ATOM     18  C   UNL     1      23.091  13.108  13.432  0.00  0.00    -0.033 A 
ATOM     28  C   UNL     1      23.119  14.556  13.556  0.00  0.00    +0.005 A 
ATOM     29  C   UNL     1      23.030  15.394  12.422  0.00  0.00    +0.013 A 
BRANCH  18  19
ATOM     19  C   UNL     1      23.171  12.277  14.726  0.00  0.00    +0.119 C 
BRANCH  19  20
ATOM     20  N   UNL     1      24.177  11.174  14.769  0.00  0.00    -0.302 NA
ATOM     21  C   UNL     1      23.557   9.817  14.425  0.00  0.00    +0.066 C 
ATOM     22  C   UNL     1      24.627   8.678  14.453  0.00  0.00    -0.064 C 
ATOM     23  N   UNL     1      25.289   8.637  15.831  0.00  0.00    +0.379 N 
ATOM     24  C   UNL     1      26.255   7.530  15.879  0.00  0.00    -0.096 C 
ATOM     25  H   UNL     1      24.493   8.424  16.582  0.00  0.00    -0.082 HD
ATOM     26  C   UNL     1      25.906   9.983  16.182  0.00  0.00    -0.064 C 
ATOM     27  C   UNL     1      24.840  11.112  16.123  0.00  0.00    +0.066 C 
ENDBRANCH  19  20
ENDBRANCH  18  19
ENDBRANCH  14  15
ENDBRANCH  12  13
TORSDOF 6
ENDMDL
MODEL 3
REMARK VINA RESULT:      -7.6      5.574     12.109
REMARK  Name = C:\Users\Docking\Desktop\test protocol\1iep_ligandH.pdb
REMARK  8 active torsions:
REMARK  status: ('A' for Active; 'I' for Inactive)
REMARK    1  A    between atoms: _5  and  _11
REMARK    2  A    between atoms: _19  and  _21
REMARK    3  A    between atoms: _22  and  _66
REMARK    4  A    between atoms: _27  and  _30
REMARK    5  A    between atoms: _32  and  _33
REMARK    6  A    between atoms: _38  and  _43
REMARK    7  A    between atoms: _43  and  _46
REMARK    8  A    between atoms: _53  and  _55
REMARK                            x       y       z     vdW  Elec       q    Type
REMARK                         _______ _______ _______ _____ _____    ______ ____
ROOT
ATOM     10  C   UNL     1      24.373  10.111  10.353  0.00  0.00    +0.038 A 
ATOM     11  C   UNL     1      24.720  10.479  11.678  0.00  0.00    +0.047 A 
ATOM     12  C   UNL     1      23.725  10.500  12.739  0.00  0.00    +0.035 A 
ATOM     32  C   UNL     1      22.385  10.137  12.415  0.00  0.00    +0.024 A 
ATOM     33  C   UNL     1      22.014   9.761  11.073  0.00  0.00    +0.007 A 
ATOM     34  C   UNL     1      22.991   9.741  10.023  0.00  0.00    -0.029 A 
ATOM     35  C   UNL     1      22.536   9.336   8.601  0.00  0.00    +0.045 C 
ENDROOT
BRANCH  10   9
ATOM      4  C   UNL     1      26.987  12.290   6.969  0.00  0.00    +0.077 A 
ATOM      5  C   UNL     1      26.291  13.532   7.148  0.00  0.00    +0.048 A 
ATOM      6  C   UNL     1      25.263  13.566   8.116  0.00  0.00    +0.116 A 
ATOM      7  N   UNL     1      24.961  12.437   8.845  0.00  0.00    -0.223 NA
ATOM      8  C   UNL     1      25.650  11.254   8.647  0.00  0.00    +0.220 A 
ATOM      9  N   UNL     1      25.369  10.108   9.374  0.00  0.00    -0.283 N 
ATOM     36  H   UNL     1      25.895   9.254   9.192  0.00  0.00    +0.155 HD
ATOM     37  N   UNL     1      26.636  11.196   7.727  0.00  0.00    -0.214 NA
BRANCH   4   3
ATOM      1  C   UNL     1      29.579  12.883   4.100  0.00  0.00    +0.020 A 
ATOM      2  C   UNL     1      28.497  13.120   5.027  0.00  0.00    +0.013 A 
ATOM      3  C   UNL     1      28.100  12.097   5.987  0.00  0.00    +0.019 A 
ATOM     38  C   UNL     1      28.825  10.835   5.983  0.00  0.00    +0.120 A 
ATOM     39  N   UNL     1      29.863  10.635   5.077  0.00  0.00    -0.263 NA
ATOM     40  C   UNL     1      30.252  11.611   4.148  0.00  0.00    +0.111 A 
ENDBRANCH   4   3
ENDBRANCH  10   9
BRANCH  12  13
ATOM     13  N   UNL     1      24.017  10.874  14.101  0.00  0.00    -0.281 N 
ATOM     14  C   UNL     1      24.705  10.143  15.055  0.00  0.00    +0.248 C 
ATOM     30  O   UNL     1      24.992   8.960  14.946  0.00  0.00    -0.270 OA
ATOM     31  H   UNL     1      23.674  11.787  14.397  0.00  0.00    +0.155 HD
BRANCH  14  15
ATOM     15  C   UNL     1      25.124  10.821  16.320  0.00  0.00    +0.037 A 
ATOM     16  C   UNL     1      26.121  10.220  17.210  0.00  0.00    +0.013 A 
ATOM     17  C   UNL     1      26.494  10.886  18.432  0.00  0.00    +0.005 A 
ATOM     18  C   UNL     1      25.870  12.163  18.771  0.00  0.00    -0.033 A 
ATOM     28  C   UNL     1      24.887  12.739  17.868  0.00  0.00    +0.005 A 
ATOM     29  C   UNL     1      24.518  12.088  16.669  0.00  0.00    +0.013 A 
BRANCH  18  19
ATOM     19  C   UNL     1      26.191  12.934  20.065  0.00  0.00    +0.119 C 
BRANCH  19  20
ATOM     20  N   UNL     1      27.120  14.098  19.954  0.00  0.00    -0.302 NA
ATOM     21  C   UNL     1      28.047  14.211  21.168  0.00  0.00    +0.066 C 
ATOM     22  C   UNL     1      29.027  15.420  21.025  0.00  0.00    -0.064 C 
ATOM     23  N   UNL     1      28.222  16.707  20.838  0.00  0.00    +0.379 N 
ATOM     24  C   UNL     1      29.139  17.854  20.761  0.00  0.00    -0.096 C 
ATOM     25  H   UNL     1      27.585  16.842  21.743  0.00  0.00    -0.082 HD
ATOM     26  C   UNL     1      27.295  16.602  19.634  0.00  0.00    -0.064 C 
ATOM     27  C   UNL     1      26.346  15.380  19.773  0.00  0.00    +0.066 C 
ENDBRANCH  19  20
ENDBRANCH  18  19
ENDBRANCH  14  15
ENDBRANCH  12  13
TORSDOF 6
ENDMDL
MODEL 4
REMARK VINA RESULT:      -7.5     17.686     19.577
REMARK  Name = C:\Users\Docking\Desktop\test protocol\1iep_ligandH.pdb
REMARK  8 active torsions:
REMARK  status: ('A' for Active; 'I' for Inactive)
REMARK    1  A    between atoms: _5  and  _11
REMARK    2  A    between atoms: _19  and  _21
REMARK    3  A    between atoms: _22  and  _66
REMARK    4  A    between atoms: _27  and  _30
REMARK    5  A    between atoms: _32  and  _33
REMARK    6  A    between atoms: _38  and  _43
REMARK    7  A    between atoms: _43  and  _46
REMARK    8  A    between atoms: _53  and  _55
REMARK                            x       y       z     vdW  Elec       q    Type
REMARK                         _______ _______ _______ _____ _____    ______ ____
ROOT
ATOM     10  C   UNL     1      39.102  26.463   4.631  0.00  0.00    +0.038 A 
ATOM     11  C   UNL     1      37.751  26.887   4.551  0.00  0.00    +0.047 A 
ATOM     12  C   UNL     1      37.227  27.903   5.451  0.00  0.00    +0.035 A 
ATOM     32  C   UNL     1      38.107  28.468   6.418  0.00  0.00    +0.024 A 
ATOM     33  C   UNL     1      39.483  28.048   6.514  0.00  0.00    +0.007 A 
ATOM     34  C   UNL     1      40.006  27.045   5.631  0.00  0.00    -0.029 A 
ATOM     35  C   UNL     1      41.487  26.628   5.784  0.00  0.00    +0.045 C 
ENDROOT
BRANCH  10   9
ATOM      4  C   UNL     1      40.044  21.899   3.484  0.00  0.00    +0.077 A 
ATOM      5  C   UNL     1      39.628  21.427   4.773  0.00  0.00    +0.048 A 
ATOM      6  C   UNL     1      39.186  22.392   5.705  0.00  0.00    +0.116 A 
ATOM      7  N   UNL     1      39.164  23.727   5.363  0.00  0.00    -0.223 NA
ATOM      8  C   UNL     1      39.573  24.148   4.111  0.00  0.00    +0.220 A 
ATOM      9  N   UNL     1      39.553  25.484   3.743  0.00  0.00    -0.283 N 
ATOM     36  H   UNL     1      39.870  25.756   2.812  0.00  0.00    +0.155 HD
ATOM     37  N   UNL     1      40.002  23.246   3.204  0.00  0.00    -0.214 NA
BRANCH   4   3
ATOM      1  C   UNL     1      42.244  19.458   1.362  0.00  0.00    +0.020 A 
ATOM      2  C   UNL     1      41.818  20.314   2.445  0.00  0.00    +0.013 A 
ATOM      3  C   UNL     1      40.534  21.001   2.390  0.00  0.00    +0.019 A 
ATOM     38  C   UNL     1      39.698  20.799   1.216  0.00  0.00    +0.120 A 
ATOM     39  N   UNL     1      40.135  19.970   0.188  0.00  0.00    -0.263 NA
ATOM     40  C   UNL     1      41.369  19.304   0.229  0.00  0.00    +0.111 A 
ENDBRANCH   4   3
ENDBRANCH  10   9
BRANCH  12  13
ATOM     13  N   UNL     1      35.862  28.368   5.422  0.00  0.00    -0.281 N 
ATOM     14  C   UNL     1      35.334  29.416   4.686  0.00  0.00    +0.248 C 
ATOM     30  O   UNL     1      36.003  30.254   4.099  0.00  0.00    -0.270 OA
ATOM     31  H   UNL     1      35.205  27.862   6.016  0.00  0.00    +0.155 HD
BRANCH  14  15
ATOM     15  C   UNL     1      33.850  29.564   4.601  0.00  0.00    +0.037 A 
ATOM     16  C   UNL     1      32.955  28.460   4.957  0.00  0.00    +0.013 A 
ATOM     17  C   UNL     1      31.526  28.623   4.850  0.00  0.00    +0.005 A 
ATOM     18  C   UNL     1      30.984  29.898   4.386  0.00  0.00    -0.033 A 
ATOM     28  C   UNL     1      31.895  30.978   4.044  0.00  0.00    +0.005 A 
ATOM     29  C   UNL     1      33.295  30.821   4.146  0.00  0.00    +0.013 A 
BRANCH  18  19
ATOM     19  C   UNL     1      29.475  30.154   4.221  0.00  0.00    +0.119 C 
BRANCH  19  20
ATOM     20  N   UNL     1      29.066  31.286   3.337  0.00  0.00    -0.302 NA
ATOM     21  C   UNL     1      27.798  31.980   3.842  0.00  0.00    +0.066 C 
ATOM     22  C   UNL     1      27.397  33.176   2.918  0.00  0.00    -0.064 C 
ATOM     23  N   UNL     1      27.204  32.669   1.487  0.00  0.00    +0.379 N 
ATOM     24  C   UNL     1      26.771  33.780   0.628  0.00  0.00    -0.096 C 
ATOM     25  H   UNL     1      26.384  31.915   1.504  0.00  0.00    -0.082 HD
ATOM     26  C   UNL     1      28.459  31.975   0.978  0.00  0.00    -0.064 C 
ATOM     27  C   UNL     1      28.865  30.807   1.920  0.00  0.00    +0.066 C 
ENDBRANCH  19  20
ENDBRANCH  18  19
ENDBRANCH  14  15
ENDBRANCH  12  13
TORSDOF 6
ENDMDL
MODEL 5
REMARK VINA RESULT:      -7.4      4.374     12.549
REMARK  Name = C:\Users\Docking\Desktop\test protocol\1iep_ligandH.pdb
REMARK  8 active torsions:
REMARK  status: ('A' for Active; 'I' for Inactive)
REMARK    1  A    between atoms: _5  and  _11
REMARK    2  A    between atoms: _19  and  _21
REMARK    3  A    between atoms: _22  and  _66
REMARK    4  A    between atoms: _27  and  _30
REMARK    5  A    between atoms: _32  and  _33
REMARK    6  A    between atoms: _38  and  _43
REMARK    7  A    between atoms: _43  and  _46
REMARK    8  A    between atoms: _53  and  _55
REMARK                            x       y       z     vdW  Elec       q    Type
REMARK                         _______ _______ _______ _____ _____    ______ ____
ROOT
ATOM     10  C   UNL     1      21.909  16.990  11.796  0.00  0.00    +0.038 A 
ATOM     11  C   UNL     1      22.697  16.591  12.906  0.00  0.00    +0.047 A 
ATOM     12  C   UNL     1      22.138  15.772  13.970  0.00  0.00    +0.035 A 
ATOM     32  C   UNL     1      20.772  15.376  13.871  0.00  0.00    +0.024 A 
ATOM     33  C   UNL     1      19.957  15.773  12.751  0.00  0.00    +0.007 A 
ATOM     34  C   UNL     1      20.502  16.583  11.699  0.00  0.00    -0.029 A 
ATOM     35  C   UNL     1      19.579  16.986  10.526  0.00  0.00    +0.045 C 
ENDROOT
BRANCH  10   9
ATOM      4  C   UNL     1      24.103  17.515   7.560  0.00  0.00    +0.077 A 
ATOM      5  C   UNL     1      24.101  16.101   7.317  0.00  0.00    +0.048 A 
ATOM      6  C   UNL     1      23.532  15.273   8.311  0.00  0.00    +0.116 A 
ATOM      7  N   UNL     1      23.007  15.828   9.457  0.00  0.00    -0.223 NA
ATOM      8  C   UNL     1      23.027  17.196   9.661  0.00  0.00    +0.220 A 
ATOM      9  N   UNL     1      22.497  17.776  10.803  0.00  0.00    -0.283 N 
ATOM     36  H   UNL     1      22.537  18.789  10.919  0.00  0.00    +0.155 HD
ATOM     37  N   UNL     1      23.565  18.008   8.728  0.00  0.00    -0.214 NA
BRANCH   4   3
ATOM      1  C   UNL     1      25.487  20.832   6.016  0.00  0.00    +0.020 A 
ATOM      2  C   UNL     1      24.944  19.901   6.978  0.00  0.00    +0.013 A 
ATOM      3  C   UNL     1      24.664  18.521   6.603  0.00  0.00    +0.019 A 
ATOM     38  C   UNL     1      24.948  18.111   5.236  0.00  0.00    +0.120 A 
ATOM     39  N   UNL     1      25.469  19.030   4.331  0.00  0.00    -0.263 NA
ATOM     40  C   UNL     1      25.741  20.361   4.680  0.00  0.00    +0.111 A 
ENDBRANCH   4   3
ENDBRANCH  10   9
BRANCH  12  13
ATOM     13  N   UNL     1      22.887  15.343  15.125  0.00  0.00    -0.281 N 
ATOM     14  C   UNL     1      23.745  14.260  15.229  0.00  0.00    +0.248 C 
ATOM     30  O   UNL     1      23.834  13.367  14.400  0.00  0.00    -0.270 OA
ATOM     31  H   UNL     1      22.771  15.905  15.968  0.00  0.00    +0.155 HD
BRANCH  14  15
ATOM     15  C   UNL     1      24.621  14.146  16.435  0.00  0.00    +0.037 A 
ATOM     16  C   UNL     1      24.771  12.875  17.147  0.00  0.00    +0.013 A 
ATOM     17  C   UNL     1      25.609  12.796  18.318  0.00  0.00    +0.005 A 
ATOM     18  C   UNL     1      26.304  13.994  18.783  0.00  0.00    -0.033 A 
ATOM     28  C   UNL     1      26.141  15.241  18.054  0.00  0.00    +0.005 A 
ATOM     29  C   UNL     1      25.320  15.322  16.907  0.00  0.00    +0.013 A 
BRANCH  18  19
ATOM     19  C   UNL     1      27.201  14.008  20.035  0.00  0.00    +0.119 C 
BRANCH  19  20
ATOM     20  N   UNL     1      27.415  15.324  20.708  0.00  0.00    -0.302 NA
ATOM     21  C   UNL     1      28.899  15.694  20.787  0.00  0.00    +0.066 C 
ATOM     22  C   UNL     1      29.103  17.083  21.474  0.00  0.00    -0.064 C 
ATOM     23  N   UNL     1      28.477  17.056  22.870  0.00  0.00    +0.379 N 
ATOM     24  C   UNL     1      28.718  18.342  23.541  0.00  0.00    -0.096 C 
ATOM     25  H   UNL     1      28.997  16.264  23.458  0.00  0.00    -0.082 HD
ATOM     26  C   UNL     1      27.002  16.686  22.801  0.00  0.00    -0.064 C 
ATOM     27  C   UNL     1      26.808  15.317  22.090  0.00  0.00    +0.066 C 
ENDBRANCH  19  20
ENDBRANCH  18  19
ENDBRANCH  14  15
ENDBRANCH  12  13
TORSDOF 6
ENDMDL
