MODEL 1
REMARK VINA RESULT:      -7.6      0.000      0.000
REMARK  Name = C:\Users\Docking\Desktop\test protocol\1iep_ligandH.pdb
REMARK  8 active torsions:
REMARK  status: ('A' for Active; 'I' for Inactive)
REMARK    1  A    between atoms: _5  and  _11
REMARK    2  A    between atoms: _19  and  _21
REMARK    3  A    between atoms: _22  and  _66
REMARK    4  A    between atoms: _27  and  _30
REMARK    5  A    between atoms: _32  and  _33
REMARK    6  A    between atoms: _38  and  _43
REMARK    7  A    between atoms: _43  and  _46
REMARK    8  A    between atoms: _53  and  _55
REMARK                            x       y       z     vdW  Elec       q    Type
REMARK                         _______ _______ _______ _____ _____    ______ ____
ROOT
ATOM     10  C   UNL     1      23.069  14.894  14.675  0.00  0.00    +0.038 A 
ATOM     11  C   UNL     1      23.564  15.473  13.480  0.00  0.00    +0.047 A 
ATOM     12  C   UNL     1      22.822  16.513  12.784  0.00  0.00    +0.035 A 
ATOM     32  C   UNL     1      21.580  16.941  13.336  0.00  0.00    +0.024 A 
ATOM     33  C   UNL     1      21.061  16.362  14.550  0.00  0.00    +0.007 A 
ATOM     34  C   UNL     1      21.787  15.334  15.239  0.00  0.00    -0.029 A 
ATOM     35  C   UNL     1      21.180  14.745  16.534  0.00  0.00    +0.045 C 
ENDROOT
BRANCH  10   9
ATOM      4  C   UNL     1      24.640  10.373  15.043  0.00  0.00    +0.077 A 
ATOM      5  C   UNL     1      23.873   9.952  13.906  0.00  0.00    +0.048 A 
ATOM      6  C   UNL     1      23.082  10.928  13.259  0.00  0.00    +0.116 A 
ATOM      7  N   UNL     1      23.067  12.225  13.723  0.00  0.00    -0.223 NA
ATOM      8  C   UNL     1      23.817  12.598  14.823  0.00  0.00    +0.220 A 
ATOM      9  N   UNL     1      23.823  13.899  15.302  0.00  0.00    -0.283 N 
ATOM     36  H   UNL     1      24.384  14.132  16.121  0.00  0.00    +0.155 HD
ATOM     37  N   UNL     1      24.580  11.685  15.459  0.00  0.00    -0.214 NA
BRANCH   4   3
ATOM      1  C   UNL     1      27.347   9.020  17.521  0.00  0.00    +0.020 A 
ATOM      2  C   UNL     1      26.515   9.945  16.786  0.00  0.00    +0.013 A 
ATOM      3  C   UNL     1      25.527   9.460  15.830  0.00  0.00    +0.019 A 
ATOM     38  C   UNL     1      25.405   8.022  15.640  0.00  0.00    +0.120 A 
ATOM     39  N   UNL     1      26.221   7.156  16.361  0.00  0.00    -0.263 NA
ATOM     40  C   UNL     1      27.176   7.611  17.282  0.00  0.00    +0.111 A 
ENDBRANCH   4   3
ENDBRANCH  10   9
BRANCH  12  13
ATOM     13  N   UNL     1      23.271  17.133  11.562  0.00  0.00    -0.281 N 
ATOM     14  C   UNL     1      22.824  16.895  10.272  0.00  0.00    +0.248 C 
ATOM     30  O   UNL     1      22.115  15.954   9.949  0.00  0.00    -0.270 OA
ATOM     31  H   UNL     1      24.008  17.831  11.659  0.00  0.00    +0.155 HD
BRANCH  14  15
ATOM     15  C   UNL     1      23.237  17.830   9.181  0.00  0.00    +0.037 A 
ATOM     16  C   UNL     1      24.591  17.797   8.623  0.00  0.00    +0.013 A 
ATOM     17  C   UNL     1      24.968  18.721   7.584  0.00  0.00    +0.005 A 
ATOM     18  C   UNL     1      23.987  19.687   7.093  0.00  0.00    -0.033 A 
ATOM     28  C   UNL     1      22.648  19.694   7.661  0.00  0.00    +0.005 A 
ATOM     29  C   UNL     1      22.276  18.790   8.681  0.00  0.00    +0.013 A 
BRANCH  18  19
ATOM     19  C   UNL     1      24.308  20.724   6.001  0.00  0.00    +0.119 C 
BRANCH  19  20
ATOM     20  N   UNL     1      24.203  20.276   4.581  0.00  0.00    -0.302 NA
ATOM     21  C   UNL     1      25.148  21.055   3.661  0.00  0.00    +0.066 C 
ATOM     22  C   UNL     1      25.041  20.558   2.183  0.00  0.00    -0.064 C 
ATOM     23  N   UNL     1      23.594  20.688   1.707  0.00  0.00    +0.379 N 
ATOM     24  C   UNL     1      23.501  20.276   0.299  0.00  0.00    -0.096 C 
ATOM     25  H   UNL     1      23.314  21.765   1.763  0.00  0.00    -0.082 HD
ATOM     26  C   UNL     1      22.647  19.918   2.617  0.00  0.00    -0.064 C 
ATOM     27  C   UNL     1      22.782  20.399   4.089  0.00  0.00    +0.066 C 
ENDBRANCH  19  20
ENDBRANCH  18  19
ENDBRANCH  14  15
ENDBRANCH  12  13
TORSDOF 6
ENDMDL
MODEL 2
REMARK VINA RESULT:      -7.5      4.315     12.522
REMARK  Name = C:\Users\Docking\Desktop\test protocol\1iep_ligandH.pdb
REMARK  8 active torsions:
REMARK  status: ('A' for Active; 'I' for Inactive)
REMARK    1  A    between atoms: _5  and  _11
REMARK    2  A    between atoms: _19  and  _21
REMARK    3  A    between atoms: _22  and  _66
REMARK    4  A    between atoms: _27  and  _30
REMARK    5  A    between atoms: _32  and  _33
REMARK    6  A    between atoms: _38  and  _43
REMARK    7  A    between atoms: _43  and  _46
REMARK    8  A    between atoms: _53  and  _55
REMARK                            x       y       z     vdW  Elec       q    Type
REMARK                         _______ _______ _______ _____ _____    ______ ____
ROOT
ATOM     10  C   UNL     1      21.681  17.183  11.728  0.00  0.00    +0.038 A 
ATOM     11  C   UNL     1      22.466  16.719  12.815  0.00  0.00    +0.047 A 
ATOM     12  C   UNL     1      21.878  15.925  13.882  0.00  0.00    +0.035 A 
ATOM     32  C   UNL     1      20.487  15.621  13.811  0.00  0.00    +0.024 A 
ATOM     33  C   UNL     1      19.675  16.086  12.714  0.00  0.00    +0.007 A 
ATOM     34  C   UNL     1      20.249  16.871  11.659  0.00  0.00    -0.029 A 
ATOM     35  C   UNL     1      19.329  17.348  10.511  0.00  0.00    +0.045 C 
ENDROOT
BRANCH  10   9
ATOM      4  C   UNL     1      24.017  17.587   7.554  0.00  0.00    +0.077 A 
ATOM      5  C   UNL     1      24.033  16.166   7.358  0.00  0.00    +0.048 A 
ATOM      6  C   UNL     1      23.437  15.366   8.359  0.00  0.00    +0.116 A 
ATOM      7  N   UNL     1      22.868  15.954   9.468  0.00  0.00    -0.223 NA
ATOM      8  C   UNL     1      22.871  17.328   9.627  0.00  0.00    +0.220 A 
ATOM      9  N   UNL     1      22.298  17.941  10.730  0.00  0.00    -0.283 N 
ATOM     36  H   UNL     1      22.327  18.957  10.814  0.00  0.00    +0.155 HD
ATOM     37  N   UNL     1      23.435  18.114   8.686  0.00  0.00    -0.214 NA
BRANCH   4   3
ATOM      1  C   UNL     1      25.537  20.830   5.982  0.00  0.00    +0.020 A 
ATOM      2  C   UNL     1      24.973  19.925   6.957  0.00  0.00    +0.013 A 
ATOM      3  C   UNL     1      24.604  18.565   6.585  0.00  0.00    +0.019 A 
ATOM     38  C   UNL     1      24.820  18.149   5.207  0.00  0.00    +0.120 A 
ATOM     39  N   UNL     1      25.364  19.043   4.290  0.00  0.00    -0.263 NA
ATOM     40  C   UNL     1      25.722  20.355   4.637  0.00  0.00    +0.111 A 
ENDBRANCH   4   3
ENDBRANCH  10   9
BRANCH  12  13
ATOM     13  N   UNL     1      22.623  15.433  15.015  0.00  0.00    -0.281 N 
ATOM     14  C   UNL     1      23.615  14.466  15.026  0.00  0.00    +0.248 C 
ATOM     30  O   UNL     1      23.865  13.721  14.090  0.00  0.00    -0.270 OA
ATOM     31  H   UNL     1      22.391  15.848  15.917  0.00  0.00    +0.155 HD
BRANCH  14  15
ATOM     15  C   UNL     1      24.439  14.292  16.261  0.00  0.00    +0.037 A 
ATOM     16  C   UNL     1      24.485  13.010  16.969  0.00  0.00    +0.013 A 
ATOM     17  C   UNL     1      25.275  12.874  18.168  0.00  0.00    +0.005 A 
ATOM     18  C   UNL     1      26.027  14.024  18.664  0.00  0.00    -0.033 A 
ATOM     28  C   UNL     1      25.967  15.282  17.939  0.00  0.00    +0.005 A 
ATOM     29  C   UNL     1      25.194  15.420  16.764  0.00  0.00    +0.013 A 
BRANCH  18  19
ATOM     19  C   UNL     1      26.879  13.976  19.946  0.00  0.00    +0.119 C 
BRANCH  19  20
ATOM     20  N   UNL     1      27.569  15.235  20.357  0.00  0.00    -0.302 NA
ATOM     21  C   UNL     1      29.002  14.977  20.830  0.00  0.00    +0.066 C 
ATOM     22  C   UNL     1      29.716  16.308  21.234  0.00  0.00    -0.064 C 
ATOM     23  N   UNL     1      28.904  17.009  22.324  0.00  0.00    +0.379 N 
ATOM     24  C   UNL     1      29.603  18.231  22.747  0.00  0.00    -0.096 C 
ATOM     25  H   UNL     1      28.857  16.325  23.203  0.00  0.00    -0.082 HD
ATOM     26  C   UNL     1      27.476  17.267  21.863  0.00  0.00    -0.064 C 
ATOM     27  C   UNL     1      26.786  15.942  21.436  0.00  0.00    +0.066 C 
ENDBRANCH  19  20
ENDBRANCH  18  19
ENDBRANCH  14  15
ENDBRANCH  12  13
TORSDOF 6
ENDMDL
MODEL 3
REMARK VINA RESULT:      -7.5      5.745     12.229
REMARK  Name = C:\Users\Docking\Desktop\test protocol\1iep_ligandH.pdb
REMARK  8 active torsions:
REMARK  status: ('A' for Active; 'I' for Inactive)
REMARK    1  A    between atoms: _5  and  _11
REMARK    2  A    between atoms: _19  and  _21
REMARK    3  A    between atoms: _22  and  _66
REMARK    4  A    between atoms: _27  and  _30
REMARK    5  A    between atoms: _32  and  _33
REMARK    6  A    between atoms: _38  and  _43
REMARK    7  A    between atoms: _43  and  _46
REMARK    8  A    between atoms: _53  and  _55
REMARK                            x       y       z     vdW  Elec       q    Type
REMARK                         _______ _______ _______ _____ _____    ______ ____
ROOT
ATOM     10  C   UNL     1      24.344  10.094  10.381  0.00  0.00    +0.038 A 
ATOM     11  C   UNL     1      24.669  10.480  11.706  0.00  0.00    +0.047 A 
ATOM     12  C   UNL     1      23.660  10.491  12.755  0.00  0.00    +0.035 A 
ATOM     32  C   UNL     1      22.332  10.100  12.419  0.00  0.00    +0.024 A 
ATOM     33  C   UNL     1      21.984   9.706  11.076  0.00  0.00    +0.007 A 
ATOM     34  C   UNL     1      22.974   9.695  10.037  0.00  0.00    -0.029 A 
ATOM     35  C   UNL     1      22.543   9.269   8.614  0.00  0.00    +0.045 C 
ENDROOT
BRANCH  10   9
ATOM      4  C   UNL     1      26.942  12.287   6.993  0.00  0.00    +0.077 A 
ATOM      5  C   UNL     1      26.213  13.513   7.144  0.00  0.00    +0.048 A 
ATOM      6  C   UNL     1      25.172  13.536   8.099  0.00  0.00    +0.116 A 
ATOM      7  N   UNL     1      24.891  12.410   8.843  0.00  0.00    -0.223 NA
ATOM      8  C   UNL     1      25.612  11.243   8.671  0.00  0.00    +0.220 A 
ATOM      9  N   UNL     1      25.352  10.102   9.413  0.00  0.00    -0.283 N 
ATOM     36  H   UNL     1      25.901   9.258   9.252  0.00  0.00    +0.155 HD
ATOM     37  N   UNL     1      26.610  11.195   7.764  0.00  0.00    -0.214 NA
BRANCH   4   3
ATOM      1  C   UNL     1      29.563  12.907   4.156  0.00  0.00    +0.020 A 
ATOM      2  C   UNL     1      28.464  13.131   5.066  0.00  0.00    +0.013 A 
ATOM      3  C   UNL     1      28.072  12.107   6.027  0.00  0.00    +0.019 A 
ATOM     38  C   UNL     1      28.819  10.858   6.041  0.00  0.00    +0.120 A 
ATOM     39  N   UNL     1      29.872  10.670   5.151  0.00  0.00    -0.263 NA
ATOM     40  C   UNL     1      30.257  11.648   4.221  0.00  0.00    +0.111 A 
ENDBRANCH   4   3
ENDBRANCH  10   9
BRANCH  12  13
ATOM     13  N   UNL     1      23.929  10.882  14.117  0.00  0.00    -0.281 N 
ATOM     14  C   UNL     1      24.656  10.192  15.073  0.00  0.00    +0.248 C 
ATOM     30  O   UNL     1      25.009   9.027  14.965  0.00  0.00    -0.270 OA
ATOM     31  H   UNL     1      23.535  11.775  14.412  0.00  0.00    +0.155 HD
BRANCH  14  15
ATOM     15  C   UNL     1      25.034  10.893  16.338  0.00  0.00    +0.037 A 
ATOM     16  C   UNL     1      24.448  12.187  16.693  0.00  0.00    +0.013 A 
ATOM     17  C   UNL     1      24.843  12.850  17.911  0.00  0.00    +0.005 A 
ATOM     18  C   UNL     1      25.829  12.218  18.783  0.00  0.00    -0.033 A 
ATOM     28  C   UNL     1      26.391  10.930  18.409  0.00  0.00    +0.005 A 
ATOM     29  C   UNL     1      26.007  10.278  17.216  0.00  0.00    +0.013 A 
BRANCH  18  19
ATOM     19  C   UNL     1      26.325  12.863  20.091  0.00  0.00    +0.119 C 
BRANCH  19  20
ATOM     20  N   UNL     1      27.216  14.055  19.970  0.00  0.00    -0.302 NA
ATOM     21  C   UNL     1      28.185  14.169  21.150  0.00  0.00    +0.066 C 
ATOM     22  C   UNL     1      29.125  15.409  20.997  0.00  0.00    -0.064 C 
ATOM     23  N   UNL     1      28.277  16.676  20.868  0.00  0.00    +0.379 N 
ATOM     24  C   UNL     1      29.158  17.850  20.782  0.00  0.00    -0.096 C 
ATOM     25  H   UNL     1      27.673  16.774  21.800  0.00  0.00    -0.082 HD
ATOM     26  C   UNL     1      27.308  16.569  19.699  0.00  0.00    -0.064 C 
ATOM     27  C   UNL     1      26.399  15.318  19.846  0.00  0.00    +0.066 C 
ENDBRANCH  19  20
ENDBRANCH  18  19
ENDBRANCH  14  15
ENDBRANCH  12  13
TORSDOF 6
ENDMDL
MODEL 4
REMARK VINA RESULT:      -7.4      5.723      7.763
REMARK  Name = C:\Users\Docking\Desktop\test protocol\1iep_ligandH.pdb
REMARK  8 active torsions:
REMARK  status: ('A' for Active; 'I' for Inactive)
REMARK    1  A    between atoms: _5  and  _11
REMARK    2  A    between atoms: _19  and  _21
REMARK    3  A    between atoms: _22  and  _66
REMARK    4  A    between atoms: _27  and  _30
REMARK    5  A    between atoms: _32  and  _33
REMARK    6  A    between atoms: _38  and  _43
REMARK    7  A    between atoms: _43  and  _46
REMARK    8  A    between atoms: _53  and  _55
REMARK                            x       y       z     vdW  Elec       q    Type
REMARK                         _______ _______ _______ _____ _____    ______ ____
ROOT
ATOM     10  C   UNL     1      23.026  17.746   9.082  0.00  0.00    +0.038 A 
ATOM     11  C   UNL     1      22.177  18.882   9.103  0.00  0.00    +0.047 A 
ATOM     12  C   UNL     1      21.661  19.459   7.871  0.00  0.00    +0.035 A 
ATOM     32  C   UNL     1      22.029  18.851   6.635  0.00  0.00    +0.024 A 
ATOM     33  C   UNL     1      22.891  17.697   6.595  0.00  0.00    +0.007 A 
ATOM     34  C   UNL     1      23.405  17.125   7.807  0.00  0.00    -0.029 A 
ATOM     35  C   UNL     1      24.331  15.891   7.704  0.00  0.00    +0.045 C 
ENDROOT
BRANCH  10   9
ATOM      4  C   UNL     1      22.634  14.833  12.876  0.00  0.00    +0.077 A 
ATOM      5  C   UNL     1      21.381  14.307  12.417  0.00  0.00    +0.048 A 
ATOM      6  C   UNL     1      20.868  14.818  11.204  0.00  0.00    +0.116 A 
ATOM      7  N   UNL     1      21.565  15.782  10.509  0.00  0.00    -0.223 NA
ATOM      8  C   UNL     1      22.770  16.270  10.981  0.00  0.00    +0.220 A 
ATOM      9  N   UNL     1      23.492  17.234  10.295  0.00  0.00    -0.283 N 
ATOM     36  H   UNL     1      24.374  17.573  10.680  0.00  0.00    +0.155 HD
ATOM     37  N   UNL     1      23.280  15.799  12.138  0.00  0.00    -0.214 NA
BRANCH   4   3
ATOM      1  C   UNL     1      24.488  14.849  16.321  0.00  0.00    +0.020 A 
ATOM      2  C   UNL     1      23.848  15.327  15.117  0.00  0.00    +0.013 A 
ATOM      3  C   UNL     1      23.306  14.392  14.139  0.00  0.00    +0.019 A 
ATOM     38  C   UNL     1      23.429  12.968  14.412  0.00  0.00    +0.120 A 
ATOM     39  N   UNL     1      24.052  12.537  15.579  0.00  0.00    -0.263 NA
ATOM     40  C   UNL     1      24.578  13.427  16.526  0.00  0.00    +0.111 A 
ENDBRANCH   4   3
ENDBRANCH  10   9
BRANCH  12  13
ATOM     13  N   UNL     1      20.802  20.616   7.829  0.00  0.00    -0.281 N 
ATOM     14  C   UNL     1      20.757  21.609   6.864  0.00  0.00    +0.248 C 
ATOM     30  O   UNL     1      21.601  21.767   5.994  0.00  0.00    -0.270 OA
ATOM     31  H   UNL     1      20.148  20.716   8.606  0.00  0.00    +0.155 HD
BRANCH  14  15
ATOM     15  C   UNL     1      19.618  22.576   6.876  0.00  0.00    +0.037 A 
ATOM     16  C   UNL     1      18.739  22.702   8.042  0.00  0.00    +0.013 A 
ATOM     17  C   UNL     1      17.637  23.630   8.020  0.00  0.00    +0.005 A 
ATOM     18  C   UNL     1      17.408  24.442   6.827  0.00  0.00    -0.033 A 
ATOM     28  C   UNL     1      18.297  24.301   5.687  0.00  0.00    +0.005 A 
ATOM     29  C   UNL     1      19.378  23.391   5.704  0.00  0.00    +0.013 A 
BRANCH  18  19
ATOM     19  C   UNL     1      16.243  25.443   6.708  0.00  0.00    +0.119 C 
BRANCH  19  20
ATOM     20  N   UNL     1      16.396  26.556   5.724  0.00  0.00    -0.302 NA
ATOM     21  C   UNL     1      16.313  27.930   6.394  0.00  0.00    +0.066 C 
ATOM     22  C   UNL     1      16.498  29.083   5.353  0.00  0.00    -0.064 C 
ATOM     23  N   UNL     1      15.440  28.950   4.257  0.00  0.00    +0.379 N 
ATOM     24  C   UNL     1      15.574  30.065   3.308  0.00  0.00    -0.096 C 
ATOM     25  H   UNL     1      14.439  29.036   4.741  0.00  0.00    -0.082 HD
ATOM     26  C   UNL     1      15.513  27.585   3.587  0.00  0.00    -0.064 C 
ATOM     27  C   UNL     1      15.358  26.447   4.634  0.00  0.00    +0.066 C 
ENDBRANCH  19  20
ENDBRANCH  18  19
ENDBRANCH  14  15
ENDBRANCH  12  13
TORSDOF 6
ENDMDL
MODEL 5
REMARK VINA RESULT:      -7.4     17.643     19.486
REMARK  Name = C:\Users\Docking\Desktop\test protocol\1iep_ligandH.pdb
REMARK  8 active torsions:
REMARK  status: ('A' for Active; 'I' for Inactive)
REMARK    1  A    between atoms: _5  and  _11
REMARK    2  A    between atoms: _19  and  _21
REMARK    3  A    between atoms: _22  and  _66
REMARK    4  A    between atoms: _27  and  _30
REMARK    5  A    between atoms: _32  and  _33
REMARK    6  A    between atoms: _38  and  _43
REMARK    7  A    between atoms: _43  and  _46
REMARK    8  A    between atoms: _53  and  _55
REMARK                            x       y       z     vdW  Elec       q    Type
REMARK                         _______ _______ _______ _____ _____    ______ ____
ROOT
ATOM     10  C   UNL     1      39.085  26.472   4.627  0.00  0.00    +0.038 A 
ATOM     11  C   UNL     1      37.732  26.891   4.543  0.00  0.00    +0.047 A 
ATOM     12  C   UNL     1      37.204  27.912   5.434  0.00  0.00    +0.035 A 
ATOM     32  C   UNL     1      38.082  28.489   6.398  0.00  0.00    +0.024 A 
ATOM     33  C   UNL     1      39.460  28.074   6.498  0.00  0.00    +0.007 A 
ATOM     34  C   UNL     1      39.986  27.065   5.623  0.00  0.00    -0.029 A 
ATOM     35  C   UNL     1      41.469  26.655   5.780  0.00  0.00    +0.045 C 
ENDROOT
BRANCH  10   9
ATOM      4  C   UNL     1      40.012  21.899   3.506  0.00  0.00    +0.077 A 
ATOM      5  C   UNL     1      39.580  21.434   4.792  0.00  0.00    +0.048 A 
ATOM      6  C   UNL     1      39.133  22.404   5.716  0.00  0.00    +0.116 A 
ATOM      7  N   UNL     1      39.123  23.738   5.369  0.00  0.00    -0.223 NA
ATOM      8  C   UNL     1      39.548  24.153   4.121  0.00  0.00    +0.220 A 
ATOM      9  N   UNL     1      39.539  25.488   3.747  0.00  0.00    -0.283 N 
ATOM     36  H   UNL     1      39.868  25.754   2.819  0.00  0.00    +0.155 HD
ATOM     37  N   UNL     1      39.981  23.245   3.221  0.00  0.00    -0.214 NA
BRANCH   4   3
ATOM      1  C   UNL     1      40.318  19.913   0.150  0.00  0.00    +0.020 A 
ATOM      2  C   UNL     1      39.795  20.797   1.165  0.00  0.00    +0.013 A 
ATOM      3  C   UNL     1      40.509  20.995   2.421  0.00  0.00    +0.019 A 
ATOM     38  C   UNL     1      41.760  20.277   2.618  0.00  0.00    +0.120 A 
ATOM     39  N   UNL     1      42.238  19.431   1.622  0.00  0.00    -0.263 NA
ATOM     40  C   UNL     1      41.559  19.232   0.411  0.00  0.00    +0.111 A 
ENDBRANCH   4   3
ENDBRANCH  10   9
BRANCH  12  13
ATOM     13  N   UNL     1      35.838  28.372   5.401  0.00  0.00    -0.281 N 
ATOM     14  C   UNL     1      35.319  29.452   4.707  0.00  0.00    +0.248 C 
ATOM     30  O   UNL     1      35.995  30.321   4.175  0.00  0.00    -0.270 OA
ATOM     31  H   UNL     1      35.172  27.835   5.957  0.00  0.00    +0.155 HD
BRANCH  14  15
ATOM     15  C   UNL     1      33.835  29.598   4.600  0.00  0.00    +0.037 A 
ATOM     16  C   UNL     1      32.937  28.498   4.959  0.00  0.00    +0.013 A 
ATOM     17  C   UNL     1      31.510  28.658   4.830  0.00  0.00    +0.005 A 
ATOM     18  C   UNL     1      30.973  29.926   4.341  0.00  0.00    -0.033 A 
ATOM     28  C   UNL     1      31.887  31.002   3.997  0.00  0.00    +0.005 A 
ATOM     29  C   UNL     1      33.286  30.848   4.121  0.00  0.00    +0.013 A 
BRANCH  18  19
ATOM     19  C   UNL     1      29.466  30.179   4.152  0.00  0.00    +0.119 C 
BRANCH  19  20
ATOM     20  N   UNL     1      29.068  31.278   3.223  0.00  0.00    -0.302 NA
ATOM     21  C   UNL     1      27.834  32.034   3.723  0.00  0.00    +0.066 C 
ATOM     22  C   UNL     1      27.445  33.195   2.750  0.00  0.00    -0.064 C 
ATOM     23  N   UNL     1      27.201  32.625   1.352  0.00  0.00    +0.379 N 
ATOM     24  C   UNL     1      26.779  33.705   0.448  0.00  0.00    -0.096 C 
ATOM     25  H   UNL     1      26.359  31.897   1.426  0.00  0.00    -0.082 HD
ATOM     26  C   UNL     1      28.422  31.868   0.848  0.00  0.00    -0.064 C 
ATOM     27  C   UNL     1      28.818  30.736   1.837  0.00  0.00    +0.066 C 
ENDBRANCH  19  20
ENDBRANCH  18  19
ENDBRANCH  14  15
ENDBRANCH  12  13
TORSDOF 6
ENDMDL
