MODEL 1
REMARK VINA RESULT:      -7.6      0.000      0.000
REMARK  Name = C:\Users\Docking\Desktop\test protocol\1iep_ligandH.pdb
REMARK  8 active torsions:
REMARK  status: ('A' for Active; 'I' for Inactive)
REMARK    1  A    between atoms: _5  and  _11
REMARK    2  A    between atoms: _19  and  _21
REMARK    3  A    between atoms: _22  and  _66
REMARK    4  A    between atoms: _27  and  _30
REMARK    5  A    between atoms: _32  and  _33
REMARK    6  A    between atoms: _38  and  _43
REMARK    7  A    between atoms: _43  and  _46
REMARK    8  A    between atoms: _53  and  _55
REMARK                            x       y       z     vdW  Elec       q    Type
REMARK                         _______ _______ _______ _____ _____    ______ ____
ROOT
ATOM     10  C   UNL     1      23.056  14.873  14.688  0.00  0.00    +0.038 A 
ATOM     11  C   UNL     1      23.545  15.449  13.487  0.00  0.00    +0.047 A 
ATOM     12  C   UNL     1      22.823  16.520  12.818  0.00  0.00    +0.035 A 
ATOM     32  C   UNL     1      21.608  16.983  13.401  0.00  0.00    +0.024 A 
ATOM     33  C   UNL     1      21.096  16.409  14.620  0.00  0.00    +0.007 A 
ATOM     34  C   UNL     1      21.802  15.350  15.283  0.00  0.00    -0.029 A 
ATOM     35  C   UNL     1      21.203  14.767  16.585  0.00  0.00    +0.045 C 
ENDROOT
BRANCH  10   9
ATOM      4  C   UNL     1      24.549  10.318  14.927  0.00  0.00    +0.077 A 
ATOM      5  C   UNL     1      23.782   9.944  13.774  0.00  0.00    +0.048 A 
ATOM      6  C   UNL     1      23.011  10.952  13.153  0.00  0.00    +0.116 A 
ATOM      7  N   UNL     1      23.015  12.235  13.655  0.00  0.00    -0.223 NA
ATOM      8  C   UNL     1      23.765  12.562  14.770  0.00  0.00    +0.220 A 
ATOM      9  N   UNL     1      23.789  13.848  15.288  0.00  0.00    -0.283 N 
ATOM     36  H   UNL     1      24.350  14.047  16.117  0.00  0.00    +0.155 HD
ATOM     37  N   UNL     1      24.508  11.617  15.382  0.00  0.00    -0.214 NA
BRANCH   4   3
ATOM      1  C   UNL     1      27.257   8.847  17.336  0.00  0.00    +0.020 A 
ATOM      2  C   UNL     1      26.446   9.807  16.623  0.00  0.00    +0.013 A 
ATOM      3  C   UNL     1      25.416   9.366  15.691  0.00  0.00    +0.019 A 
ATOM     38  C   UNL     1      25.230   7.936  15.502  0.00  0.00    +0.120 A 
ATOM     39  N   UNL     1      26.026   7.034  16.202  0.00  0.00    -0.263 NA
ATOM     40  C   UNL     1      27.021   7.447  17.100  0.00  0.00    +0.111 A 
ENDBRANCH   4   3
ENDBRANCH  10   9
BRANCH  12  13
ATOM     13  N   UNL     1      23.267  17.137  11.592  0.00  0.00    -0.281 N 
ATOM     14  C   UNL     1      22.822  16.889  10.304  0.00  0.00    +0.248 C 
ATOM     30  O   UNL     1      22.121  15.939   9.986  0.00  0.00    -0.270 OA
ATOM     31  H   UNL     1      23.997  17.843  11.686  0.00  0.00    +0.155 HD
BRANCH  14  15
ATOM     15  C   UNL     1      23.225  17.822   9.208  0.00  0.00    +0.037 A 
ATOM     16  C   UNL     1      24.569  17.775   8.627  0.00  0.00    +0.013 A 
ATOM     17  C   UNL     1      24.938  18.697   7.582  0.00  0.00    +0.005 A 
ATOM     18  C   UNL     1      23.960  19.675   7.112  0.00  0.00    -0.033 A 
ATOM     28  C   UNL     1      22.632  19.696   7.703  0.00  0.00    +0.005 A 
ATOM     29  C   UNL     1      22.267  18.794   8.727  0.00  0.00    +0.013 A 
BRANCH  18  19
ATOM     19  C   UNL     1      24.273  20.711   6.017  0.00  0.00    +0.119 C 
BRANCH  19  20
ATOM     20  N   UNL     1      24.144  20.266   4.597  0.00  0.00    -0.302 NA
ATOM     21  C   UNL     1      25.112  21.009   3.672  0.00  0.00    +0.066 C 
ATOM     22  C   UNL     1      24.979  20.515   2.194  0.00  0.00    -0.064 C 
ATOM     23  N   UNL     1      23.535  20.698   1.726  0.00  0.00    +0.379 N 
ATOM     24  C   UNL     1      23.420  20.289   0.319  0.00  0.00    -0.096 C 
ATOM     25  H   UNL     1      23.296  21.786   1.783  0.00  0.00    -0.082 HD
ATOM     26  C   UNL     1      22.565  19.965   2.642  0.00  0.00    -0.064 C 
ATOM     27  C   UNL     1      22.726  20.442   4.113  0.00  0.00    +0.066 C 
ENDBRANCH  19  20
ENDBRANCH  18  19
ENDBRANCH  14  15
ENDBRANCH  12  13
TORSDOF 6
ENDMDL
MODEL 2
REMARK VINA RESULT:      -7.5      3.338     13.715
REMARK  Name = C:\Users\Docking\Desktop\test protocol\1iep_ligandH.pdb
REMARK  8 active torsions:
REMARK  status: ('A' for Active; 'I' for Inactive)
REMARK    1  A    between atoms: _5  and  _11
REMARK    2  A    between atoms: _19  and  _21
REMARK    3  A    between atoms: _22  and  _66
REMARK    4  A    between atoms: _27  and  _30
REMARK    5  A    between atoms: _32  and  _33
REMARK    6  A    between atoms: _38  and  _43
REMARK    7  A    between atoms: _43  and  _46
REMARK    8  A    between atoms: _53  and  _55
REMARK                            x       y       z     vdW  Elec       q    Type
REMARK                         _______ _______ _______ _____ _____    ______ ____
ROOT
ATOM     10  C   UNL     1      22.834  19.838   7.637  0.00  0.00    +0.038 A 
ATOM     11  C   UNL     1      22.566  18.913   8.678  0.00  0.00    +0.047 A 
ATOM     12  C   UNL     1      23.490  17.830   8.978  0.00  0.00    +0.035 A 
ATOM     32  C   UNL     1      24.678  17.720   8.199  0.00  0.00    +0.024 A 
ATOM     33  C   UNL     1      24.965  18.651   7.136  0.00  0.00    +0.007 A 
ATOM     34  C   UNL     1      24.057  19.720   6.833  0.00  0.00    -0.029 A 
ATOM     35  C   UNL     1      24.413  20.684   5.678  0.00  0.00    +0.045 C 
ENDROOT
BRANCH  10   9
ATOM      4  C   UNL     1      19.171  21.734   5.182  0.00  0.00    +0.077 A 
ATOM      5  C   UNL     1      19.105  20.608   4.296  0.00  0.00    +0.048 A 
ATOM      6  C   UNL     1      20.036  19.565   4.501  0.00  0.00    +0.116 A 
ATOM      7  N   UNL     1      20.959  19.653   5.520  0.00  0.00    -0.223 NA
ATOM      8  C   UNL     1      20.997  20.754   6.356  0.00  0.00    +0.220 A 
ATOM      9  N   UNL     1      21.913  20.859   7.392  0.00  0.00    -0.283 N 
ATOM     36  H   UNL     1      21.913  21.691   7.981  0.00  0.00    +0.155 HD
ATOM     37  N   UNL     1      20.120  21.763   6.179  0.00  0.00    -0.214 NA
BRANCH   4   3
ATOM      1  C   UNL     1      17.399  25.147   5.900  0.00  0.00    +0.020 A 
ATOM      2  C   UNL     1      18.308  24.031   6.029  0.00  0.00    +0.013 A 
ATOM      3  C   UNL     1      18.253  22.914   5.095  0.00  0.00    +0.019 A 
ATOM     38  C   UNL     1      17.259  22.957   4.033  0.00  0.00    +0.120 A 
ATOM     39  N   UNL     1      16.396  24.043   3.935  0.00  0.00    -0.263 NA
ATOM     40  C   UNL     1      16.438  25.124   4.829  0.00  0.00    +0.111 A 
ENDBRANCH   4   3
ENDBRANCH  10   9
BRANCH  12  13
ATOM     13  N   UNL     1      23.268  16.857  10.019  0.00  0.00    -0.281 N 
ATOM     14  C   UNL     1      22.852  15.543   9.880  0.00  0.00    +0.248 C 
ATOM     30  O   UNL     1      22.399  15.066   8.850  0.00  0.00    -0.270 OA
ATOM     31  H   UNL     1      23.438  17.175  10.973  0.00  0.00    +0.155 HD
BRANCH  14  15
ATOM     15  C   UNL     1      22.937  14.630  11.061  0.00  0.00    +0.037 A 
ATOM     16  C   UNL     1      22.967  13.175  10.896  0.00  0.00    +0.013 A 
ATOM     17  C   UNL     1      23.032  12.317  12.053  0.00  0.00    +0.005 A 
ATOM     18  C   UNL     1      23.069  12.914  13.386  0.00  0.00    -0.033 A 
ATOM     28  C   UNL     1      23.042  14.361  13.520  0.00  0.00    +0.005 A 
ATOM     29  C   UNL     1      22.978  15.205  12.389  0.00  0.00    +0.013 A 
BRANCH  18  19
ATOM     19  C   UNL     1      23.117  12.075  14.677  0.00  0.00    +0.119 C 
BRANCH  19  20
ATOM     20  N   UNL     1      24.165  11.015  14.764  0.00  0.00    -0.302 NA
ATOM     21  C   UNL     1      23.591   9.618  14.511  0.00  0.00    +0.066 C 
ATOM     22  C   UNL     1      24.705   8.523  14.584  0.00  0.00    -0.064 C 
ATOM     23  N   UNL     1      25.391   8.587  15.950  0.00  0.00    +0.379 N 
ATOM     24  C   UNL     1      26.399   7.522  16.043  0.00  0.00    -0.096 C 
ATOM     25  H   UNL     1      24.616   8.389  16.726  0.00  0.00    -0.082 HD
ATOM     26  C   UNL     1      25.962   9.974  16.211  0.00  0.00    -0.064 C 
ATOM     27  C   UNL     1      24.852  11.057  16.107  0.00  0.00    +0.066 C 
ENDBRANCH  19  20
ENDBRANCH  18  19
ENDBRANCH  14  15
ENDBRANCH  12  13
TORSDOF 6
ENDMDL
MODEL 3
REMARK VINA RESULT:      -7.5      5.766     12.229
REMARK  Name = C:\Users\Docking\Desktop\test protocol\1iep_ligandH.pdb
REMARK  8 active torsions:
REMARK  status: ('A' for Active; 'I' for Inactive)
REMARK    1  A    between atoms: _5  and  _11
REMARK    2  A    between atoms: _19  and  _21
REMARK    3  A    between atoms: _22  and  _66
REMARK    4  A    between atoms: _27  and  _30
REMARK    5  A    between atoms: _32  and  _33
REMARK    6  A    between atoms: _38  and  _43
REMARK    7  A    between atoms: _43  and  _46
REMARK    8  A    between atoms: _53  and  _55
REMARK                            x       y       z     vdW  Elec       q    Type
REMARK                         _______ _______ _______ _____ _____    ______ ____
ROOT
ATOM     10  C   UNL     1      24.344  10.111  10.349  0.00  0.00    +0.038 A 
ATOM     11  C   UNL     1      24.680  10.478  11.677  0.00  0.00    +0.047 A 
ATOM     12  C   UNL     1      23.676  10.496  12.730  0.00  0.00    +0.035 A 
ATOM     32  C   UNL     1      22.340  10.131  12.395  0.00  0.00    +0.024 A 
ATOM     33  C   UNL     1      21.981   9.756  11.050  0.00  0.00    +0.007 A 
ATOM     34  C   UNL     1      22.966   9.739  10.007  0.00  0.00    -0.029 A 
ATOM     35  C   UNL     1      22.523   9.334   8.581  0.00  0.00    +0.045 C 
ENDROOT
BRANCH  10   9
ATOM      4  C   UNL     1      26.951  12.285   6.955  0.00  0.00    +0.077 A 
ATOM      5  C   UNL     1      26.234  13.518   7.111  0.00  0.00    +0.048 A 
ATOM      6  C   UNL     1      25.197  13.548   8.071  0.00  0.00    +0.116 A 
ATOM      7  N   UNL     1      24.907  12.424   8.813  0.00  0.00    -0.223 NA
ATOM      8  C   UNL     1      25.617  11.251   8.637  0.00  0.00    +0.220 A 
ATOM      9  N   UNL     1      25.348  10.110   9.378  0.00  0.00    -0.283 N 
ATOM     36  H   UNL     1      25.890   9.262   9.213  0.00  0.00    +0.155 HD
ATOM     37  N   UNL     1      26.611  11.195   7.726  0.00  0.00    -0.214 NA
BRANCH   4   3
ATOM      1  C   UNL     1      29.559  12.881   4.102  0.00  0.00    +0.020 A 
ATOM      2  C   UNL     1      28.465  13.113   5.017  0.00  0.00    +0.013 A 
ATOM      3  C   UNL     1      28.075  12.096   5.985  0.00  0.00    +0.019 A 
ATOM     38  C   UNL     1      28.818  10.845   6.002  0.00  0.00    +0.120 A 
ATOM     39  N   UNL     1      29.866  10.649   5.108  0.00  0.00    -0.263 NA
ATOM     40  C   UNL     1      30.250  11.620   4.171  0.00  0.00    +0.111 A 
ENDBRANCH   4   3
ENDBRANCH  10   9
BRANCH  12  13
ATOM     13  N   UNL     1      23.956  10.869  14.094  0.00  0.00    -0.281 N 
ATOM     14  C   UNL     1      24.664  10.151  15.044  0.00  0.00    +0.248 C 
ATOM     30  O   UNL     1      24.984   8.978  14.928  0.00  0.00    -0.270 OA
ATOM     31  H   UNL     1      23.588  11.771  14.396  0.00  0.00    +0.155 HD
BRANCH  14  15
ATOM     15  C   UNL     1      25.063  10.832  16.314  0.00  0.00    +0.037 A 
ATOM     16  C   UNL     1      26.033  10.226  17.229  0.00  0.00    +0.013 A 
ATOM     17  C   UNL     1      26.387  10.896  18.456  0.00  0.00    +0.005 A 
ATOM     18  C   UNL     1      25.770  12.181  18.773  0.00  0.00    -0.033 A 
ATOM     28  C   UNL     1      24.814  12.763  17.845  0.00  0.00    +0.005 A 
ATOM     29  C   UNL     1      24.464  12.108  16.642  0.00  0.00    +0.013 A 
BRANCH  18  19
ATOM     19  C   UNL     1      26.072  12.957  20.069  0.00  0.00    +0.119 C 
BRANCH  19  20
ATOM     20  N   UNL     1      27.087  14.049  19.992  0.00  0.00    -0.302 NA
ATOM     21  C   UNL     1      28.067  14.007  21.167  0.00  0.00    +0.066 C 
ATOM     22  C   UNL     1      29.136  15.143  21.058  0.00  0.00    -0.064 C 
ATOM     23  N   UNL     1      28.430  16.499  20.990  0.00  0.00    +0.379 N 
ATOM     24  C   UNL     1      29.433  17.573  20.945  0.00  0.00    -0.096 C 
ATOM     25  H   UNL     1      27.843  16.622  21.929  0.00  0.00    -0.082 HD
ATOM     26  C   UNL     1      27.451  16.548  19.825  0.00  0.00    -0.064 C 
ATOM     27  C   UNL     1      26.412  15.397  19.927  0.00  0.00    +0.066 C 
ENDBRANCH  19  20
ENDBRANCH  18  19
ENDBRANCH  14  15
ENDBRANCH  12  13
TORSDOF 6
ENDMDL
MODEL 4
REMARK VINA RESULT:      -7.4      9.955     18.274
REMARK  Name = C:\Users\Docking\Desktop\test protocol\1iep_ligandH.pdb
REMARK  8 active torsions:
REMARK  status: ('A' for Active; 'I' for Inactive)
REMARK    1  A    between atoms: _5  and  _11
REMARK    2  A    between atoms: _19  and  _21
REMARK    3  A    between atoms: _22  and  _66
REMARK    4  A    between atoms: _27  and  _30
REMARK    5  A    between atoms: _32  and  _33
REMARK    6  A    between atoms: _38  and  _43
REMARK    7  A    between atoms: _43  and  _46
REMARK    8  A    between atoms: _53  and  _55
REMARK                            x       y       z     vdW  Elec       q    Type
REMARK                         _______ _______ _______ _____ _____    ______ ____
ROOT
ATOM     10  C   UNL     1      15.621  29.131   5.855  0.00  0.00    +0.038 A 
ATOM     11  C   UNL     1      16.424  27.973   6.013  0.00  0.00    +0.047 A 
ATOM     12  C   UNL     1      16.130  26.987   7.041  0.00  0.00    +0.035 A 
ATOM     32  C   UNL     1      15.008  27.211   7.890  0.00  0.00    +0.024 A 
ATOM     33  C   UNL     1      14.181  28.383   7.745  0.00  0.00    +0.007 A 
ATOM     34  C   UNL     1      14.468  29.360   6.734  0.00  0.00    -0.029 A 
ATOM     35  C   UNL     1      13.552  30.602   6.628  0.00  0.00    +0.045 C 
ENDROOT
BRANCH  10   9
ATOM      4  C   UNL     1      15.552  30.608   1.289  0.00  0.00    +0.077 A 
ATOM      5  C   UNL     1      14.823  29.448   0.863  0.00  0.00    +0.048 A 
ATOM      6  C   UNL     1      14.492  28.492   1.849  0.00  0.00    +0.116 A 
ATOM      7  N   UNL     1      14.866  28.691   3.160  0.00  0.00    -0.223 NA
ATOM      8  C   UNL     1      15.570  29.820   3.537  0.00  0.00    +0.220 A 
ATOM      9  N   UNL     1      15.949  30.045   4.851  0.00  0.00    -0.283 N 
ATOM     36  H   UNL     1      16.474  30.886   5.088  0.00  0.00    +0.155 HD
ATOM     37  N   UNL     1      15.900  30.748   2.614  0.00  0.00    -0.214 NA
BRANCH   4   3
ATOM      1  C   UNL     1      17.721  33.123  -0.778  0.00  0.00    +0.020 A 
ATOM      2  C   UNL     1      17.369  32.050   0.124  0.00  0.00    +0.013 A 
ATOM      3  C   UNL     1      15.972  31.710   0.366  0.00  0.00    +0.019 A 
ATOM     38  C   UNL     1      14.949  32.479  -0.325  0.00  0.00    +0.120 A 
ATOM     39  N   UNL     1      15.318  33.508  -1.186  0.00  0.00    -0.263 NA
ATOM     40  C   UNL     1      16.659  33.846  -1.426  0.00  0.00    +0.111 A 
ENDBRANCH   4   3
ENDBRANCH  10   9
BRANCH  12  13
ATOM     13  N   UNL     1      16.915  25.796   7.253  0.00  0.00    -0.281 N 
ATOM     14  C   UNL     1      17.125  24.747   6.373  0.00  0.00    +0.248 C 
ATOM     30  O   UNL     1      16.494  24.572   5.342  0.00  0.00    -0.270 OA
ATOM     31  H   UNL     1      17.370  25.716   8.163  0.00  0.00    +0.155 HD
BRANCH  14  15
ATOM     15  C   UNL     1      18.181  23.738   6.692  0.00  0.00    +0.037 A 
ATOM     16  C   UNL     1      18.215  23.058   7.990  0.00  0.00    +0.013 A 
ATOM     17  C   UNL     1      19.254  22.101   8.278  0.00  0.00    +0.005 A 
ATOM     18  C   UNL     1      20.268  21.818   7.264  0.00  0.00    -0.033 A 
ATOM     28  C   UNL     1      20.207  22.503   5.984  0.00  0.00    +0.005 A 
ATOM     29  C   UNL     1      19.191  23.442   5.698  0.00  0.00    +0.013 A 
BRANCH  18  19
ATOM     19  C   UNL     1      21.425  20.828   7.493  0.00  0.00    +0.119 C 
BRANCH  19  20
ATOM     20  N   UNL     1      22.320  20.542   6.332  0.00  0.00    -0.302 NA
ATOM     21  C   UNL     1      22.048  19.162   5.724  0.00  0.00    +0.066 C 
ATOM     22  C   UNL     1      22.977  18.888   4.497  0.00  0.00    -0.064 C 
ATOM     23  N   UNL     1      24.439  19.012   4.930  0.00  0.00    +0.379 N 
ATOM     24  C   UNL     1      25.316  18.698   3.792  0.00  0.00    -0.096 C 
ATOM     25  H   UNL     1      24.623  18.247   5.720  0.00  0.00    -0.082 HD
ATOM     26  C   UNL     1      24.717  20.379   5.538  0.00  0.00    -0.064 C 
ATOM     27  C   UNL     1      23.769  20.653   6.738  0.00  0.00    +0.066 C 
ENDBRANCH  19  20
ENDBRANCH  18  19
ENDBRANCH  14  15
ENDBRANCH  12  13
TORSDOF 6
ENDMDL
MODEL 5
REMARK VINA RESULT:      -7.4      4.434     12.518
REMARK  Name = C:\Users\Docking\Desktop\test protocol\1iep_ligandH.pdb
REMARK  8 active torsions:
REMARK  status: ('A' for Active; 'I' for Inactive)
REMARK    1  A    between atoms: _5  and  _11
REMARK    2  A    between atoms: _19  and  _21
REMARK    3  A    between atoms: _22  and  _66
REMARK    4  A    between atoms: _27  and  _30
REMARK    5  A    between atoms: _32  and  _33
REMARK    6  A    between atoms: _38  and  _43
REMARK    7  A    between atoms: _43  and  _46
REMARK    8  A    between atoms: _53  and  _55
REMARK                            x       y       z     vdW  Elec       q    Type
REMARK                         _______ _______ _______ _____ _____    ______ ____
ROOT
ATOM     10  C   UNL     1      21.785  17.071  11.549  0.00  0.00    +0.038 A 
ATOM     11  C   UNL     1      22.557  16.687  12.675  0.00  0.00    +0.047 A 
ATOM     12  C   UNL     1      21.989  15.866  13.733  0.00  0.00    +0.035 A 
ATOM     32  C   UNL     1      20.631  15.451  13.610  0.00  0.00    +0.024 A 
ATOM     33  C   UNL     1      19.831  15.832  12.473  0.00  0.00    +0.007 A 
ATOM     34  C   UNL     1      20.386  16.644  11.427  0.00  0.00    -0.029 A 
ATOM     35  C   UNL     1      19.480  17.028  10.234  0.00  0.00    +0.045 C 
ENDROOT
BRANCH  10   9
ATOM      4  C   UNL     1      24.158  17.597   7.410  0.00  0.00    +0.077 A 
ATOM      5  C   UNL     1      24.240  16.179   7.209  0.00  0.00    +0.048 A 
ATOM      6  C   UNL     1      23.666  15.349   8.197  0.00  0.00    +0.116 A 
ATOM      7  N   UNL     1      23.056  15.906   9.300  0.00  0.00    -0.223 NA
ATOM      8  C   UNL     1      22.996  17.277   9.465  0.00  0.00    +0.220 A 
ATOM      9  N   UNL     1      22.381  17.860  10.563  0.00  0.00    -0.283 N 
ATOM     36  H   UNL     1      22.364  18.875  10.651  0.00  0.00    +0.155 HD
ATOM     37  N   UNL     1      23.538  18.092   8.536  0.00  0.00    -0.214 NA
BRANCH   4   3
ATOM      1  C   UNL     1      25.529  19.310   4.172  0.00  0.00    +0.020 A 
ATOM      2  C   UNL     1      24.992  18.300   5.055  0.00  0.00    +0.013 A 
ATOM      3  C   UNL     1      24.714  18.605   6.453  0.00  0.00    +0.019 A 
ATOM     38  C   UNL     1      24.993  19.951   6.930  0.00  0.00    +0.120 A 
ATOM     39  N   UNL     1      25.511  20.902   6.057  0.00  0.00    -0.263 NA
ATOM     40  C   UNL     1      25.784  20.620   4.710  0.00  0.00    +0.111 A 
ENDBRANCH   4   3
ENDBRANCH  10   9
BRANCH  12  13
ATOM     13  N   UNL     1      22.722  15.453  14.904  0.00  0.00    -0.281 N 
ATOM     14  C   UNL     1      23.672  14.449  15.003  0.00  0.00    +0.248 C 
ATOM     30  O   UNL     1      23.882  13.608  14.142  0.00  0.00    -0.270 OA
ATOM     31  H   UNL     1      22.516  15.962  15.763  0.00  0.00    +0.155 HD
BRANCH  14  15
ATOM     15  C   UNL     1      24.499  14.358  16.245  0.00  0.00    +0.037 A 
ATOM     16  C   UNL     1      24.512  13.142  17.062  0.00  0.00    +0.013 A 
ATOM     17  C   UNL     1      25.306  13.087  18.264  0.00  0.00    +0.005 A 
ATOM     18  C   UNL     1      26.094  14.253  18.656  0.00  0.00    -0.033 A 
ATOM     28  C   UNL     1      26.066  15.445  17.825  0.00  0.00    +0.005 A 
ATOM     29  C   UNL     1      25.289  15.503  16.646  0.00  0.00    +0.013 A 
BRANCH  18  19
ATOM     19  C   UNL     1      26.953  14.291  19.934  0.00  0.00    +0.119 C 
BRANCH  19  20
ATOM     20  N   UNL     1      27.480  15.620  20.364  0.00  0.00    -0.302 NA
ATOM     21  C   UNL     1      28.887  15.514  20.960  0.00  0.00    +0.066 C 
ATOM     22  C   UNL     1      29.433  16.916  21.383  0.00  0.00    -0.064 C 
ATOM     23  N   UNL     1      28.468  17.555  22.384  0.00  0.00    +0.379 N 
ATOM     24  C   UNL     1      29.008  18.848  22.828  0.00  0.00    -0.096 C 
ATOM     25  H   UNL     1      28.414  16.887  23.275  0.00  0.00    -0.082 HD
ATOM     26  C   UNL     1      27.066  17.662  21.801  0.00  0.00    -0.064 C 
ATOM     27  C   UNL     1      26.545  16.267  21.356  0.00  0.00    +0.066 C 
ENDBRANCH  19  20
ENDBRANCH  18  19
ENDBRANCH  14  15
ENDBRANCH  12  13
TORSDOF 6
ENDMDL
