MODEL 1
REMARK VINA RESULT:      -8.9      0.000      0.000
REMARK  Name = C:\Users\Docking\Desktop\test protocol\1iep_ligandH.pdb
REMARK  8 active torsions:
REMARK  status: ('A' for Active; 'I' for Inactive)
REMARK    1  A    between atoms: _5  and  _11
REMARK    2  A    between atoms: _19  and  _21
REMARK    3  A    between atoms: _22  and  _66
REMARK    4  A    between atoms: _27  and  _30
REMARK    5  A    between atoms: _32  and  _33
REMARK    6  A    between atoms: _38  and  _43
REMARK    7  A    between atoms: _43  and  _46
REMARK    8  A    between atoms: _53  and  _55
REMARK                            x       y       z     vdW  Elec       q    Type
REMARK                         _______ _______ _______ _____ _____    ______ ____
ROOT
ATOM     10  C   UNL     1      77.978  69.602  -3.027  0.00  0.00    +0.038 A 
ATOM     11  C   UNL     1      78.970  69.482  -2.020  0.00  0.00    +0.047 A 
ATOM     12  C   UNL     1      80.385  69.474  -2.355  0.00  0.00    +0.035 A 
ATOM     32  C   UNL     1      80.755  69.593  -3.727  0.00  0.00    +0.024 A 
ATOM     33  C   UNL     1      79.760  69.714  -4.763  0.00  0.00    +0.007 A 
ATOM     34  C   UNL     1      78.363  69.720  -4.438  0.00  0.00    -0.029 A 
ATOM     35  C   UNL     1      77.339  69.846  -5.591  0.00  0.00    +0.045 C 
ENDROOT
BRANCH  10   9
ATOM      4  C   UNL     1      73.899  71.872  -1.911  0.00  0.00    +0.077 A 
ATOM      5  C   UNL     1      74.505  73.163  -2.069  0.00  0.00    +0.048 A 
ATOM      6  C   UNL     1      75.870  73.199  -2.432  0.00  0.00    +0.116 A 
ATOM      7  N   UNL     1      76.567  72.025  -2.620  0.00  0.00    -0.223 NA
ATOM      8  C   UNL     1      75.953  70.797  -2.457  0.00  0.00    +0.220 A 
ATOM      9  N   UNL     1      76.634  69.604  -2.648  0.00  0.00    -0.283 N 
ATOM     36  H   UNL     1      76.147  68.719  -2.511  0.00  0.00    +0.155 HD
ATOM     37  N   UNL     1      74.651  70.736  -2.110  0.00  0.00    -0.214 NA
BRANCH   4   3
ATOM      1  C   UNL     1      70.133  72.515  -1.073  0.00  0.00    +0.020 A 
ATOM      2  C   UNL     1      71.507  72.765  -1.441  0.00  0.00    +0.013 A 
ATOM      3  C   UNL     1      72.464  71.669  -1.534  0.00  0.00    +0.019 A 
ATOM     38  C   UNL     1      71.994  70.323  -1.246  0.00  0.00    +0.120 A 
ATOM     39  N   UNL     1      70.665  70.113  -0.893  0.00  0.00    -0.263 NA
ATOM     40  C   UNL     1      69.735  71.159  -0.799  0.00  0.00    +0.111 A 
ENDBRANCH   4   3
ENDBRANCH  10   9
BRANCH  12  13
ATOM     13  N   UNL     1      81.437  69.347  -1.377  0.00  0.00    -0.281 N 
ATOM     14  C   UNL     1      81.571  70.027  -0.177  0.00  0.00    +0.248 C 
ATOM     30  O   UNL     1      80.913  71.008   0.138  0.00  0.00    -0.270 OA
ATOM     31  H   UNL     1      82.172  68.675  -1.596  0.00  0.00    +0.155 HD
BRANCH  14  15
ATOM     15  C   UNL     1      82.592  69.558   0.808  0.00  0.00    +0.037 A 
ATOM     16  C   UNL     1      82.611  70.066   2.182  0.00  0.00    +0.013 A 
ATOM     17  C   UNL     1      83.617  69.610   3.108  0.00  0.00    +0.005 A 
ATOM     18  C   UNL     1      84.613  68.638   2.662  0.00  0.00    -0.033 A 
ATOM     28  C   UNL     1      84.568  68.147   1.295  0.00  0.00    +0.005 A 
ATOM     29  C   UNL     1      83.583  68.593   0.384  0.00  0.00    +0.013 A 
BRANCH  18  19
ATOM     19  C   UNL     1      85.736  68.112   3.575  0.00  0.00    +0.119 C 
BRANCH  19  20
ATOM     20  N   UNL     1      86.379  66.820   3.193  0.00  0.00    -0.302 NA
ATOM     21  C   UNL     1      85.444  65.626   3.408  0.00  0.00    +0.066 C 
ATOM     22  C   UNL     1      86.125  64.285   2.982  0.00  0.00    -0.064 C 
ATOM     23  N   UNL     1      87.425  64.104   3.768  0.00  0.00    +0.379 N 
ATOM     24  C   UNL     1      88.038  62.816   3.412  0.00  0.00    -0.096 C 
ATOM     25  H   UNL     1      87.162  64.066   4.851  0.00  0.00    -0.082 HD
ATOM     26  C   UNL     1      88.359  65.287   3.562  0.00  0.00    -0.064 C 
ATOM     27  C   UNL     1      87.663  66.618   3.961  0.00  0.00    +0.066 C 
ENDBRANCH  19  20
ENDBRANCH  18  19
ENDBRANCH  14  15
ENDBRANCH  12  13
TORSDOF 6
ENDMDL
MODEL 2
REMARK VINA RESULT:      -8.4      2.280     13.113
REMARK  Name = C:\Users\Docking\Desktop\test protocol\1iep_ligandH.pdb
REMARK  8 active torsions:
REMARK  status: ('A' for Active; 'I' for Inactive)
REMARK    1  A    between atoms: _5  and  _11
REMARK    2  A    between atoms: _19  and  _21
REMARK    3  A    between atoms: _22  and  _66
REMARK    4  A    between atoms: _27  and  _30
REMARK    5  A    between atoms: _32  and  _33
REMARK    6  A    between atoms: _38  and  _43
REMARK    7  A    between atoms: _43  and  _46
REMARK    8  A    between atoms: _53  and  _55
REMARK                            x       y       z     vdW  Elec       q    Type
REMARK                         _______ _______ _______ _____ _____    ______ ____
ROOT
ATOM     10  C   UNL     1      80.087  69.048  -2.106  0.00  0.00    +0.038 A 
ATOM     11  C   UNL     1      78.818  69.475  -1.639  0.00  0.00    +0.047 A 
ATOM     12  C   UNL     1      77.832  70.037  -2.550  0.00  0.00    +0.035 A 
ATOM     32  C   UNL     1      78.171  70.145  -3.930  0.00  0.00    +0.024 A 
ATOM     33  C   UNL     1      79.457  69.716  -4.421  0.00  0.00    +0.007 A 
ATOM     34  C   UNL     1      80.435  69.164  -3.527  0.00  0.00    -0.029 A 
ATOM     35  C   UNL     1      81.800  68.727  -4.108  0.00  0.00    +0.045 C 
ENDROOT
BRANCH  10   9
ATOM      4  C   UNL     1      83.337  69.526   1.394  0.00  0.00    +0.077 A 
ATOM      5  C   UNL     1      83.236  70.957   1.373  0.00  0.00    +0.048 A 
ATOM      6  C   UNL     1      82.342  71.530   0.442  0.00  0.00    +0.116 A 
ATOM      7  N   UNL     1      81.608  70.724  -0.400  0.00  0.00    -0.223 NA
ATOM      8  C   UNL     1      81.730  69.347  -0.355  0.00  0.00    +0.220 A 
ATOM      9  N   UNL     1      80.996  68.516  -1.188  0.00  0.00    -0.283 N 
ATOM     36  H   UNL     1      81.121  67.506  -1.129  0.00  0.00    +0.155 HD
ATOM     37  N   UNL     1      82.579  68.775   0.524  0.00  0.00    -0.214 NA
BRANCH   4   3
ATOM      1  C   UNL     1      85.440  66.681   3.064  0.00  0.00    +0.020 A 
ATOM      2  C   UNL     1      84.566  67.363   2.137  0.00  0.00    +0.013 A 
ATOM      3  C   UNL     1      84.236  68.771   2.323  0.00  0.00    +0.019 A 
ATOM     38  C   UNL     1      84.812  69.465   3.466  0.00  0.00    +0.120 A 
ATOM     39  N   UNL     1      85.649  68.781   4.342  0.00  0.00    -0.263 NA
ATOM     40  C   UNL     1      85.972  67.426   4.174  0.00  0.00    +0.111 A 
ENDBRANCH   4   3
ENDBRANCH  10   9
BRANCH  12  13
ATOM     13  N   UNL     1      76.530  70.495  -2.133  0.00  0.00    -0.281 N 
ATOM     14  C   UNL     1      76.037  71.790  -2.149  0.00  0.00    +0.248 C 
ATOM     30  O   UNL     1      76.721  72.787  -2.327  0.00  0.00    -0.270 OA
ATOM     31  H   UNL     1      75.894  69.778  -1.783  0.00  0.00    +0.155 HD
BRANCH  14  15
ATOM     15  C   UNL     1      74.577  72.010  -1.921  0.00  0.00    +0.037 A 
ATOM     16  C   UNL     1      74.043  73.347  -1.651  0.00  0.00    +0.013 A 
ATOM     17  C   UNL     1      72.632  73.528  -1.418  0.00  0.00    +0.005 A 
ATOM     18  C   UNL     1      71.744  72.368  -1.456  0.00  0.00    -0.033 A 
ATOM     28  C   UNL     1      72.300  71.054  -1.731  0.00  0.00    +0.005 A 
ATOM     29  C   UNL     1      73.683  70.872  -1.959  0.00  0.00    +0.013 A 
BRANCH  18  19
ATOM     19  C   UNL     1      70.229  72.466  -1.198  0.00  0.00    +0.119 C 
BRANCH  19  20
ATOM     20  N   UNL     1      69.702  73.773  -0.704  0.00  0.00    -0.302 NA
ATOM     21  C   UNL     1      68.526  73.591   0.259  0.00  0.00    +0.066 C 
ATOM     22  C   UNL     1      68.001  74.968   0.784  0.00  0.00    -0.064 C 
ATOM     23  N   UNL     1      67.599  75.843  -0.405  0.00  0.00    +0.379 N 
ATOM     24  C   UNL     1      67.051  77.116   0.087  0.00  0.00    -0.096 C 
ATOM     25  H   UNL     1      66.785  75.314  -0.953  0.00  0.00    -0.082 HD
ATOM     26  C   UNL     1      68.762  76.027  -1.369  0.00  0.00    -0.064 C 
ATOM     27  C   UNL     1      69.294  74.652  -1.861  0.00  0.00    +0.066 C 
ENDBRANCH  19  20
ENDBRANCH  18  19
ENDBRANCH  14  15
ENDBRANCH  12  13
TORSDOF 6
ENDMDL
MODEL 3
REMARK VINA RESULT:      -8.3      4.639     15.537
REMARK  Name = C:\Users\Docking\Desktop\test protocol\1iep_ligandH.pdb
REMARK  8 active torsions:
REMARK  status: ('A' for Active; 'I' for Inactive)
REMARK    1  A    between atoms: _5  and  _11
REMARK    2  A    between atoms: _19  and  _21
REMARK    3  A    between atoms: _22  and  _66
REMARK    4  A    between atoms: _27  and  _30
REMARK    5  A    between atoms: _32  and  _33
REMARK    6  A    between atoms: _38  and  _43
REMARK    7  A    between atoms: _43  and  _46
REMARK    8  A    between atoms: _53  and  _55
REMARK                            x       y       z     vdW  Elec       q    Type
REMARK                         _______ _______ _______ _____ _____    ______ ____
ROOT
ATOM     10  C   UNL     1      88.358  61.505   1.262  0.00  0.00    +0.038 A 
ATOM     11  C   UNL     1      87.744  62.771   1.081  0.00  0.00    +0.047 A 
ATOM     12  C   UNL     1      86.450  63.071   1.673  0.00  0.00    +0.035 A 
ATOM     32  C   UNL     1      85.810  62.059   2.446  0.00  0.00    +0.024 A 
ATOM     33  C   UNL     1      86.419  60.766   2.640  0.00  0.00    +0.007 A 
ATOM     34  C   UNL     1      87.695  60.464   2.056  0.00  0.00    -0.029 A 
ATOM     35  C   UNL     1      88.298  59.059   2.290  0.00  0.00    +0.045 C 
ENDROOT
BRANCH  10   9
ATOM      4  C   UNL     1      93.091  62.231   0.931  0.00  0.00    +0.077 A 
ATOM      5  C   UNL     1      93.081  63.177   2.009  0.00  0.00    +0.048 A 
ATOM      6  C   UNL     1      91.837  63.454   2.618  0.00  0.00    +0.116 A 
ATOM      7  N   UNL     1      90.693  62.826   2.173  0.00  0.00    -0.223 NA
ATOM      8  C   UNL     1      90.738  61.920   1.129  0.00  0.00    +0.220 A 
ATOM      9  N   UNL     1      89.602  61.271   0.670  0.00  0.00    -0.283 N 
ATOM     36  H   UNL     1      89.675  60.616  -0.107  0.00  0.00    +0.155 HD
ATOM     37  N   UNL     1      91.914  61.640   0.530  0.00  0.00    -0.214 NA
BRANCH   4   3
ATOM      1  C   UNL     1      95.936  60.110  -0.715  0.00  0.00    +0.020 A 
ATOM      2  C   UNL     1      94.731  60.442   0.011  0.00  0.00    +0.013 A 
ATOM      3  C   UNL     1      94.329  61.831   0.189  0.00  0.00    +0.019 A 
ATOM     38  C   UNL     1      95.173  62.869  -0.384  0.00  0.00    +0.120 A 
ATOM     39  N   UNL     1      96.328  62.519  -1.076  0.00  0.00    -0.263 NA
ATOM     40  C   UNL     1      96.727  61.185  -1.253  0.00  0.00    +0.111 A 
ENDBRANCH   4   3
ENDBRANCH  10   9
BRANCH  12  13
ATOM     13  N   UNL     1      85.774  64.335   1.517  0.00  0.00    -0.281 N 
ATOM     14  C   UNL     1      85.806  65.428   2.367  0.00  0.00    +0.248 C 
ATOM     30  O   UNL     1      86.253  65.407   3.504  0.00  0.00    -0.270 OA
ATOM     31  H   UNL     1      85.203  64.436   0.678  0.00  0.00    +0.155 HD
BRANCH  14  15
ATOM     15  C   UNL     1      85.247  66.730   1.891  0.00  0.00    +0.037 A 
ATOM     16  C   UNL     1      84.465  67.592   2.780  0.00  0.00    +0.013 A 
ATOM     17  C   UNL     1      83.923  68.835   2.290  0.00  0.00    +0.005 A 
ATOM     18  C   UNL     1      84.164  69.223   0.902  0.00  0.00    -0.033 A 
ATOM     28  C   UNL     1      84.948  68.351   0.043  0.00  0.00    +0.005 A 
ATOM     29  C   UNL     1      85.480  67.132   0.520  0.00  0.00    +0.013 A 
BRANCH  18  19
ATOM     19  C   UNL     1      83.606  70.521   0.288  0.00  0.00    +0.119 C 
BRANCH  19  20
ATOM     20  N   UNL     1      82.154  70.545  -0.059  0.00  0.00    -0.302 NA
ATOM     21  C   UNL     1      81.663  69.187  -0.569  0.00  0.00    +0.066 C 
ATOM     22  C   UNL     1      80.136  69.223  -0.905  0.00  0.00    -0.064 C 
ATOM     23  N   UNL     1      79.871  70.319  -1.939  0.00  0.00    +0.379 N 
ATOM     24  C   UNL     1      78.446  70.317  -2.301  0.00  0.00    -0.096 C 
ATOM     25  H   UNL     1      80.453  70.066  -2.856  0.00  0.00    -0.082 HD
ATOM     26  C   UNL     1      80.358  71.672  -1.441  0.00  0.00    -0.064 C 
ATOM     27  C   UNL     1      81.870  71.617  -1.082  0.00  0.00    +0.066 C 
ENDBRANCH  19  20
ENDBRANCH  18  19
ENDBRANCH  14  15
ENDBRANCH  12  13
TORSDOF 6
ENDMDL
MODEL 4
REMARK VINA RESULT:      -8.3      4.907     14.035
REMARK  Name = C:\Users\Docking\Desktop\test protocol\1iep_ligandH.pdb
REMARK  8 active torsions:
REMARK  status: ('A' for Active; 'I' for Inactive)
REMARK    1  A    between atoms: _5  and  _11
REMARK    2  A    between atoms: _19  and  _21
REMARK    3  A    between atoms: _22  and  _66
REMARK    4  A    between atoms: _27  and  _30
REMARK    5  A    between atoms: _32  and  _33
REMARK    6  A    between atoms: _38  and  _43
REMARK    7  A    between atoms: _43  and  _46
REMARK    8  A    between atoms: _53  and  _55
REMARK                            x       y       z     vdW  Elec       q    Type
REMARK                         _______ _______ _______ _____ _____    ______ ____
ROOT
ATOM     10  C   UNL     1      89.103  63.505   1.379  0.00  0.00    +0.038 A 
ATOM     11  C   UNL     1      87.898  64.248   1.286  0.00  0.00    +0.047 A 
ATOM     12  C   UNL     1      87.839  65.640   1.703  0.00  0.00    +0.035 A 
ATOM     32  C   UNL     1      89.026  66.246   2.207  0.00  0.00    +0.024 A 
ATOM     33  C   UNL     1      90.259  65.506   2.309  0.00  0.00    +0.007 A 
ATOM     34  C   UNL     1      90.323  64.131   1.902  0.00  0.00    -0.029 A 
ATOM     35  C   UNL     1      91.671  63.385   2.040  0.00  0.00    +0.045 C 
ENDROOT
BRANCH  10   9
ATOM      4  C   UNL     1      87.656  58.947   1.783  0.00  0.00    +0.077 A 
ATOM      5  C   UNL     1      86.852  59.242   2.934  0.00  0.00    +0.048 A 
ATOM      6  C   UNL     1      86.843  60.578   3.394  0.00  0.00    +0.116 A 
ATOM      7  N   UNL     1      87.587  61.539   2.744  0.00  0.00    -0.223 NA
ATOM      8  C   UNL     1      88.354  61.220   1.638  0.00  0.00    +0.220 A 
ATOM      9  N   UNL     1      89.104  62.172   0.965  0.00  0.00    -0.283 N 
ATOM     36  H   UNL     1      89.662  61.895   0.157  0.00  0.00    +0.155 HD
ATOM     37  N   UNL     1      88.380  59.951   1.180  0.00  0.00    -0.214 NA
BRANCH   4   3
ATOM      1  C   UNL     1      86.765  55.468   0.232  0.00  0.00    +0.020 A 
ATOM      2  C   UNL     1      86.604  56.780   0.817  0.00  0.00    +0.013 A 
ATOM      3  C   UNL     1      87.766  57.583   1.176  0.00  0.00    +0.019 A 
ATOM     38  C   UNL     1      89.087  57.026   0.927  0.00  0.00    +0.120 A 
ATOM     39  N   UNL     1      89.211  55.760   0.364  0.00  0.00    -0.263 NA
ATOM     40  C   UNL     1      88.100  54.977   0.016  0.00  0.00    +0.111 A 
ENDBRANCH   4   3
ENDBRANCH  10   9
BRANCH  12  13
ATOM     13  N   UNL     1      86.642  66.442   1.639  0.00  0.00    -0.281 N 
ATOM     14  C   UNL     1      85.806  66.809   2.681  0.00  0.00    +0.248 C 
ATOM     30  O   UNL     1      85.845  66.323   3.802  0.00  0.00    -0.270 OA
ATOM     31  H   UNL     1      86.379  66.780   0.713  0.00  0.00    +0.155 HD
BRANCH  14  15
ATOM     15  C   UNL     1      84.769  67.858   2.440  0.00  0.00    +0.037 A 
ATOM     16  C   UNL     1      84.292  68.719   3.525  0.00  0.00    +0.013 A 
ATOM     17  C   UNL     1      83.279  69.711   3.269  0.00  0.00    +0.005 A 
ATOM     18  C   UNL     1      82.736  69.849   1.920  0.00  0.00    -0.033 A 
ATOM     28  C   UNL     1      83.230  68.985   0.861  0.00  0.00    +0.005 A 
ATOM     29  C   UNL     1      84.223  68.010   1.108  0.00  0.00    +0.013 A 
BRANCH  18  19
ATOM     19  C   UNL     1      81.637  70.866   1.560  0.00  0.00    +0.119 C 
BRANCH  19  20
ATOM     20  N   UNL     1      81.200  70.925   0.133  0.00  0.00    -0.302 NA
ATOM     21  C   UNL     1      80.501  69.636  -0.308  0.00  0.00    +0.066 C 
ATOM     22  C   UNL     1      80.031  69.724  -1.796  0.00  0.00    -0.064 C 
ATOM     23  N   UNL     1      81.236  70.020  -2.692  0.00  0.00    +0.379 N 
ATOM     24  C   UNL     1      80.807  70.045  -4.098  0.00  0.00    -0.096 C 
ATOM     25  H   UNL     1      81.959  69.180  -2.574  0.00  0.00    -0.082 HD
ATOM     26  C   UNL     1      81.938  71.299  -2.259  0.00  0.00    -0.064 C 
ATOM     27  C   UNL     1      82.375  71.212  -0.769  0.00  0.00    +0.066 C 
ENDBRANCH  19  20
ENDBRANCH  18  19
ENDBRANCH  14  15
ENDBRANCH  12  13
TORSDOF 6
ENDMDL
MODEL 5
REMARK VINA RESULT:      -8.2      2.435     13.557
REMARK  Name = C:\Users\Docking\Desktop\test protocol\1iep_ligandH.pdb
REMARK  8 active torsions:
REMARK  status: ('A' for Active; 'I' for Inactive)
REMARK    1  A    between atoms: _5  and  _11
REMARK    2  A    between atoms: _19  and  _21
REMARK    3  A    between atoms: _22  and  _66
REMARK    4  A    between atoms: _27  and  _30
REMARK    5  A    between atoms: _32  and  _33
REMARK    6  A    between atoms: _38  and  _43
REMARK    7  A    between atoms: _43  and  _46
REMARK    8  A    between atoms: _53  and  _55
REMARK                            x       y       z     vdW  Elec       q    Type
REMARK                         _______ _______ _______ _____ _____    ______ ____
ROOT
ATOM     10  C   UNL     1      85.154  67.550   2.544  0.00  0.00    +0.038 A 
ATOM     11  C   UNL     1      84.246  67.846   1.495  0.00  0.00    +0.047 A 
ATOM     12  C   UNL     1      83.336  68.977   1.584  0.00  0.00    +0.035 A 
ATOM     32  C   UNL     1      83.379  69.789   2.755  0.00  0.00    +0.024 A 
ATOM     33  C   UNL     1      84.295  69.502   3.831  0.00  0.00    +0.007 A 
ATOM     34  C   UNL     1      85.193  68.386   3.750  0.00  0.00    -0.029 A 
ATOM     35  C   UNL     1      86.148  68.122   4.937  0.00  0.00    +0.045 C 
ENDROOT
BRANCH  10   9
ATOM      4  C   UNL     1      89.294  65.550   1.169  0.00  0.00    +0.077 A 
ATOM      5  C   UNL     1      89.793  66.794   0.657  0.00  0.00    +0.048 A 
ATOM      6  C   UNL     1      88.950  67.923   0.760  0.00  0.00    +0.116 A 
ATOM      7  N   UNL     1      87.703  67.805   1.335  0.00  0.00    -0.223 NA
ATOM      8  C   UNL     1      87.252  66.591   1.818  0.00  0.00    +0.220 A 
ATOM      9  N   UNL     1      86.005  66.451   2.407  0.00  0.00    -0.283 N 
ATOM     36  H   UNL     1      85.706  65.536   2.743  0.00  0.00    +0.155 HD
ATOM     37  N   UNL     1      88.037  65.497   1.729  0.00  0.00    -0.214 NA
BRANCH   4   3
ATOM      1  C   UNL     1      92.040  62.830   1.773  0.00  0.00    +0.020 A 
ATOM      2  C   UNL     1      91.332  64.088   1.837  0.00  0.00    +0.013 A 
ATOM      3  C   UNL     1      90.068  64.269   1.135  0.00  0.00    +0.019 A 
ATOM     38  C   UNL     1      89.542  63.147   0.371  0.00  0.00    +0.120 A 
ATOM     39  N   UNL     1      90.246  61.948   0.326  0.00  0.00    -0.263 NA
ATOM     40  C   UNL     1      91.464  61.763   0.996  0.00  0.00    +0.111 A 
ENDBRANCH   4   3
ENDBRANCH  10   9
BRANCH  12  13
ATOM     13  N   UNL     1      82.387  69.321   0.554  0.00  0.00    -0.281 N 
ATOM     14  C   UNL     1      82.612  69.433  -0.808  0.00  0.00    +0.248 C 
ATOM     30  O   UNL     1      83.719  69.463  -1.326  0.00  0.00    -0.270 OA
ATOM     31  H   UNL     1      81.434  69.504   0.867  0.00  0.00    +0.155 HD
BRANCH  14  15
ATOM     15  C   UNL     1      81.439  69.542  -1.728  0.00  0.00    +0.037 A 
ATOM     16  C   UNL     1      81.618  69.689  -3.174  0.00  0.00    +0.013 A 
ATOM     17  C   UNL     1      80.469  69.810  -4.037  0.00  0.00    +0.005 A 
ATOM     18  C   UNL     1      79.130  69.782  -3.453  0.00  0.00    -0.033 A 
ATOM     28  C   UNL     1      78.981  69.630  -2.015  0.00  0.00    +0.005 A 
ATOM     29  C   UNL     1      80.105  69.513  -1.167  0.00  0.00    +0.013 A 
BRANCH  18  19
ATOM     19  C   UNL     1      77.848  69.925  -4.295  0.00  0.00    +0.119 C 
BRANCH  19  20
ATOM     20  N   UNL     1      76.571  69.451  -3.683  0.00  0.00    -0.302 NA
ATOM     21  C   UNL     1      76.003  68.230  -4.411  0.00  0.00    +0.066 C 
ATOM     22  C   UNL     1      74.680  67.733  -3.744  0.00  0.00    -0.064 C 
ATOM     23  N   UNL     1      73.662  68.875  -3.725  0.00  0.00    +0.379 N 
ATOM     24  C   UNL     1      72.396  68.394  -3.150  0.00  0.00    -0.096 C 
ATOM     25  H   UNL     1      73.463  69.168  -4.782  0.00  0.00    -0.082 HD
ATOM     26  C   UNL     1      74.219  70.094  -3.004  0.00  0.00    -0.064 C 
ATOM     27  C   UNL     1      75.550  70.561  -3.658  0.00  0.00    +0.066 C 
ENDBRANCH  19  20
ENDBRANCH  18  19
ENDBRANCH  14  15
ENDBRANCH  12  13
TORSDOF 6
ENDMDL
