MODEL 1
REMARK VINA RESULT:      -8.8      0.000      0.000
REMARK  Name = C:\Users\Docking\Desktop\test protocol\1iep_ligandH.pdb
REMARK  8 active torsions:
REMARK  status: ('A' for Active; 'I' for Inactive)
REMARK    1  A    between atoms: _5  and  _11
REMARK    2  A    between atoms: _19  and  _21
REMARK    3  A    between atoms: _22  and  _66
REMARK    4  A    between atoms: _27  and  _30
REMARK    5  A    between atoms: _32  and  _33
REMARK    6  A    between atoms: _38  and  _43
REMARK    7  A    between atoms: _43  and  _46
REMARK    8  A    between atoms: _53  and  _55
REMARK                            x       y       z     vdW  Elec       q    Type
REMARK                         _______ _______ _______ _____ _____    ______ ____
ROOT
ATOM     10  C   UNL     1      77.821  69.631  -2.978  0.00  0.00    +0.038 A 
ATOM     11  C   UNL     1      78.810  69.474  -1.975  0.00  0.00    +0.047 A 
ATOM     12  C   UNL     1      80.225  69.444  -2.311  0.00  0.00    +0.035 A 
ATOM     32  C   UNL     1      80.597  69.579  -3.681  0.00  0.00    +0.024 A 
ATOM     33  C   UNL     1      79.604  69.738  -4.714  0.00  0.00    +0.007 A 
ATOM     34  C   UNL     1      78.207  69.766  -4.388  0.00  0.00    -0.029 A 
ATOM     35  C   UNL     1      77.186  69.932  -5.538  0.00  0.00    +0.045 C 
ENDROOT
BRANCH  10   9
ATOM      4  C   UNL     1      73.777  71.961  -1.859  0.00  0.00    +0.077 A 
ATOM      5  C   UNL     1      74.401  73.242  -2.018  0.00  0.00    +0.048 A 
ATOM      6  C   UNL     1      75.767  73.258  -2.381  0.00  0.00    +0.116 A 
ATOM      7  N   UNL     1      76.446  72.075  -2.570  0.00  0.00    -0.223 NA
ATOM      8  C   UNL     1      75.814  70.856  -2.407  0.00  0.00    +0.220 A 
ATOM      9  N   UNL     1      76.477  69.653  -2.599  0.00  0.00    -0.283 N 
ATOM     36  H   UNL     1      75.977  68.775  -2.461  0.00  0.00    +0.155 HD
ATOM     37  N   UNL     1      74.512  70.814  -2.058  0.00  0.00    -0.214 NA
BRANCH   4   3
ATOM      1  C   UNL     1      70.006  72.650  -1.080  0.00  0.00    +0.020 A 
ATOM      2  C   UNL     1      71.383  72.879  -1.452  0.00  0.00    +0.013 A 
ATOM      3  C   UNL     1      72.339  71.779  -1.481  0.00  0.00    +0.019 A 
ATOM     38  C   UNL     1      71.866  70.450  -1.126  0.00  0.00    +0.120 A 
ATOM     39  N   UNL     1      70.534  70.260  -0.770  0.00  0.00    -0.263 NA
ATOM     40  C   UNL     1      69.605  71.310  -0.737  0.00  0.00    +0.111 A 
ENDBRANCH   4   3
ENDBRANCH  10   9
BRANCH  12  13
ATOM     13  N   UNL     1      81.275  69.279  -1.336  0.00  0.00    -0.281 N 
ATOM     14  C   UNL     1      81.580  70.104  -0.266  0.00  0.00    +0.248 C 
ATOM     30  O   UNL     1      81.129  71.229  -0.110  0.00  0.00    -0.270 OA
ATOM     31  H   UNL     1      81.864  68.454  -1.448  0.00  0.00    +0.155 HD
BRANCH  14  15
ATOM     15  C   UNL     1      82.537  69.615   0.773  0.00  0.00    +0.037 A 
ATOM     16  C   UNL     1      82.495  70.126   2.145  0.00  0.00    +0.013 A 
ATOM     17  C   UNL     1      83.440  69.649   3.124  0.00  0.00    +0.005 A 
ATOM     18  C   UNL     1      84.436  68.655   2.732  0.00  0.00    -0.033 A 
ATOM     28  C   UNL     1      84.452  68.161   1.365  0.00  0.00    +0.005 A 
ATOM     29  C   UNL     1      83.528  68.627   0.403  0.00  0.00    +0.013 A 
BRANCH  18  19
ATOM     19  C   UNL     1      85.497  68.106   3.704  0.00  0.00    +0.119 C 
BRANCH  19  20
ATOM     20  N   UNL     1      86.244  66.884   3.282  0.00  0.00    -0.302 NA
ATOM     21  C   UNL     1      85.395  65.617   3.415  0.00  0.00    +0.066 C 
ATOM     22  C   UNL     1      86.185  64.351   2.947  0.00  0.00    -0.064 C 
ATOM     23  N   UNL     1      87.473  64.227   3.763  0.00  0.00    +0.379 N 
ATOM     24  C   UNL     1      88.189  63.006   3.366  0.00  0.00    -0.096 C 
ATOM     25  H   UNL     1      87.185  64.118   4.834  0.00  0.00    -0.082 HD
ATOM     26  C   UNL     1      88.322  65.484   3.639  0.00  0.00    -0.064 C 
ATOM     27  C   UNL     1      87.518  66.740   4.078  0.00  0.00    +0.066 C 
ENDBRANCH  19  20
ENDBRANCH  18  19
ENDBRANCH  14  15
ENDBRANCH  12  13
TORSDOF 6
ENDMDL
MODEL 2
REMARK VINA RESULT:      -8.3      4.662     15.500
REMARK  Name = C:\Users\Docking\Desktop\test protocol\1iep_ligandH.pdb
REMARK  8 active torsions:
REMARK  status: ('A' for Active; 'I' for Inactive)
REMARK    1  A    between atoms: _5  and  _11
REMARK    2  A    between atoms: _19  and  _21
REMARK    3  A    between atoms: _22  and  _66
REMARK    4  A    between atoms: _27  and  _30
REMARK    5  A    between atoms: _32  and  _33
REMARK    6  A    between atoms: _38  and  _43
REMARK    7  A    between atoms: _43  and  _46
REMARK    8  A    between atoms: _53  and  _55
REMARK                            x       y       z     vdW  Elec       q    Type
REMARK                         _______ _______ _______ _____ _____    ______ ____
ROOT
ATOM     10  C   UNL     1      88.433  61.610   1.383  0.00  0.00    +0.038 A 
ATOM     11  C   UNL     1      87.749  62.849   1.474  0.00  0.00    +0.047 A 
ATOM     12  C   UNL     1      86.556  62.992   2.295  0.00  0.00    +0.035 A 
ATOM     32  C   UNL     1      86.090  61.852   3.013  0.00  0.00    +0.024 A 
ATOM     33  C   UNL     1      86.773  60.585   2.931  0.00  0.00    +0.007 A 
ATOM     34  C   UNL     1      87.948  60.438   2.120  0.00  0.00    -0.029 A 
ATOM     35  C   UNL     1      88.636  59.054   2.065  0.00  0.00    +0.045 C 
ENDROOT
BRANCH  10   9
ATOM      4  C   UNL     1      93.066  62.508   0.508  0.00  0.00    +0.077 A 
ATOM      5  C   UNL     1      93.223  63.220   1.744  0.00  0.00    +0.048 A 
ATOM      6  C   UNL     1      92.085  63.339   2.573  0.00  0.00    +0.116 A 
ATOM      7  N   UNL     1      90.885  62.783   2.185  0.00  0.00    -0.223 NA
ATOM      8  C   UNL     1      90.768  62.104   0.986  0.00  0.00    +0.220 A 
ATOM      9  N   UNL     1      89.573  61.530   0.580  0.00  0.00    -0.283 N 
ATOM     36  H   UNL     1      89.526  61.044  -0.315  0.00  0.00    +0.155 HD
ATOM     37  N   UNL     1      91.840  61.978   0.176  0.00  0.00    -0.214 NA
BRANCH   4   3
ATOM      1  C   UNL     1      96.203  61.055  -1.322  0.00  0.00    +0.020 A 
ATOM      2  C   UNL     1      95.150  61.217  -0.347  0.00  0.00    +0.013 A 
ATOM      3  C   UNL     1      94.177  62.295  -0.473  0.00  0.00    +0.019 A 
ATOM     38  C   UNL     1      94.298  63.198  -1.607  0.00  0.00    +0.120 A 
ATOM     39  N   UNL     1      95.324  63.018  -2.530  0.00  0.00    -0.263 NA
ATOM     40  C   UNL     1      96.267  61.985  -2.418  0.00  0.00    +0.111 A 
ENDBRANCH   4   3
ENDBRANCH  10   9
BRANCH  12  13
ATOM     13  N   UNL     1      85.815  64.222   2.420  0.00  0.00    -0.281 N 
ATOM     14  C   UNL     1      86.214  65.398   3.033  0.00  0.00    +0.248 C 
ATOM     30  O   UNL     1      87.192  65.502   3.759  0.00  0.00    -0.270 OA
ATOM     31  H   UNL     1      84.883  64.227   2.005  0.00  0.00    +0.155 HD
BRANCH  14  15
ATOM     15  C   UNL     1      85.401  66.635   2.822  0.00  0.00    +0.037 A 
ATOM     16  C   UNL     1      84.910  67.424   3.955  0.00  0.00    +0.013 A 
ATOM     17  C   UNL     1      84.113  68.603   3.724  0.00  0.00    +0.005 A 
ATOM     18  C   UNL     1      83.804  69.001   2.352  0.00  0.00    -0.033 A 
ATOM     28  C   UNL     1      84.309  68.202   1.247  0.00  0.00    +0.005 A 
ATOM     29  C   UNL     1      85.089  67.046   1.470  0.00  0.00    +0.013 A 
BRANCH  18  19
ATOM     19  C   UNL     1      82.944  70.232   2.012  0.00  0.00    +0.119 C 
BRANCH  19  20
ATOM     20  N   UNL     1      82.264  70.245   0.683  0.00  0.00    -0.302 NA
ATOM     21  C   UNL     1      81.669  71.618   0.356  0.00  0.00    +0.066 C 
ATOM     22  C   UNL     1      80.981  71.620  -1.049  0.00  0.00    -0.064 C 
ATOM     23  N   UNL     1      79.901  70.538  -1.086  0.00  0.00    +0.379 N 
ATOM     24  C   UNL     1      79.213  70.576  -2.385  0.00  0.00    -0.096 C 
ATOM     25  H   UNL     1      79.150  70.782  -0.299  0.00  0.00    -0.082 HD
ATOM     26  C   UNL     1      80.484  69.170  -0.759  0.00  0.00    -0.064 C 
ATOM     27  C   UNL     1      81.190  69.187   0.625  0.00  0.00    +0.066 C 
ENDBRANCH  19  20
ENDBRANCH  18  19
ENDBRANCH  14  15
ENDBRANCH  12  13
TORSDOF 6
ENDMDL
MODEL 3
REMARK VINA RESULT:      -8.2      2.392     13.634
REMARK  Name = C:\Users\Docking\Desktop\test protocol\1iep_ligandH.pdb
REMARK  8 active torsions:
REMARK  status: ('A' for Active; 'I' for Inactive)
REMARK    1  A    between atoms: _5  and  _11
REMARK    2  A    between atoms: _19  and  _21
REMARK    3  A    between atoms: _22  and  _66
REMARK    4  A    between atoms: _27  and  _30
REMARK    5  A    between atoms: _32  and  _33
REMARK    6  A    between atoms: _38  and  _43
REMARK    7  A    between atoms: _43  and  _46
REMARK    8  A    between atoms: _53  and  _55
REMARK                            x       y       z     vdW  Elec       q    Type
REMARK                         _______ _______ _______ _____ _____    ______ ____
ROOT
ATOM     10  C   UNL     1      85.162  67.559   2.536  0.00  0.00    +0.038 A 
ATOM     11  C   UNL     1      84.246  67.850   1.493  0.00  0.00    +0.047 A 
ATOM     12  C   UNL     1      83.336  68.981   1.585  0.00  0.00    +0.035 A 
ATOM     32  C   UNL     1      83.388  69.797   2.753  0.00  0.00    +0.024 A 
ATOM     33  C   UNL     1      84.313  69.515   3.823  0.00  0.00    +0.007 A 
ATOM     34  C   UNL     1      85.211  68.399   3.739  0.00  0.00    -0.029 A 
ATOM     35  C   UNL     1      86.176  68.140   4.919  0.00  0.00    +0.045 C 
ENDROOT
BRANCH  10   9
ATOM      4  C   UNL     1      89.301  65.561   1.151  0.00  0.00    +0.077 A 
ATOM      5  C   UNL     1      89.799  66.805   0.640  0.00  0.00    +0.048 A 
ATOM      6  C   UNL     1      88.956  67.934   0.747  0.00  0.00    +0.116 A 
ATOM      7  N   UNL     1      87.710  67.816   1.324  0.00  0.00    -0.223 NA
ATOM      8  C   UNL     1      87.260  66.600   1.804  0.00  0.00    +0.220 A 
ATOM      9  N   UNL     1      86.013  66.460   2.395  0.00  0.00    -0.283 N 
ATOM     36  H   UNL     1      85.714  65.545   2.730  0.00  0.00    +0.155 HD
ATOM     37  N   UNL     1      88.045  65.507   1.713  0.00  0.00    -0.214 NA
BRANCH   4   3
ATOM      1  C   UNL     1      92.027  62.826   1.777  0.00  0.00    +0.020 A 
ATOM      2  C   UNL     1      91.319  64.084   1.846  0.00  0.00    +0.013 A 
ATOM      3  C   UNL     1      90.074  64.279   1.114  0.00  0.00    +0.019 A 
ATOM     38  C   UNL     1      89.569  63.173   0.314  0.00  0.00    +0.120 A 
ATOM     39  N   UNL     1      90.273  61.974   0.265  0.00  0.00    -0.263 NA
ATOM     40  C   UNL     1      91.472  61.775   0.965  0.00  0.00    +0.111 A 
ENDBRANCH   4   3
ENDBRANCH  10   9
BRANCH  12  13
ATOM     13  N   UNL     1      82.379  69.321   0.562  0.00  0.00    -0.281 N 
ATOM     14  C   UNL     1      82.599  69.460  -0.798  0.00  0.00    +0.248 C 
ATOM     30  O   UNL     1      83.705  69.523  -1.316  0.00  0.00    -0.270 OA
ATOM     31  H   UNL     1      81.422  69.478   0.880  0.00  0.00    +0.155 HD
BRANCH  14  15
ATOM     15  C   UNL     1      81.423  69.559  -1.714  0.00  0.00    +0.037 A 
ATOM     16  C   UNL     1      81.596  69.689  -3.163  0.00  0.00    +0.013 A 
ATOM     17  C   UNL     1      80.444  69.799  -4.023  0.00  0.00    +0.005 A 
ATOM     18  C   UNL     1      79.107  69.778  -3.435  0.00  0.00    -0.033 A 
ATOM     28  C   UNL     1      78.964  69.643  -1.995  0.00  0.00    +0.005 A 
ATOM     29  C   UNL     1      80.090  69.536  -1.149  0.00  0.00    +0.013 A 
BRANCH  18  19
ATOM     19  C   UNL     1      77.822  69.911  -4.273  0.00  0.00    +0.119 C 
BRANCH  19  20
ATOM     20  N   UNL     1      76.535  69.539  -3.615  0.00  0.00    -0.302 NA
ATOM     21  C   UNL     1      75.753  68.502  -4.428  0.00  0.00    +0.066 C 
ATOM     22  C   UNL     1      74.420  68.107  -3.714  0.00  0.00    -0.064 C 
ATOM     23  N   UNL     1      73.576  69.362  -3.483  0.00  0.00    +0.379 N 
ATOM     24  C   UNL     1      72.297  68.987  -2.865  0.00  0.00    -0.096 C 
ATOM     25  H   UNL     1      73.353  69.807  -4.481  0.00  0.00    -0.082 HD
ATOM     26  C   UNL     1      74.347  70.399  -2.679  0.00  0.00    -0.064 C 
ATOM     27  C   UNL     1      75.684  70.763  -3.382  0.00  0.00    +0.066 C 
ENDBRANCH  19  20
ENDBRANCH  18  19
ENDBRANCH  14  15
ENDBRANCH  12  13
TORSDOF 6
ENDMDL
MODEL 4
REMARK VINA RESULT:      -8.2      2.026     12.609
REMARK  Name = C:\Users\Docking\Desktop\test protocol\1iep_ligandH.pdb
REMARK  8 active torsions:
REMARK  status: ('A' for Active; 'I' for Inactive)
REMARK    1  A    between atoms: _5  and  _11
REMARK    2  A    between atoms: _19  and  _21
REMARK    3  A    between atoms: _22  and  _66
REMARK    4  A    between atoms: _27  and  _30
REMARK    5  A    between atoms: _32  and  _33
REMARK    6  A    between atoms: _38  and  _43
REMARK    7  A    between atoms: _43  and  _46
REMARK    8  A    between atoms: _53  and  _55
REMARK                            x       y       z     vdW  Elec       q    Type
REMARK                         _______ _______ _______ _____ _____    ______ ____
ROOT
ATOM     10  C   UNL     1      79.823  69.123  -2.403  0.00  0.00    +0.038 A 
ATOM     11  C   UNL     1      78.523  69.400  -1.908  0.00  0.00    +0.047 A 
ATOM     12  C   UNL     1      77.477  69.908  -2.782  0.00  0.00    +0.035 A 
ATOM     32  C   UNL     1      77.789  70.118  -4.157  0.00  0.00    +0.024 A 
ATOM     33  C   UNL     1      79.105  69.842  -4.677  0.00  0.00    +0.007 A 
ATOM     34  C   UNL     1      80.142  69.344  -3.818  0.00  0.00    -0.029 A 
ATOM     35  C   UNL     1      81.536  69.072  -4.429  0.00  0.00    +0.045 C 
ENDROOT
BRANCH  10   9
ATOM      4  C   UNL     1      82.882  69.688   1.252  0.00  0.00    +0.077 A 
ATOM      5  C   UNL     1      82.547  71.076   1.396  0.00  0.00    +0.048 A 
ATOM      6  C   UNL     1      81.588  71.607   0.504  0.00  0.00    +0.116 A 
ATOM      7  N   UNL     1      81.013  70.801  -0.455  0.00  0.00    -0.223 NA
ATOM      8  C   UNL     1      81.360  69.468  -0.567  0.00  0.00    +0.220 A 
ATOM      9  N   UNL     1      80.789  68.637  -1.519  0.00  0.00    -0.283 N 
ATOM     36  H   UNL     1      81.077  67.660  -1.574  0.00  0.00    +0.155 HD
ATOM     37  N   UNL     1      82.274  68.937   0.272  0.00  0.00    -0.214 NA
BRANCH   4   3
ATOM      1  C   UNL     1      85.285  66.981   2.734  0.00  0.00    +0.020 A 
ATOM      2  C   UNL     1      84.323  67.618   1.864  0.00  0.00    +0.013 A 
ATOM      3  C   UNL     1      83.875  68.981   2.121  0.00  0.00    +0.019 A 
ATOM     38  C   UNL     1      84.423  69.677   3.276  0.00  0.00    +0.120 A 
ATOM     39  N   UNL     1      85.347  69.037   4.096  0.00  0.00    -0.263 NA
ATOM     40  C   UNL     1      85.784  67.725   3.860  0.00  0.00    +0.111 A 
ENDBRANCH   4   3
ENDBRANCH  10   9
BRANCH  12  13
ATOM     13  N   UNL     1      76.141  70.215  -2.334  0.00  0.00    -0.281 N 
ATOM     14  C   UNL     1      75.559  71.463  -2.186  0.00  0.00    +0.248 C 
ATOM     30  O   UNL     1      76.173  72.520  -2.213  0.00  0.00    -0.270 OA
ATOM     31  H   UNL     1      75.554  69.415  -2.098  0.00  0.00    +0.155 HD
BRANCH  14  15
ATOM     15  C   UNL     1      74.084  71.550  -1.961  0.00  0.00    +0.037 A 
ATOM     16  C   UNL     1      73.425  72.838  -1.731  0.00  0.00    +0.013 A 
ATOM     17  C   UNL     1      72.003  72.891  -1.499  0.00  0.00    +0.005 A 
ATOM     18  C   UNL     1      71.230  71.651  -1.499  0.00  0.00    -0.033 A 
ATOM     28  C   UNL     1      71.909  70.388  -1.736  0.00  0.00    +0.005 A 
ATOM     29  C   UNL     1      73.302  70.332  -1.962  0.00  0.00    +0.013 A 
BRANCH  18  19
ATOM     19  C   UNL     1      69.712  71.612  -1.240  0.00  0.00    +0.119 C 
BRANCH  19  20
ATOM     20  N   UNL     1      69.255  71.780   0.171  0.00  0.00    -0.302 NA
ATOM     21  C   UNL     1      69.084  70.436   0.884  0.00  0.00    +0.066 C 
ATOM     22  C   UNL     1      68.627  70.631   2.366  0.00  0.00    -0.064 C 
ATOM     23  N   UNL     1      67.321  71.429   2.393  0.00  0.00    +0.379 N 
ATOM     24  C   UNL     1      66.858  71.564   3.782  0.00  0.00    -0.096 C 
ATOM     25  H   UNL     1      66.555  70.841   1.837  0.00  0.00    -0.082 HD
ATOM     26  C   UNL     1      67.482  72.766   1.684  0.00  0.00    -0.064 C 
ATOM     27  C   UNL     1      67.965  72.561   0.221  0.00  0.00    +0.066 C 
ENDBRANCH  19  20
ENDBRANCH  18  19
ENDBRANCH  14  15
ENDBRANCH  12  13
TORSDOF 6
ENDMDL
MODEL 5
REMARK VINA RESULT:      -8.2      2.266     13.143
REMARK  Name = C:\Users\Docking\Desktop\test protocol\1iep_ligandH.pdb
REMARK  8 active torsions:
REMARK  status: ('A' for Active; 'I' for Inactive)
REMARK    1  A    between atoms: _5  and  _11
REMARK    2  A    between atoms: _19  and  _21
REMARK    3  A    between atoms: _22  and  _66
REMARK    4  A    between atoms: _27  and  _30
REMARK    5  A    between atoms: _32  and  _33
REMARK    6  A    between atoms: _38  and  _43
REMARK    7  A    between atoms: _43  and  _46
REMARK    8  A    between atoms: _53  and  _55
REMARK                            x       y       z     vdW  Elec       q    Type
REMARK                         _______ _______ _______ _____ _____    ______ ____
ROOT
ATOM     10  C   UNL     1      79.678  69.091  -2.330  0.00  0.00    +0.038 A 
ATOM     11  C   UNL     1      78.409  69.481  -1.831  0.00  0.00    +0.047 A 
ATOM     12  C   UNL     1      77.383  70.012  -2.716  0.00  0.00    +0.035 A 
ATOM     32  C   UNL     1      77.683  70.128  -4.104  0.00  0.00    +0.024 A 
ATOM     33  C   UNL     1      78.968  69.736  -4.628  0.00  0.00    +0.007 A 
ATOM     34  C   UNL     1      79.984  69.215  -3.760  0.00  0.00    -0.029 A 
ATOM     35  C   UNL     1      81.346  68.817  -4.376  0.00  0.00    +0.045 C 
ENDROOT
BRANCH  10   9
ATOM      4  C   UNL     1      82.954  69.663   1.130  0.00  0.00    +0.077 A 
ATOM      5  C   UNL     1      82.783  71.087   1.139  0.00  0.00    +0.048 A 
ATOM      6  C   UNL     1      81.847  71.634   0.232  0.00  0.00    +0.116 A 
ATOM      7  N   UNL     1      81.140  70.808  -0.615  0.00  0.00    -0.223 NA
ATOM      8  C   UNL     1      81.331  69.438  -0.598  0.00  0.00    +0.220 A 
ATOM      9  N   UNL     1      80.625  68.588  -1.436  0.00  0.00    -0.283 N 
ATOM     36  H   UNL     1      80.800  67.584  -1.398  0.00  0.00    +0.155 HD
ATOM     37  N   UNL     1      82.220  68.892   0.257  0.00  0.00    -0.214 NA
BRANCH   4   3
ATOM      1  C   UNL     1      85.336  66.950   2.635  0.00  0.00    +0.020 A 
ATOM      2  C   UNL     1      84.422  67.608   1.731  0.00  0.00    +0.013 A 
ATOM      3  C   UNL     1      83.903  68.936   2.032  0.00  0.00    +0.019 A 
ATOM     38  C   UNL     1      84.334  69.577   3.265  0.00  0.00    +0.120 A 
ATOM     39  N   UNL     1      85.215  68.918   4.118  0.00  0.00    -0.263 NA
ATOM     40  C   UNL     1      85.719  67.639   3.839  0.00  0.00    +0.111 A 
ENDBRANCH   4   3
ENDBRANCH  10   9
BRANCH  12  13
ATOM     13  N   UNL     1      76.080  70.433  -2.265  0.00  0.00    -0.281 N 
ATOM     14  C   UNL     1      75.603  71.726  -2.127  0.00  0.00    +0.248 C 
ATOM     30  O   UNL     1      76.301  72.728  -2.168  0.00  0.00    -0.270 OA
ATOM     31  H   UNL     1      75.430  69.686  -2.018  0.00  0.00    +0.155 HD
BRANCH  14  15
ATOM     15  C   UNL     1      74.141  71.936  -1.896  0.00  0.00    +0.037 A 
ATOM     16  C   UNL     1      73.580  73.281  -1.749  0.00  0.00    +0.013 A 
ATOM     17  C   UNL     1      72.169  73.455  -1.510  0.00  0.00    +0.005 A 
ATOM     18  C   UNL     1      71.309  72.278  -1.419  0.00  0.00    -0.033 A 
ATOM     28  C   UNL     1      71.890  70.955  -1.574  0.00  0.00    +0.005 A 
ATOM     29  C   UNL     1      73.273  70.781  -1.807  0.00  0.00    +0.013 A 
BRANCH  18  19
ATOM     19  C   UNL     1      69.796  72.368  -1.145  0.00  0.00    +0.119 C 
BRANCH  19  20
ATOM     20  N   UNL     1      69.274  73.659  -0.606  0.00  0.00    -0.302 NA
ATOM     21  C   UNL     1      68.254  73.443   0.516  0.00  0.00    +0.066 C 
ATOM     22  C   UNL     1      67.735  74.804   1.084  0.00  0.00    -0.064 C 
ATOM     23  N   UNL     1      67.125  75.627  -0.051  0.00  0.00    +0.379 N 
ATOM     24  C   UNL     1      66.584  76.883   0.490  0.00  0.00    -0.096 C 
ATOM     25  H   UNL     1      66.272  75.045  -0.471  0.00  0.00    -0.082 HD
ATOM     26  C   UNL     1      68.131  75.845  -1.172  0.00  0.00    -0.064 C 
ATOM     27  C   UNL     1      68.663  74.487  -1.710  0.00  0.00    +0.066 C 
ENDBRANCH  19  20
ENDBRANCH  18  19
ENDBRANCH  14  15
ENDBRANCH  12  13
TORSDOF 6
ENDMDL
