MODEL 1
REMARK VINA RESULT:      -8.9      0.000      0.000
REMARK  Name = C:\Users\Docking\Desktop\test protocol\1iep_ligandH.pdb
REMARK  8 active torsions:
REMARK  status: ('A' for Active; 'I' for Inactive)
REMARK    1  A    between atoms: _5  and  _11
REMARK    2  A    between atoms: _19  and  _21
REMARK    3  A    between atoms: _22  and  _66
REMARK    4  A    between atoms: _27  and  _30
REMARK    5  A    between atoms: _32  and  _33
REMARK    6  A    between atoms: _38  and  _43
REMARK    7  A    between atoms: _43  and  _46
REMARK    8  A    between atoms: _53  and  _55
REMARK                            x       y       z     vdW  Elec       q    Type
REMARK                         _______ _______ _______ _____ _____    ______ ____
ROOT
ATOM     10  C   UNL     1      77.892  69.652  -2.964  0.00  0.00    +0.038 A 
ATOM     11  C   UNL     1      78.892  69.528  -1.965  0.00  0.00    +0.047 A 
ATOM     12  C   UNL     1      80.303  69.478  -2.314  0.00  0.00    +0.035 A 
ATOM     32  C   UNL     1      80.661  69.559  -3.691  0.00  0.00    +0.024 A 
ATOM     33  C   UNL     1      79.659  69.685  -4.720  0.00  0.00    +0.007 A 
ATOM     34  C   UNL     1      78.265  69.732  -4.381  0.00  0.00    -0.029 A 
ATOM     35  C   UNL     1      77.233  69.861  -5.526  0.00  0.00    +0.045 C 
ENDROOT
BRANCH  10   9
ATOM      4  C   UNL     1      73.875  72.044  -1.879  0.00  0.00    +0.077 A 
ATOM      5  C   UNL     1      74.507  73.316  -2.084  0.00  0.00    +0.048 A 
ATOM      6  C   UNL     1      75.869  73.311  -2.461  0.00  0.00    +0.116 A 
ATOM      7  N   UNL     1      76.539  72.117  -2.619  0.00  0.00    -0.223 NA
ATOM      8  C   UNL     1      75.900  70.908  -2.411  0.00  0.00    +0.220 A 
ATOM      9  N   UNL     1      76.553  69.696  -2.572  0.00  0.00    -0.283 N 
ATOM     36  H   UNL     1      76.048  68.826  -2.402  0.00  0.00    +0.155 HD
ATOM     37  N   UNL     1      74.601  70.886  -2.049  0.00  0.00    -0.214 NA
BRANCH   4   3
ATOM      1  C   UNL     1      70.477  70.508  -0.701  0.00  0.00    +0.020 A 
ATOM      2  C   UNL     1      71.868  70.607  -1.076  0.00  0.00    +0.013 A 
ATOM      3  C   UNL     1      72.441  71.885  -1.481  0.00  0.00    +0.019 A 
ATOM     38  C   UNL     1      71.572  73.052  -1.494  0.00  0.00    +0.120 A 
ATOM     39  N   UNL     1      70.235  72.925  -1.129  0.00  0.00    -0.263 NA
ATOM     40  C   UNL     1      69.673  71.701  -0.740  0.00  0.00    +0.111 A 
ENDBRANCH   4   3
ENDBRANCH  10   9
BRANCH  12  13
ATOM     13  N   UNL     1      81.361  69.344  -1.344  0.00  0.00    -0.281 N 
ATOM     14  C   UNL     1      81.552  70.079  -0.185  0.00  0.00    +0.248 C 
ATOM     30  O   UNL     1      80.956  71.111   0.085  0.00  0.00    -0.270 OA
ATOM     31  H   UNL     1      82.054  68.620  -1.535  0.00  0.00    +0.155 HD
BRANCH  14  15
ATOM     15  C   UNL     1      82.561  69.607   0.811  0.00  0.00    +0.037 A 
ATOM     16  C   UNL     1      82.564  70.112   2.187  0.00  0.00    +0.013 A 
ATOM     17  C   UNL     1      83.559  69.652   3.123  0.00  0.00    +0.005 A 
ATOM     18  C   UNL     1      84.559  68.680   2.687  0.00  0.00    -0.033 A 
ATOM     28  C   UNL     1      84.529  68.192   1.318  0.00  0.00    +0.005 A 
ATOM     29  C   UNL     1      83.556  68.641   0.397  0.00  0.00    +0.013 A 
BRANCH  18  19
ATOM     19  C   UNL     1      85.670  68.151   3.612  0.00  0.00    +0.119 C 
BRANCH  19  20
ATOM     20  N   UNL     1      86.334  66.871   3.222  0.00  0.00    -0.302 NA
ATOM     21  C   UNL     1      85.412  65.664   3.417  0.00  0.00    +0.066 C 
ATOM     22  C   UNL     1      86.114  64.336   2.983  0.00  0.00    -0.064 C 
ATOM     23  N   UNL     1      87.410  64.163   3.777  0.00  0.00    +0.379 N 
ATOM     24  C   UNL     1      88.042  62.887   3.413  0.00  0.00    -0.096 C 
ATOM     25  H   UNL     1      87.139  64.111   4.858  0.00  0.00    -0.082 HD
ATOM     26  C   UNL     1      88.330  65.361   3.590  0.00  0.00    -0.064 C 
ATOM     27  C   UNL     1      87.613  66.678   3.997  0.00  0.00    +0.066 C 
ENDBRANCH  19  20
ENDBRANCH  18  19
ENDBRANCH  14  15
ENDBRANCH  12  13
TORSDOF 6
ENDMDL
MODEL 2
REMARK VINA RESULT:      -8.6      0.664      1.284
REMARK  Name = C:\Users\Docking\Desktop\test protocol\1iep_ligandH.pdb
REMARK  8 active torsions:
REMARK  status: ('A' for Active; 'I' for Inactive)
REMARK    1  A    between atoms: _5  and  _11
REMARK    2  A    between atoms: _19  and  _21
REMARK    3  A    between atoms: _22  and  _66
REMARK    4  A    between atoms: _27  and  _30
REMARK    5  A    between atoms: _32  and  _33
REMARK    6  A    between atoms: _38  and  _43
REMARK    7  A    between atoms: _43  and  _46
REMARK    8  A    between atoms: _53  and  _55
REMARK                            x       y       z     vdW  Elec       q    Type
REMARK                         _______ _______ _______ _____ _____    ______ ____
ROOT
ATOM     10  C   UNL     1      77.447  69.909  -3.146  0.00  0.00    +0.038 A 
ATOM     11  C   UNL     1      78.468  69.720  -2.180  0.00  0.00    +0.047 A 
ATOM     12  C   UNL     1      79.859  69.565  -2.576  0.00  0.00    +0.035 A 
ATOM     32  C   UNL     1      80.175  69.610  -3.965  0.00  0.00    +0.024 A 
ATOM     33  C   UNL     1      79.150  69.801  -4.960  0.00  0.00    +0.007 A 
ATOM     34  C   UNL     1      77.776  69.952  -4.576  0.00  0.00    -0.029 A 
ATOM     35  C   UNL     1      76.718  70.146  -5.687  0.00  0.00    +0.045 C 
ENDROOT
BRANCH  10   9
ATOM      4  C   UNL     1      73.671  72.595  -1.894  0.00  0.00    +0.077 A 
ATOM      5  C   UNL     1      74.396  73.816  -2.100  0.00  0.00    +0.048 A 
ATOM      6  C   UNL     1      75.741  73.709  -2.522  0.00  0.00    +0.116 A 
ATOM      7  N   UNL     1      76.307  72.468  -2.719  0.00  0.00    -0.223 NA
ATOM      8  C   UNL     1      75.580  71.311  -2.510  0.00  0.00    +0.220 A 
ATOM      9  N   UNL     1      76.128  70.053  -2.710  0.00  0.00    -0.283 N 
ATOM     36  H   UNL     1      75.561  69.223  -2.538  0.00  0.00    +0.155 HD
ATOM     37  N   UNL     1      74.295  71.386  -2.106  0.00  0.00    -0.214 NA
BRANCH   4   3
ATOM      1  C   UNL     1      70.018  73.622  -0.945  0.00  0.00    +0.020 A 
ATOM      2  C   UNL     1      71.393  73.726  -1.378  0.00  0.00    +0.013 A 
ATOM      3  C   UNL     1      72.242  72.544  -1.453  0.00  0.00    +0.019 A 
ATOM     38  C   UNL     1      71.664  71.261  -1.081  0.00  0.00    +0.120 A 
ATOM     39  N   UNL     1      70.338  71.192  -0.666  0.00  0.00    -0.263 NA
ATOM     40  C   UNL     1      69.512  72.323  -0.589  0.00  0.00    +0.111 A 
ENDBRANCH   4   3
ENDBRANCH  10   9
BRANCH  12  13
ATOM     13  N   UNL     1      80.937  69.363  -1.640  0.00  0.00    -0.281 N 
ATOM     14  C   UNL     1      81.310  70.175  -0.581  0.00  0.00    +0.248 C 
ATOM     30  O   UNL     1      80.903  71.314  -0.408  0.00  0.00    -0.270 OA
ATOM     31  H   UNL     1      81.493  68.518  -1.775  0.00  0.00    +0.155 HD
BRANCH  14  15
ATOM     15  C   UNL     1      82.287  69.651   0.421  0.00  0.00    +0.037 A 
ATOM     16  C   UNL     1      83.299  68.658   0.050  0.00  0.00    +0.013 A 
ATOM     17  C   UNL     1      84.218  68.157   1.040  0.00  0.00    +0.005 A 
ATOM     18  C   UNL     1      84.130  68.649   2.413  0.00  0.00    -0.033 A 
ATOM     28  C   UNL     1      83.121  69.638   2.753  0.00  0.00    +0.005 A 
ATOM     29  C   UNL     1      82.217  70.131   1.785  0.00  0.00    +0.013 A 
BRANCH  18  19
ATOM     19  C   UNL     1      85.057  68.154   3.540  0.00  0.00    +0.119 C 
BRANCH  19  20
ATOM     20  N   UNL     1      85.974  67.020   3.222  0.00  0.00    -0.302 NA
ATOM     21  C   UNL     1      85.269  65.664   3.324  0.00  0.00    +0.066 C 
ATOM     22  C   UNL     1      86.237  64.490   2.967  0.00  0.00    -0.064 C 
ATOM     23  N   UNL     1      87.455  64.538   3.891  0.00  0.00    +0.379 N 
ATOM     24  C   UNL     1      88.339  63.401   3.596  0.00  0.00    -0.096 C 
ATOM     25  H   UNL     1      87.090  64.420   4.937  0.00  0.00    -0.082 HD
ATOM     26  C   UNL     1      88.161  65.883   3.797  0.00  0.00    -0.064 C 
ATOM     27  C   UNL     1      87.182  67.045   4.125  0.00  0.00    +0.066 C 
ENDBRANCH  19  20
ENDBRANCH  18  19
ENDBRANCH  14  15
ENDBRANCH  12  13
TORSDOF 6
ENDMDL
MODEL 3
REMARK VINA RESULT:      -8.3      2.448     13.610
REMARK  Name = C:\Users\Docking\Desktop\test protocol\1iep_ligandH.pdb
REMARK  8 active torsions:
REMARK  status: ('A' for Active; 'I' for Inactive)
REMARK    1  A    between atoms: _5  and  _11
REMARK    2  A    between atoms: _19  and  _21
REMARK    3  A    between atoms: _22  and  _66
REMARK    4  A    between atoms: _27  and  _30
REMARK    5  A    between atoms: _32  and  _33
REMARK    6  A    between atoms: _38  and  _43
REMARK    7  A    between atoms: _43  and  _46
REMARK    8  A    between atoms: _53  and  _55
REMARK                            x       y       z     vdW  Elec       q    Type
REMARK                         _______ _______ _______ _____ _____    ______ ____
ROOT
ATOM     10  C   UNL     1      85.149  67.554   2.548  0.00  0.00    +0.038 A 
ATOM     11  C   UNL     1      84.242  67.850   1.499  0.00  0.00    +0.047 A 
ATOM     12  C   UNL     1      83.337  68.986   1.584  0.00  0.00    +0.035 A 
ATOM     32  C   UNL     1      83.385  69.802   2.753  0.00  0.00    +0.024 A 
ATOM     33  C   UNL     1      84.300  69.514   3.829  0.00  0.00    +0.007 A 
ATOM     34  C   UNL     1      85.193  68.393   3.752  0.00  0.00    -0.029 A 
ATOM     35  C   UNL     1      86.148  68.128   4.939  0.00  0.00    +0.045 C 
ENDROOT
BRANCH  10   9
ATOM      4  C   UNL     1      89.271  65.526   1.158  0.00  0.00    +0.077 A 
ATOM      5  C   UNL     1      89.770  66.763   0.631  0.00  0.00    +0.048 A 
ATOM      6  C   UNL     1      88.933  67.896   0.732  0.00  0.00    +0.116 A 
ATOM      7  N   UNL     1      87.690  67.789   1.317  0.00  0.00    -0.223 NA
ATOM      8  C   UNL     1      87.238  66.580   1.813  0.00  0.00    +0.220 A 
ATOM      9  N   UNL     1      85.994  66.451   2.413  0.00  0.00    -0.283 N 
ATOM     36  H   UNL     1      85.694  65.540   2.760  0.00  0.00    +0.155 HD
ATOM     37  N   UNL     1      88.018  65.483   1.728  0.00  0.00    -0.214 NA
BRANCH   4   3
ATOM      1  C   UNL     1      92.019  62.806   1.749  0.00  0.00    +0.020 A 
ATOM      2  C   UNL     1      91.317  64.067   1.807  0.00  0.00    +0.013 A 
ATOM      3  C   UNL     1      90.039  64.241   1.129  0.00  0.00    +0.019 A 
ATOM     38  C   UNL     1      89.493  63.109   0.395  0.00  0.00    +0.120 A 
ATOM     39  N   UNL     1      90.192  61.907   0.355  0.00  0.00    -0.263 NA
ATOM     40  C   UNL     1      91.424  61.728   1.002  0.00  0.00    +0.111 A 
ENDBRANCH   4   3
ENDBRANCH  10   9
BRANCH  12  13
ATOM     13  N   UNL     1      82.390  69.332   0.554  0.00  0.00    -0.281 N 
ATOM     14  C   UNL     1      82.609  69.417  -0.811  0.00  0.00    +0.248 C 
ATOM     30  O   UNL     1      83.713  69.417  -1.335  0.00  0.00    -0.270 OA
ATOM     31  H   UNL     1      81.442  69.539   0.869  0.00  0.00    +0.155 HD
BRANCH  14  15
ATOM     15  C   UNL     1      81.433  69.534  -1.726  0.00  0.00    +0.037 A 
ATOM     16  C   UNL     1      81.607  69.714  -3.169  0.00  0.00    +0.013 A 
ATOM     17  C   UNL     1      80.456  69.842  -4.027  0.00  0.00    +0.005 A 
ATOM     18  C   UNL     1      79.118  69.787  -3.442  0.00  0.00    -0.033 A 
ATOM     28  C   UNL     1      78.974  69.602  -2.007  0.00  0.00    +0.005 A 
ATOM     29  C   UNL     1      80.100  69.479  -1.164  0.00  0.00    +0.013 A 
BRANCH  18  19
ATOM     19  C   UNL     1      77.833  69.935  -4.278  0.00  0.00    +0.119 C 
BRANCH  19  20
ATOM     20  N   UNL     1      76.559  69.457  -3.664  0.00  0.00    -0.302 NA
ATOM     21  C   UNL     1      75.922  68.322  -4.470  0.00  0.00    +0.066 C 
ATOM     22  C   UNL     1      74.602  67.819  -3.801  0.00  0.00    -0.064 C 
ATOM     23  N   UNL     1      73.629  68.991  -3.655  0.00  0.00    +0.379 N 
ATOM     24  C   UNL     1      72.365  68.510  -3.079  0.00  0.00    -0.096 C 
ATOM     25  H   UNL     1      73.410  69.377  -4.677  0.00  0.00    -0.082 HD
ATOM     26  C   UNL     1      74.255  70.125  -2.856  0.00  0.00    -0.064 C 
ATOM     27  C   UNL     1      75.582  70.598  -3.514  0.00  0.00    +0.066 C 
ENDBRANCH  19  20
ENDBRANCH  18  19
ENDBRANCH  14  15
ENDBRANCH  12  13
TORSDOF 6
ENDMDL
MODEL 4
REMARK VINA RESULT:      -8.2      4.931     14.103
REMARK  Name = C:\Users\Docking\Desktop\test protocol\1iep_ligandH.pdb
REMARK  8 active torsions:
REMARK  status: ('A' for Active; 'I' for Inactive)
REMARK    1  A    between atoms: _5  and  _11
REMARK    2  A    between atoms: _19  and  _21
REMARK    3  A    between atoms: _22  and  _66
REMARK    4  A    between atoms: _27  and  _30
REMARK    5  A    between atoms: _32  and  _33
REMARK    6  A    between atoms: _38  and  _43
REMARK    7  A    between atoms: _43  and  _46
REMARK    8  A    between atoms: _53  and  _55
REMARK                            x       y       z     vdW  Elec       q    Type
REMARK                         _______ _______ _______ _____ _____    ______ ____
ROOT
ATOM     10  C   UNL     1      89.017  63.406   1.370  0.00  0.00    +0.038 A 
ATOM     11  C   UNL     1      87.818  64.158   1.267  0.00  0.00    +0.047 A 
ATOM     12  C   UNL     1      87.766  65.551   1.683  0.00  0.00    +0.035 A 
ATOM     32  C   UNL     1      88.954  66.148   2.197  0.00  0.00    +0.024 A 
ATOM     33  C   UNL     1      90.180  65.398   2.309  0.00  0.00    +0.007 A 
ATOM     34  C   UNL     1      90.237  64.023   1.903  0.00  0.00    -0.029 A 
ATOM     35  C   UNL     1      91.578  63.266   2.052  0.00  0.00    +0.045 C 
ENDROOT
BRANCH  10   9
ATOM      4  C   UNL     1      87.503  58.867   1.739  0.00  0.00    +0.077 A 
ATOM      5  C   UNL     1      86.674  59.173   2.870  0.00  0.00    +0.048 A 
ATOM      6  C   UNL     1      86.671  60.509   3.329  0.00  0.00    +0.116 A 
ATOM      7  N   UNL     1      87.443  61.460   2.698  0.00  0.00    -0.223 NA
ATOM      8  C   UNL     1      88.232  61.131   1.611  0.00  0.00    +0.220 A 
ATOM      9  N   UNL     1      89.011  62.072   0.956  0.00  0.00    -0.283 N 
ATOM     36  H   UNL     1      89.585  61.788   0.163  0.00  0.00    +0.155 HD
ATOM     37  N   UNL     1      88.254  59.861   1.154  0.00  0.00    -0.214 NA
BRANCH   4   3
ATOM      1  C   UNL     1      86.605  55.379   0.212  0.00  0.00    +0.020 A 
ATOM      2  C   UNL     1      86.447  56.692   0.794  0.00  0.00    +0.013 A 
ATOM      3  C   UNL     1      87.610  57.501   1.135  0.00  0.00    +0.019 A 
ATOM     38  C   UNL     1      88.930  56.949   0.870  0.00  0.00    +0.120 A 
ATOM     39  N   UNL     1      89.052  55.681   0.310  0.00  0.00    -0.263 NA
ATOM     40  C   UNL     1      87.940  54.893  -0.020  0.00  0.00    +0.111 A 
ENDBRANCH   4   3
ENDBRANCH  10   9
BRANCH  12  13
ATOM     13  N   UNL     1      86.576  66.362   1.609  0.00  0.00    -0.281 N 
ATOM     14  C   UNL     1      85.762  66.776   2.651  0.00  0.00    +0.248 C 
ATOM     30  O   UNL     1      85.814  66.331   3.788  0.00  0.00    -0.270 OA
ATOM     31  H   UNL     1      86.300  66.667   0.676  0.00  0.00    +0.155 HD
BRANCH  14  15
ATOM     15  C   UNL     1      84.730  67.825   2.388  0.00  0.00    +0.037 A 
ATOM     16  C   UNL     1      84.240  68.695   3.460  0.00  0.00    +0.013 A 
ATOM     17  C   UNL     1      83.233  69.688   3.183  0.00  0.00    +0.005 A 
ATOM     18  C   UNL     1      82.709  69.816   1.825  0.00  0.00    -0.033 A 
ATOM     28  C   UNL     1      83.216  68.944   0.779  0.00  0.00    +0.005 A 
ATOM     29  C   UNL     1      84.203  67.969   1.047  0.00  0.00    +0.013 A 
BRANCH  18  19
ATOM     19  C   UNL     1      81.617  70.833   1.443  0.00  0.00    +0.119 C 
BRANCH  19  20
ATOM     20  N   UNL     1      81.157  70.841   0.022  0.00  0.00    -0.302 NA
ATOM     21  C   UNL     1      80.456  69.535  -0.362  0.00  0.00    +0.066 C 
ATOM     22  C   UNL     1      79.961  69.569  -1.845  0.00  0.00    -0.064 C 
ATOM     23  N   UNL     1      81.149  69.838  -2.770  0.00  0.00    +0.379 N 
ATOM     24  C   UNL     1      80.698  69.813  -4.168  0.00  0.00    -0.096 C 
ATOM     25  H   UNL     1      81.878  69.005  -2.635  0.00  0.00    -0.082 HD
ATOM     26  C   UNL     1      81.854  71.134  -2.393  0.00  0.00    -0.064 C 
ATOM     27  C   UNL     1      82.315  71.101  -0.909  0.00  0.00    +0.066 C 
ENDBRANCH  19  20
ENDBRANCH  18  19
ENDBRANCH  14  15
ENDBRANCH  12  13
TORSDOF 6
ENDMDL
MODEL 5
REMARK VINA RESULT:      -8.2      5.345     12.734
REMARK  Name = C:\Users\Docking\Desktop\test protocol\1iep_ligandH.pdb
REMARK  8 active torsions:
REMARK  status: ('A' for Active; 'I' for Inactive)
REMARK    1  A    between atoms: _5  and  _11
REMARK    2  A    between atoms: _19  and  _21
REMARK    3  A    between atoms: _22  and  _66
REMARK    4  A    between atoms: _27  and  _30
REMARK    5  A    between atoms: _32  and  _33
REMARK    6  A    between atoms: _38  and  _43
REMARK    7  A    between atoms: _43  and  _46
REMARK    8  A    between atoms: _53  and  _55
REMARK                            x       y       z     vdW  Elec       q    Type
REMARK                         _______ _______ _______ _____ _____    ______ ____
ROOT
ATOM     10  C   UNL     1      86.150  61.209   2.411  0.00  0.00    +0.038 A 
ATOM     11  C   UNL     1      85.535  62.486   2.363  0.00  0.00    +0.047 A 
ATOM     12  C   UNL     1      86.303  63.700   2.592  0.00  0.00    +0.035 A 
ATOM     32  C   UNL     1      87.696  63.577   2.864  0.00  0.00    +0.024 A 
ATOM     33  C   UNL     1      88.338  62.287   2.917  0.00  0.00    +0.007 A 
ATOM     34  C   UNL     1      87.585  61.085   2.695  0.00  0.00    -0.029 A 
ATOM     35  C   UNL     1      88.323  59.729   2.771  0.00  0.00    +0.045 C 
ENDROOT
BRANCH  10   9
ATOM      4  C   UNL     1      83.624  58.318  -0.469  0.00  0.00    +0.077 A 
ATOM      5  C   UNL     1      83.866  59.148  -1.614  0.00  0.00    +0.048 A 
ATOM      6  C   UNL     1      84.640  60.314  -1.417  0.00  0.00    +0.116 A 
ATOM      7  N   UNL     1      85.129  60.617  -0.165  0.00  0.00    -0.223 NA
ATOM      8  C   UNL     1      84.876  59.795   0.918  0.00  0.00    +0.220 A 
ATOM      9  N   UNL     1      85.365  60.076   2.184  0.00  0.00    -0.283 N 
ATOM     36  H   UNL     1      85.149  59.449   2.959  0.00  0.00    +0.155 HD
ATOM     37  N   UNL     1      84.138  58.677   0.756  0.00  0.00    -0.214 NA
BRANCH   4   3
ATOM      1  C   UNL     1      80.736  55.707  -0.088  0.00  0.00    +0.020 A 
ATOM      2  C   UNL     1      81.462  56.954  -0.018  0.00  0.00    +0.013 A 
ATOM      3  C   UNL     1      82.827  57.051  -0.518  0.00  0.00    +0.019 A 
ATOM     38  C   UNL     1      83.434  55.858  -1.088  0.00  0.00    +0.120 A 
ATOM     39  N   UNL     1      82.712  54.670  -1.141  0.00  0.00    -0.263 NA
ATOM     40  C   UNL     1      81.397  54.565  -0.662  0.00  0.00    +0.111 A 
ENDBRANCH   4   3
ENDBRANCH  10   9
BRANCH  12  13
ATOM     13  N   UNL     1      85.731  65.024   2.564  0.00  0.00    -0.281 N 
ATOM     14  C   UNL     1      86.215  66.173   3.167  0.00  0.00    +0.248 C 
ATOM     30  O   UNL     1      87.105  66.192   4.003  0.00  0.00    -0.270 OA
ATOM     31  H   UNL     1      84.864  65.125   2.036  0.00  0.00    +0.155 HD
BRANCH  14  15
ATOM     15  C   UNL     1      85.613  67.490   2.797  0.00  0.00    +0.037 A 
ATOM     16  C   UNL     1      84.397  67.981   3.450  0.00  0.00    +0.013 A 
ATOM     17  C   UNL     1      83.828  69.247   3.063  0.00  0.00    +0.005 A 
ATOM     18  C   UNL     1      84.476  70.033   2.016  0.00  0.00    -0.033 A 
ATOM     28  C   UNL     1      85.685  69.525   1.388  0.00  0.00    +0.005 A 
ATOM     29  C   UNL     1      86.245  68.284   1.764  0.00  0.00    +0.013 A 
BRANCH  18  19
ATOM     19  C   UNL     1      83.927  71.385   1.524  0.00  0.00    +0.119 C 
BRANCH  19  20
ATOM     20  N   UNL     1      83.033  71.366   0.328  0.00  0.00    -0.302 NA
ATOM     21  C   UNL     1      81.555  71.479   0.714  0.00  0.00    +0.066 C 
ATOM     22  C   UNL     1      80.635  71.480  -0.550  0.00  0.00    -0.064 C 
ATOM     23  N   UNL     1      80.887  70.208  -1.362  0.00  0.00    +0.379 N 
ATOM     24  C   UNL     1      79.982  70.178  -2.520  0.00  0.00    -0.096 C 
ATOM     25  H   UNL     1      80.635  69.337  -0.712  0.00  0.00    -0.082 HD
ATOM     26  C   UNL     1      82.355  70.086  -1.747  0.00  0.00    -0.064 C 
ATOM     27  C   UNL     1      83.262  70.116  -0.486  0.00  0.00    +0.066 C 
ENDBRANCH  19  20
ENDBRANCH  18  19
ENDBRANCH  14  15
ENDBRANCH  12  13
TORSDOF 6
ENDMDL
