MODEL 1
REMARK VINA RESULT:      -9.9      0.000      0.000
REMARK  Name = C:\Users\Docking\Desktop\test protocol\1iep_ligandH.pdb
REMARK  8 active torsions:
REMARK  status: ('A' for Active; 'I' for Inactive)
REMARK    1  A    between atoms: _5  and  _11
REMARK    2  A    between atoms: _19  and  _21
REMARK    3  A    between atoms: _22  and  _66
REMARK    4  A    between atoms: _27  and  _30
REMARK    5  A    between atoms: _32  and  _33
REMARK    6  A    between atoms: _38  and  _43
REMARK    7  A    between atoms: _43  and  _46
REMARK    8  A    between atoms: _53  and  _55
REMARK                            x       y       z     vdW  Elec       q    Type
REMARK                         _______ _______ _______ _____ _____    ______ ____
ROOT
ATOM     10  C   UNL     1    -106.345 -77.280 -27.380  0.00  0.00    +0.038 A 
ATOM     11  C   UNL     1    -107.653 -77.098 -26.863  0.00  0.00    +0.047 A 
ATOM     12  C   UNL     1    -108.828 -77.416 -27.659  0.00  0.00    +0.035 A 
ATOM     32  C   UNL     1    -108.634 -77.921 -28.978  0.00  0.00    +0.024 A 
ATOM     33  C   UNL     1    -107.311 -78.111 -29.520  0.00  0.00    +0.007 A 
ATOM     34  C   UNL     1    -106.149 -77.796 -28.740  0.00  0.00    -0.029 A 
ATOM     35  C   UNL     1    -104.755 -78.014 -29.374  0.00  0.00    +0.045 C 
ENDROOT
BRANCH  10   9
ATOM      4  C   UNL     1    -103.348 -74.108 -25.381  0.00  0.00    +0.077 A 
ATOM      5  C   UNL     1    -103.997 -73.002 -26.022  0.00  0.00    +0.048 A 
ATOM      6  C   UNL     1    -105.094 -73.292 -26.865  0.00  0.00    +0.116 A 
ATOM      7  N   UNL     1    -105.502 -74.595 -27.044  0.00  0.00    -0.223 NA
ATOM      8  C   UNL     1    -104.853 -75.640 -26.412  0.00  0.00    +0.220 A 
ATOM      9  N   UNL     1    -105.252 -76.958 -26.572  0.00  0.00    -0.283 N 
ATOM     36  H   UNL     1    -104.743 -77.701 -26.094  0.00  0.00    +0.155 HD
ATOM     37  N   UNL     1    -103.802 -75.389 -25.604  0.00  0.00    -0.214 NA
BRANCH   4   3
ATOM      1  C   UNL     1    -100.086 -72.794 -23.667  0.00  0.00    +0.020 A 
ATOM      2  C   UNL     1    -101.199 -72.889 -24.584  0.00  0.00    +0.013 A 
ATOM      3  C   UNL     1    -102.177 -73.963 -24.459  0.00  0.00    +0.019 A 
ATOM     38  C   UNL     1    -101.999 -74.931 -23.388  0.00  0.00    +0.120 A 
ATOM     39  N   UNL     1    -100.917 -74.815 -22.521  0.00  0.00    -0.263 NA
ATOM     40  C   UNL     1     -99.968 -73.787 -22.632  0.00  0.00    +0.111 A 
ENDBRANCH   4   3
ENDBRANCH  10   9
BRANCH  12  13
ATOM     13  N   UNL     1    -110.181 -77.244 -27.191  0.00  0.00    -0.281 N 
ATOM     14  C   UNL     1    -110.729 -77.679 -25.995  0.00  0.00    +0.248 C 
ATOM     30  O   UNL     1    -110.192 -78.471 -25.236  0.00  0.00    -0.270 OA
ATOM     31  H   UNL     1    -110.810 -76.741 -27.816  0.00  0.00    +0.155 HD
BRANCH  14  15
ATOM     15  C   UNL     1    -112.076 -77.170 -25.591  0.00  0.00    +0.037 A 
ATOM     16  C   UNL     1    -112.483 -77.132 -24.185  0.00  0.00    +0.013 A 
ATOM     17  C   UNL     1    -113.794 -76.653 -23.824  0.00  0.00    +0.005 A 
ATOM     18  C   UNL     1    -114.706 -76.204 -24.873  0.00  0.00    -0.033 A 
ATOM     28  C   UNL     1    -114.274 -76.247 -26.260  0.00  0.00    +0.005 A 
ATOM     29  C   UNL     1    -112.991 -76.718 -26.618  0.00  0.00    +0.013 A 
BRANCH  18  19
ATOM     19  C   UNL     1    -116.131 -75.697 -24.582  0.00  0.00    +0.119 C 
BRANCH  19  20
ATOM     20  N   UNL     1    -116.271 -74.574 -23.608  0.00  0.00    -0.302 NA
ATOM     21  C   UNL     1    -116.866 -75.040 -22.276  0.00  0.00    +0.066 C 
ATOM     22  C   UNL     1    -116.985 -73.857 -21.261  0.00  0.00    -0.064 C 
ATOM     23  N   UNL     1    -117.836 -72.744 -21.875  0.00  0.00    +0.379 N 
ATOM     24  C   UNL     1    -117.998 -71.655 -20.901  0.00  0.00    -0.096 C 
ATOM     25  H   UNL     1    -118.847 -73.167 -22.081  0.00  0.00    -0.082 HD
ATOM     26  C   UNL     1    -117.253 -72.277 -23.201  0.00  0.00    -0.064 C 
ATOM     27  C   UNL     1    -117.112 -73.466 -24.192  0.00  0.00    +0.066 C 
ENDBRANCH  19  20
ENDBRANCH  18  19
ENDBRANCH  14  15
ENDBRANCH  12  13
TORSDOF 6
ENDMDL
MODEL 2
REMARK VINA RESULT:      -9.7     37.478     40.663
REMARK  Name = C:\Users\Docking\Desktop\test protocol\1iep_ligandH.pdb
REMARK  8 active torsions:
REMARK  status: ('A' for Active; 'I' for Inactive)
REMARK    1  A    between atoms: _5  and  _11
REMARK    2  A    between atoms: _19  and  _21
REMARK    3  A    between atoms: _22  and  _66
REMARK    4  A    between atoms: _27  and  _30
REMARK    5  A    between atoms: _32  and  _33
REMARK    6  A    between atoms: _38  and  _43
REMARK    7  A    between atoms: _43  and  _46
REMARK    8  A    between atoms: _53  and  _55
REMARK                            x       y       z     vdW  Elec       q    Type
REMARK                         _______ _______ _______ _____ _____    ______ ____
ROOT
ATOM     10  C   UNL     1    -144.342 -61.381 -14.967  0.00  0.00    +0.038 A 
ATOM     11  C   UNL     1    -144.646 -62.132 -13.803  0.00  0.00    +0.047 A 
ATOM     12  C   UNL     1    -143.923 -61.917 -12.559  0.00  0.00    +0.035 A 
ATOM     32  C   UNL     1    -142.898 -60.928 -12.536  0.00  0.00    +0.024 A 
ATOM     33  C   UNL     1    -142.575 -60.157 -13.711  0.00  0.00    +0.007 A 
ATOM     34  C   UNL     1    -143.283 -60.365 -14.941  0.00  0.00    -0.029 A 
ATOM     35  C   UNL     1    -142.890 -59.514 -16.171  0.00  0.00    +0.045 C 
ENDROOT
BRANCH  10   9
ATOM      4  C   UNL     1    -145.057 -63.734 -19.089  0.00  0.00    +0.077 A 
ATOM      5  C   UNL     1    -143.868 -64.519 -18.916  0.00  0.00    +0.048 A 
ATOM      6  C   UNL     1    -143.097 -64.281 -17.756  0.00  0.00    +0.116 A 
ATOM      7  N   UNL     1    -143.495 -63.328 -16.844  0.00  0.00    -0.223 NA
ATOM      8  C   UNL     1    -144.645 -62.587 -17.042  0.00  0.00    +0.220 A 
ATOM      9  N   UNL     1    -145.068 -61.628 -16.135  0.00  0.00    -0.283 N 
ATOM     36  H   UNL     1    -145.919 -61.098 -16.321  0.00  0.00    +0.155 HD
ATOM     37  N   UNL     1    -145.398 -62.794 -18.143  0.00  0.00    -0.214 NA
BRANCH   4   3
ATOM      1  C   UNL     1    -147.904 -64.956 -21.477  0.00  0.00    +0.020 A 
ATOM      2  C   UNL     1    -147.041 -64.866 -20.322  0.00  0.00    +0.013 A 
ATOM      3  C   UNL     1    -145.978 -63.871 -20.262  0.00  0.00    +0.019 A 
ATOM     38  C   UNL     1    -145.813 -62.975 -21.396  0.00  0.00    +0.120 A 
ATOM     39  N   UNL     1    -146.657 -63.086 -22.496  0.00  0.00    -0.263 NA
ATOM     40  C   UNL     1    -147.683 -64.041 -22.566  0.00  0.00    +0.111 A 
ENDBRANCH   4   3
ENDBRANCH  10   9
BRANCH  12  13
ATOM     13  N   UNL     1    -144.182 -62.655 -11.348  0.00  0.00    -0.281 N 
ATOM     14  C   UNL     1    -145.075 -62.343 -10.335  0.00  0.00    +0.248 C 
ATOM     30  O   UNL     1    -145.636 -61.264 -10.217  0.00  0.00    -0.270 OA
ATOM     31  H   UNL     1    -143.642 -63.511 -11.221  0.00  0.00    +0.155 HD
BRANCH  14  15
ATOM     15  C   UNL     1    -145.378 -63.374  -9.296  0.00  0.00    +0.037 A 
ATOM     16  C   UNL     1    -145.522 -63.011  -7.884  0.00  0.00    +0.013 A 
ATOM     17  C   UNL     1    -145.797 -64.027  -6.900  0.00  0.00    +0.005 A 
ATOM     18  C   UNL     1    -145.931 -65.418  -7.326  0.00  0.00    -0.033 A 
ATOM     28  C   UNL     1    -145.788 -65.750  -8.734  0.00  0.00    +0.005 A 
ATOM     29  C   UNL     1    -145.518 -64.757  -9.701  0.00  0.00    +0.013 A 
BRANCH  18  19
ATOM     19  C   UNL     1    -146.203 -66.572  -6.342  0.00  0.00    +0.119 C 
BRANCH  19  20
ATOM     20  N   UNL     1    -145.048 -67.445  -5.976  0.00  0.00    -0.302 NA
ATOM     21  C   UNL     1    -145.066 -68.771  -6.740  0.00  0.00    +0.066 C 
ATOM     22  C   UNL     1    -143.839 -69.663  -6.361  0.00  0.00    -0.064 C 
ATOM     23  N   UNL     1    -143.837 -69.908  -4.852  0.00  0.00    +0.379 N 
ATOM     24  C   UNL     1    -142.717 -70.793  -4.500  0.00  0.00    -0.096 C 
ATOM     25  H   UNL     1    -144.782 -70.439  -4.594  0.00  0.00    -0.082 HD
ATOM     26  C   UNL     1    -143.822 -68.594  -4.083  0.00  0.00    -0.064 C 
ATOM     27  C   UNL     1    -145.030 -67.703  -4.489  0.00  0.00    +0.066 C 
ENDBRANCH  19  20
ENDBRANCH  18  19
ENDBRANCH  14  15
ENDBRANCH  12  13
TORSDOF 6
ENDMDL
MODEL 3
REMARK VINA RESULT:      -9.5     36.385     40.741
REMARK  Name = C:\Users\Docking\Desktop\test protocol\1iep_ligandH.pdb
REMARK  8 active torsions:
REMARK  status: ('A' for Active; 'I' for Inactive)
REMARK    1  A    between atoms: _5  and  _11
REMARK    2  A    between atoms: _19  and  _21
REMARK    3  A    between atoms: _22  and  _66
REMARK    4  A    between atoms: _27  and  _30
REMARK    5  A    between atoms: _32  and  _33
REMARK    6  A    between atoms: _38  and  _43
REMARK    7  A    between atoms: _43  and  _46
REMARK    8  A    between atoms: _53  and  _55
REMARK                            x       y       z     vdW  Elec       q    Type
REMARK                         _______ _______ _______ _____ _____    ______ ____
ROOT
ATOM     10  C   UNL     1    -145.485 -63.391  -8.940  0.00  0.00    +0.038 A 
ATOM     11  C   UNL     1    -145.364 -62.998 -10.298  0.00  0.00    +0.047 A 
ATOM     12  C   UNL     1    -144.864 -61.681 -10.658  0.00  0.00    +0.035 A 
ATOM     32  C   UNL     1    -144.493 -60.789  -9.610  0.00  0.00    +0.024 A 
ATOM     33  C   UNL     1    -144.610 -61.171  -8.225  0.00  0.00    +0.007 A 
ATOM     34  C   UNL     1    -145.105 -62.468  -7.863  0.00  0.00    -0.029 A 
ATOM     35  C   UNL     1    -145.216 -62.822  -6.362  0.00  0.00    +0.045 C 
ENDROOT
BRANCH  10   9
ATOM      4  C   UNL     1    -145.363 -68.168  -9.389  0.00  0.00    +0.077 A 
ATOM      5  C   UNL     1    -144.255 -68.114 -10.298  0.00  0.00    +0.048 A 
ATOM      6  C   UNL     1    -143.750 -66.836 -10.630  0.00  0.00    +0.116 A 
ATOM      7  N   UNL     1    -144.319 -65.705 -10.087  0.00  0.00    -0.223 NA
ATOM      8  C   UNL     1    -145.388 -65.792  -9.215  0.00  0.00    +0.220 A 
ATOM      9  N   UNL     1    -145.971 -64.668  -8.651  0.00  0.00    -0.283 N 
ATOM     36  H   UNL     1    -146.763 -64.774  -8.017  0.00  0.00    +0.155 HD
ATOM     37  N   UNL     1    -145.889 -67.000  -8.883  0.00  0.00    -0.214 NA
BRANCH   4   3
ATOM      1  C   UNL     1    -146.092 -71.521  -7.512  0.00  0.00    +0.020 A 
ATOM      2  C   UNL     1    -145.431 -70.300  -7.910  0.00  0.00    +0.013 A 
ATOM      3  C   UNL     1    -146.006 -69.443  -8.939  0.00  0.00    +0.019 A 
ATOM     38  C   UNL     1    -147.261 -69.854  -9.550  0.00  0.00    +0.120 A 
ATOM     39  N   UNL     1    -147.874 -71.036  -9.147  0.00  0.00    -0.263 NA
ATOM     40  C   UNL     1    -147.329 -71.870  -8.159  0.00  0.00    +0.111 A 
ENDBRANCH   4   3
ENDBRANCH  10   9
BRANCH  12  13
ATOM     13  N   UNL     1    -144.727 -61.224 -12.019  0.00  0.00    -0.281 N 
ATOM     14  C   UNL     1    -143.576 -61.175 -12.789  0.00  0.00    +0.248 C 
ATOM     30  O   UNL     1    -142.444 -61.317 -12.351  0.00  0.00    -0.270 OA
ATOM     31  H   UNL     1    -145.582 -60.898 -12.469  0.00  0.00    +0.155 HD
BRANCH  14  15
ATOM     15  C   UNL     1    -143.700 -60.915 -14.256  0.00  0.00    +0.037 A 
ATOM     16  C   UNL     1    -144.670 -61.643 -15.077  0.00  0.00    +0.013 A 
ATOM     17  C   UNL     1    -144.757 -61.385 -16.493  0.00  0.00    +0.005 A 
ATOM     18  C   UNL     1    -143.870 -60.393 -17.096  0.00  0.00    -0.033 A 
ATOM     28  C   UNL     1    -142.920 -59.682 -16.257  0.00  0.00    +0.005 A 
ATOM     29  C   UNL     1    -142.832 -59.932 -14.869  0.00  0.00    +0.013 A 
BRANCH  18  19
ATOM     19  C   UNL     1    -143.878 -60.069 -18.602  0.00  0.00    +0.119 C 
BRANCH  19  20
ATOM     20  N   UNL     1    -143.675 -61.207 -19.547  0.00  0.00    -0.302 NA
ATOM     21  C   UNL     1    -142.199 -61.395 -19.910  0.00  0.00    +0.066 C 
ATOM     22  C   UNL     1    -142.001 -62.604 -20.882  0.00  0.00    -0.064 C 
ATOM     23  N   UNL     1    -142.845 -62.386 -22.139  0.00  0.00    +0.379 N 
ATOM     24  C   UNL     1    -142.616 -63.492 -23.080  0.00  0.00    -0.096 C 
ATOM     25  H   UNL     1    -142.489 -61.449 -22.627  0.00  0.00    -0.082 HD
ATOM     26  C   UNL     1    -144.313 -62.195 -21.788  0.00  0.00    -0.064 C 
ATOM     27  C   UNL     1    -144.495 -61.010 -20.798  0.00  0.00    +0.066 C 
ENDBRANCH  19  20
ENDBRANCH  18  19
ENDBRANCH  14  15
ENDBRANCH  12  13
TORSDOF 6
ENDMDL
MODEL 4
REMARK VINA RESULT:      -9.3     37.784     40.026
REMARK  Name = C:\Users\Docking\Desktop\test protocol\1iep_ligandH.pdb
REMARK  8 active torsions:
REMARK  status: ('A' for Active; 'I' for Inactive)
REMARK    1  A    between atoms: _5  and  _11
REMARK    2  A    between atoms: _19  and  _21
REMARK    3  A    between atoms: _22  and  _66
REMARK    4  A    between atoms: _27  and  _30
REMARK    5  A    between atoms: _32  and  _33
REMARK    6  A    between atoms: _38  and  _43
REMARK    7  A    between atoms: _43  and  _46
REMARK    8  A    between atoms: _53  and  _55
REMARK                            x       y       z     vdW  Elec       q    Type
REMARK                         _______ _______ _______ _____ _____    ______ ____
ROOT
ATOM     10  C   UNL     1    -144.225 -61.614 -14.630  0.00  0.00    +0.038 A 
ATOM     11  C   UNL     1    -144.737 -62.334 -15.740  0.00  0.00    +0.047 A 
ATOM     12  C   UNL     1    -144.199 -62.138 -17.077  0.00  0.00    +0.035 A 
ATOM     32  C   UNL     1    -143.138 -61.202 -17.248  0.00  0.00    +0.024 A 
ATOM     33  C   UNL     1    -142.606 -60.460 -16.131  0.00  0.00    +0.007 A 
ATOM     34  C   UNL     1    -143.134 -60.648 -14.810  0.00  0.00    -0.029 A 
ATOM     35  C   UNL     1    -142.530 -59.821 -13.651  0.00  0.00    +0.045 C 
ENDROOT
BRANCH  10   9
ATOM      4  C   UNL     1    -144.377 -63.933 -10.431  0.00  0.00    +0.077 A 
ATOM      5  C   UNL     1    -143.278 -64.781 -10.792  0.00  0.00    +0.048 A 
ATOM      6  C   UNL     1    -142.706 -64.592 -12.070  0.00  0.00    +0.116 A 
ATOM      7  N   UNL     1    -143.204 -63.625 -12.916  0.00  0.00    -0.223 NA
ATOM      8  C   UNL     1    -144.267 -62.826 -12.537  0.00  0.00    +0.220 A 
ATOM      9  N   UNL     1    -144.779 -61.842 -13.368  0.00  0.00    -0.283 N 
ATOM     36  H   UNL     1    -145.568 -61.278 -13.055  0.00  0.00    +0.155 HD
ATOM     37  N   UNL     1    -144.831 -62.987 -11.322  0.00  0.00    -0.214 NA
BRANCH   4   3
ATOM      1  C   UNL     1    -146.833 -64.964  -7.566  0.00  0.00    +0.020 A 
ATOM      2  C   UNL     1    -146.184 -64.931  -8.856  0.00  0.00    +0.013 A 
ATOM      3  C   UNL     1    -145.085 -64.008  -9.114  0.00  0.00    +0.019 A 
ATOM     38  C   UNL     1    -144.665 -63.126  -8.036  0.00  0.00    +0.120 A 
ATOM     39  N   UNL     1    -145.310 -63.179  -6.804  0.00  0.00    -0.263 NA
ATOM     40  C   UNL     1    -146.369 -64.061  -6.546  0.00  0.00    +0.111 A 
ENDBRANCH   4   3
ENDBRANCH  10   9
BRANCH  12  13
ATOM     13  N   UNL     1    -144.684 -62.834 -18.243  0.00  0.00    -0.281 N 
ATOM     14  C   UNL     1    -145.854 -62.603 -18.948  0.00  0.00    +0.248 C 
ATOM     30  O   UNL     1    -146.770 -61.897 -18.554  0.00  0.00    -0.270 OA
ATOM     31  H   UNL     1    -144.093 -63.589 -18.590  0.00  0.00    +0.155 HD
BRANCH  14  15
ATOM     15  C   UNL     1    -146.038 -63.262 -20.276  0.00  0.00    +0.037 A 
ATOM     16  C   UNL     1    -145.394 -64.541 -20.586  0.00  0.00    +0.013 A 
ATOM     17  C   UNL     1    -145.575 -65.147 -21.881  0.00  0.00    +0.005 A 
ATOM     18  C   UNL     1    -146.406 -64.475 -22.877  0.00  0.00    -0.033 A 
ATOM     28  C   UNL     1    -147.038 -63.209 -22.541  0.00  0.00    +0.005 A 
ATOM     29  C   UNL     1    -146.862 -62.612 -21.273  0.00  0.00    +0.013 A 
BRANCH  18  19
ATOM     19  C   UNL     1    -146.637 -65.038 -24.292  0.00  0.00    +0.119 C 
BRANCH  19  20
ATOM     20  N   UNL     1    -145.867 -64.416 -25.410  0.00  0.00    -0.302 NA
ATOM     21  C   UNL     1    -144.706 -63.558 -24.900  0.00  0.00    +0.066 C 
ATOM     22  C   UNL     1    -143.897 -62.933 -26.083  0.00  0.00    -0.064 C 
ATOM     23  N   UNL     1    -144.839 -62.104 -26.958  0.00  0.00    +0.379 N 
ATOM     24  C   UNL     1    -144.071 -61.468 -28.038  0.00  0.00    -0.096 C 
ATOM     25  H   UNL     1    -145.265 -61.293 -26.323  0.00  0.00    -0.082 HD
ATOM     26  C   UNL     1    -145.998 -62.948 -27.467  0.00  0.00    -0.064 C 
ATOM     27  C   UNL     1    -146.777 -63.589 -26.285  0.00  0.00    +0.066 C 
ENDBRANCH  19  20
ENDBRANCH  18  19
ENDBRANCH  14  15
ENDBRANCH  12  13
TORSDOF 6
ENDMDL
MODEL 5
REMARK VINA RESULT:      -9.3     38.145     40.294
REMARK  Name = C:\Users\Docking\Desktop\test protocol\1iep_ligandH.pdb
REMARK  8 active torsions:
REMARK  status: ('A' for Active; 'I' for Inactive)
REMARK    1  A    between atoms: _5  and  _11
REMARK    2  A    between atoms: _19  and  _21
REMARK    3  A    between atoms: _22  and  _66
REMARK    4  A    between atoms: _27  and  _30
REMARK    5  A    between atoms: _32  and  _33
REMARK    6  A    between atoms: _38  and  _43
REMARK    7  A    between atoms: _43  and  _46
REMARK    8  A    between atoms: _53  and  _55
REMARK                            x       y       z     vdW  Elec       q    Type
REMARK                         _______ _______ _______ _____ _____    ______ ____
ROOT
ATOM     10  C   UNL     1    -144.230 -61.796 -14.763  0.00  0.00    +0.038 A 
ATOM     11  C   UNL     1    -144.706 -62.482 -15.910  0.00  0.00    +0.047 A 
ATOM     12  C   UNL     1    -144.116 -62.256 -17.220  0.00  0.00    +0.035 A 
ATOM     32  C   UNL     1    -143.040 -61.328 -17.325  0.00  0.00    +0.024 A 
ATOM     33  C   UNL     1    -142.544 -60.621 -16.170  0.00  0.00    +0.007 A 
ATOM     34  C   UNL     1    -143.124 -60.838 -14.876  0.00  0.00    -0.029 A 
ATOM     35  C   UNL     1    -142.557 -60.048 -13.673  0.00  0.00    +0.045 C 
ENDROOT
BRANCH  10   9
ATOM      4  C   UNL     1    -144.545 -64.201 -10.621  0.00  0.00    +0.077 A 
ATOM      5  C   UNL     1    -143.429 -65.038 -10.954  0.00  0.00    +0.048 A 
ATOM      6  C   UNL     1    -142.806 -64.823 -12.204  0.00  0.00    +0.116 A 
ATOM      7  N   UNL     1    -143.273 -63.840 -13.049  0.00  0.00    -0.223 NA
ATOM      8  C   UNL     1    -144.353 -63.051 -12.698  0.00  0.00    +0.220 A 
ATOM      9  N   UNL     1    -144.834 -62.051 -13.529  0.00  0.00    -0.283 N 
ATOM     36  H   UNL     1    -145.637 -61.495 -13.237  0.00  0.00    +0.155 HD
ATOM     37  N   UNL     1    -144.966 -63.238 -11.510  0.00  0.00    -0.214 NA
BRANCH   4   3
ATOM      1  C   UNL     1    -146.854 -65.501  -7.743  0.00  0.00    +0.020 A 
ATOM      2  C   UNL     1    -146.140 -65.451  -8.999  0.00  0.00    +0.013 A 
ATOM      3  C   UNL     1    -145.306 -64.304  -9.335  0.00  0.00    +0.019 A 
ATOM     38  C   UNL     1    -145.213 -63.217  -8.372  0.00  0.00    +0.120 A 
ATOM     39  N   UNL     1    -145.913 -63.293  -7.172  0.00  0.00    -0.263 NA
ATOM     40  C   UNL     1    -146.720 -64.391  -6.837  0.00  0.00    +0.111 A 
ENDBRANCH   4   3
ENDBRANCH  10   9
BRANCH  12  13
ATOM     13  N   UNL     1    -144.562 -62.917 -18.421  0.00  0.00    -0.281 N 
ATOM     14  C   UNL     1    -145.727 -62.689 -19.136  0.00  0.00    +0.248 C 
ATOM     30  O   UNL     1    -146.669 -62.026 -18.728  0.00  0.00    -0.270 OA
ATOM     31  H   UNL     1    -143.945 -63.641 -18.789  0.00  0.00    +0.155 HD
BRANCH  14  15
ATOM     15  C   UNL     1    -145.872 -63.298 -20.493  0.00  0.00    +0.037 A 
ATOM     16  C   UNL     1    -147.172 -63.768 -20.980  0.00  0.00    +0.013 A 
ATOM     17  C   UNL     1    -147.281 -64.366 -22.287  0.00  0.00    +0.005 A 
ATOM     18  C   UNL     1    -146.086 -64.497 -23.117  0.00  0.00    -0.033 A 
ATOM     28  C   UNL     1    -144.810 -64.018 -22.611  0.00  0.00    +0.005 A 
ATOM     29  C   UNL     1    -144.699 -63.432 -21.330  0.00  0.00    +0.013 A 
BRANCH  18  19
ATOM     19  C   UNL     1    -146.105 -65.143 -24.515  0.00  0.00    +0.119 C 
BRANCH  19  20
ATOM     20  N   UNL     1    -147.127 -64.645 -25.483  0.00  0.00    -0.302 NA
ATOM     21  C   UNL     1    -147.639 -65.759 -26.402  0.00  0.00    +0.066 C 
ATOM     22  C   UNL     1    -148.724 -65.226 -27.393  0.00  0.00    -0.064 C 
ATOM     23  N   UNL     1    -148.139 -64.074 -28.213  0.00  0.00    +0.379 N 
ATOM     24  C   UNL     1    -149.138 -63.609 -29.186  0.00  0.00    -0.096 C 
ATOM     25  H   UNL     1    -147.270 -64.473 -28.784  0.00  0.00    -0.082 HD
ATOM     26  C   UNL     1    -147.626 -62.963 -27.307  0.00  0.00    -0.064 C 
ATOM     27  C   UNL     1    -146.570 -63.510 -26.306  0.00  0.00    +0.066 C 
ENDBRANCH  19  20
ENDBRANCH  18  19
ENDBRANCH  14  15
ENDBRANCH  12  13
TORSDOF 6
ENDMDL
