MODEL 1
REMARK VINA RESULT:     -10.4      0.000      0.000
REMARK  Name = C:\Users\Docking\Desktop\test protocol\1iep_ligandH.pdb
REMARK  8 active torsions:
REMARK  status: ('A' for Active; 'I' for Inactive)
REMARK    1  A    between atoms: _5  and  _11
REMARK    2  A    between atoms: _19  and  _21
REMARK    3  A    between atoms: _22  and  _66
REMARK    4  A    between atoms: _27  and  _30
REMARK    5  A    between atoms: _32  and  _33
REMARK    6  A    between atoms: _38  and  _43
REMARK    7  A    between atoms: _43  and  _46
REMARK    8  A    between atoms: _53  and  _55
REMARK                            x       y       z     vdW  Elec       q    Type
REMARK                         _______ _______ _______ _____ _____    ______ ____
ROOT
ATOM     10  C   UNL     1    -110.540 -77.964 -26.753  0.00  0.00    +0.038 A 
ATOM     11  C   UNL     1    -109.183 -77.587 -26.582  0.00  0.00    +0.047 A 
ATOM     12  C   UNL     1    -108.826 -76.336 -25.932  0.00  0.00    +0.035 A 
ATOM     32  C   UNL     1    -109.876 -75.494 -25.464  0.00  0.00    +0.024 A 
ATOM     33  C   UNL     1    -111.261 -75.861 -25.630  0.00  0.00    +0.007 A 
ATOM     34  C   UNL     1    -111.619 -77.093 -26.274  0.00  0.00    -0.029 A 
ATOM     35  C   UNL     1    -113.120 -77.432 -26.431  0.00  0.00    +0.045 C 
ENDROOT
BRANCH  10   9
ATOM      4  C   UNL     1    -109.642 -81.331 -30.054  0.00  0.00    +0.077 A 
ATOM      5  C   UNL     1    -108.526 -80.601 -30.581  0.00  0.00    +0.048 A 
ATOM      6  C   UNL     1    -108.220 -79.360 -29.980  0.00  0.00    +0.116 A 
ATOM      7  N   UNL     1    -108.981 -78.894 -28.929  0.00  0.00    -0.223 NA
ATOM      8  C   UNL     1    -110.052 -79.622 -28.446  0.00  0.00    +0.220 A 
ATOM      9  N   UNL     1    -110.825 -79.176 -27.385  0.00  0.00    -0.283 N 
ATOM     36  H   UNL     1    -111.612 -79.740 -27.063  0.00  0.00    +0.155 HD
ATOM     37  N   UNL     1    -110.365 -80.810 -29.004  0.00  0.00    -0.214 NA
BRANCH   4   3
ATOM      1  C   UNL     1    -111.702 -84.142 -31.831  0.00  0.00    +0.020 A 
ATOM      2  C   UNL     1    -111.317 -82.837 -31.344  0.00  0.00    +0.013 A 
ATOM      3  C   UNL     1    -110.088 -82.660 -30.581  0.00  0.00    +0.019 A 
ATOM     38  C   UNL     1    -109.265 -83.832 -30.326  0.00  0.00    +0.120 A 
ATOM     39  N   UNL     1    -109.662 -85.076 -30.806  0.00  0.00    -0.263 NA
ATOM     40  C   UNL     1    -110.843 -85.259 -31.540  0.00  0.00    +0.111 A 
ENDBRANCH   4   3
ENDBRANCH  10   9
BRANCH  12  13
ATOM     13  N   UNL     1    -107.466 -75.897 -25.737  0.00  0.00    -0.281 N 
ATOM     14  C   UNL     1    -106.474 -75.751 -26.692  0.00  0.00    +0.248 C 
ATOM     30  O   UNL     1    -106.544 -76.183 -27.833  0.00  0.00    -0.270 OA
ATOM     31  H   UNL     1    -107.204 -75.665 -24.779  0.00  0.00    +0.155 HD
BRANCH  14  15
ATOM     15  C   UNL     1    -105.215 -75.035 -26.322  0.00  0.00    +0.037 A 
ATOM     16  C   UNL     1    -104.271 -75.605 -25.358  0.00  0.00    +0.013 A 
ATOM     17  C   UNL     1    -103.073 -74.886 -25.006  0.00  0.00    +0.005 A 
ATOM     18  C   UNL     1    -102.811 -73.586 -25.621  0.00  0.00    -0.033 A 
ATOM     28  C   UNL     1    -103.762 -73.046 -26.579  0.00  0.00    +0.005 A 
ATOM     29  C   UNL     1    -104.938 -73.748 -26.925  0.00  0.00    +0.013 A 
BRANCH  18  19
ATOM     19  C   UNL     1    -101.569 -72.739 -25.289  0.00  0.00    +0.119 C 
BRANCH  19  20
ATOM     20  N   UNL     1    -100.475 -73.402 -24.519  0.00  0.00    -0.302 NA
ATOM     21  C   UNL     1    -100.391 -72.887 -23.079  0.00  0.00    +0.066 C 
ATOM     22  C   UNL     1     -99.256 -73.608 -22.282  0.00  0.00    -0.064 C 
ATOM     23  N   UNL     1     -97.923 -73.410 -23.007  0.00  0.00    +0.379 N 
ATOM     24  C   UNL     1     -96.844 -74.037 -22.229  0.00  0.00    -0.096 C 
ATOM     25  H   UNL     1     -97.719 -72.315 -23.046  0.00  0.00    -0.082 HD
ATOM     26  C   UNL     1     -97.998 -73.917 -24.440  0.00  0.00    -0.064 C 
ATOM     27  C   UNL     1     -99.149 -73.215 -25.215  0.00  0.00    +0.066 C 
ENDBRANCH  19  20
ENDBRANCH  18  19
ENDBRANCH  14  15
ENDBRANCH  12  13
TORSDOF 6
ENDMDL
MODEL 2
REMARK VINA RESULT:     -10.2      6.821     10.057
REMARK  Name = C:\Users\Docking\Desktop\test protocol\1iep_ligandH.pdb
REMARK  8 active torsions:
REMARK  status: ('A' for Active; 'I' for Inactive)
REMARK    1  A    between atoms: _5  and  _11
REMARK    2  A    between atoms: _19  and  _21
REMARK    3  A    between atoms: _22  and  _66
REMARK    4  A    between atoms: _27  and  _30
REMARK    5  A    between atoms: _32  and  _33
REMARK    6  A    between atoms: _38  and  _43
REMARK    7  A    between atoms: _43  and  _46
REMARK    8  A    between atoms: _53  and  _55
REMARK                            x       y       z     vdW  Elec       q    Type
REMARK                         _______ _______ _______ _____ _____    ______ ____
ROOT
ATOM     10  C   UNL     1    -108.375 -81.320 -29.823  0.00  0.00    +0.038 A 
ATOM     11  C   UNL     1    -109.317 -80.682 -28.975  0.00  0.00    +0.047 A 
ATOM     12  C   UNL     1    -109.413 -79.232 -28.915  0.00  0.00    +0.035 A 
ATOM     32  C   UNL     1    -108.537 -78.462 -29.734  0.00  0.00    +0.024 A 
ATOM     33  C   UNL     1    -107.574 -79.093 -30.601  0.00  0.00    +0.007 A 
ATOM     34  C   UNL     1    -107.472 -80.523 -30.663  0.00  0.00    -0.029 A 
ATOM     35  C   UNL     1    -106.417 -81.146 -31.606  0.00  0.00    +0.045 C 
ENDROOT
BRANCH  10   9
ATOM      4  C   UNL     1    -110.110 -85.599 -31.133  0.00  0.00    +0.077 A 
ATOM      5  C   UNL     1    -111.224 -85.006 -31.815  0.00  0.00    +0.048 A 
ATOM      6  C   UNL     1    -111.318 -83.596 -31.798  0.00  0.00    +0.116 A 
ATOM      7  N   UNL     1    -110.363 -82.846 -31.147  0.00  0.00    -0.223 NA
ATOM      8  C   UNL     1    -109.302 -83.450 -30.498  0.00  0.00    +0.220 A 
ATOM      9  N   UNL     1    -108.326 -82.716 -29.842  0.00  0.00    -0.283 N 
ATOM     36  H   UNL     1    -107.563 -83.199 -29.369  0.00  0.00    +0.155 HD
ATOM     37  N   UNL     1    -109.191 -84.795 -30.497  0.00  0.00    -0.214 NA
BRANCH   4   3
ATOM      1  C   UNL     1    -109.958 -89.403 -32.033  0.00  0.00    +0.020 A 
ATOM      2  C   UNL     1    -110.210 -87.985 -32.151  0.00  0.00    +0.013 A 
ATOM      3  C   UNL     1    -109.871 -87.076 -31.064  0.00  0.00    +0.019 A 
ATOM     38  C   UNL     1    -109.272 -87.637 -29.862  0.00  0.00    +0.120 A 
ATOM     39  N   UNL     1    -109.043 -89.007 -29.777  0.00  0.00    -0.263 NA
ATOM     40  C   UNL     1    -109.367 -89.892 -30.816  0.00  0.00    +0.111 A 
ENDBRANCH   4   3
ENDBRANCH  10   9
BRANCH  12  13
ATOM     13  N   UNL     1    -110.344 -78.529 -28.067  0.00  0.00    -0.281 N 
ATOM     14  C   UNL     1    -111.631 -78.904 -27.720  0.00  0.00    +0.248 C 
ATOM     30  O   UNL     1    -112.259 -79.802 -28.261  0.00  0.00    -0.270 OA
ATOM     31  H   UNL     1    -110.013 -77.647 -27.675  0.00  0.00    +0.155 HD
BRANCH  14  15
ATOM     15  C   UNL     1    -112.327 -78.166 -26.623  0.00  0.00    +0.037 A 
ATOM     16  C   UNL     1    -113.619 -77.512 -26.848  0.00  0.00    +0.013 A 
ATOM     17  C   UNL     1    -114.261 -76.791 -25.777  0.00  0.00    +0.005 A 
ATOM     18  C   UNL     1    -113.612 -76.723 -24.470  0.00  0.00    -0.033 A 
ATOM     28  C   UNL     1    -112.333 -77.385 -24.273  0.00  0.00    +0.005 A 
ATOM     29  C   UNL     1    -111.701 -78.091 -25.320  0.00  0.00    +0.013 A 
BRANCH  18  19
ATOM     19  C   UNL     1    -114.215 -75.958 -23.276  0.00  0.00    +0.119 C 
BRANCH  19  20
ATOM     20  N   UNL     1    -115.437 -75.140 -23.535  0.00  0.00    -0.302 NA
ATOM     21  C   UNL     1    -115.140 -73.638 -23.501  0.00  0.00    +0.066 C 
ATOM     22  C   UNL     1    -116.425 -72.797 -23.796  0.00  0.00    -0.064 C 
ATOM     23  N   UNL     1    -117.511 -73.158 -22.781  0.00  0.00    +0.379 N 
ATOM     24  C   UNL     1    -118.701 -72.327 -23.019  0.00  0.00    -0.096 C 
ATOM     25  H   UNL     1    -117.122 -72.908 -21.766  0.00  0.00    -0.082 HD
ATOM     26  C   UNL     1    -117.810 -74.650 -22.805  0.00  0.00    -0.064 C 
ATOM     27  C   UNL     1    -116.521 -75.477 -22.541  0.00  0.00    +0.066 C 
ENDBRANCH  19  20
ENDBRANCH  18  19
ENDBRANCH  14  15
ENDBRANCH  12  13
TORSDOF 6
ENDMDL
MODEL 3
REMARK VINA RESULT:     -10.0     31.492     38.736
REMARK  Name = C:\Users\Docking\Desktop\test protocol\1iep_ligandH.pdb
REMARK  8 active torsions:
REMARK  status: ('A' for Active; 'I' for Inactive)
REMARK    1  A    between atoms: _5  and  _11
REMARK    2  A    between atoms: _19  and  _21
REMARK    3  A    between atoms: _22  and  _66
REMARK    4  A    between atoms: _27  and  _30
REMARK    5  A    between atoms: _32  and  _33
REMARK    6  A    between atoms: _38  and  _43
REMARK    7  A    between atoms: _43  and  _46
REMARK    8  A    between atoms: _53  and  _55
REMARK                            x       y       z     vdW  Elec       q    Type
REMARK                         _______ _______ _______ _____ _____    ______ ____
ROOT
ATOM     10  C   UNL     1     -73.547 -82.132  -8.696  0.00  0.00    +0.038 A 
ATOM     11  C   UNL     1     -74.801 -81.988  -8.049  0.00  0.00    +0.047 A 
ATOM     12  C   UNL     1     -76.010 -82.565  -8.617  0.00  0.00    +0.035 A 
ATOM     32  C   UNL     1     -75.905 -83.284  -9.843  0.00  0.00    +0.024 A 
ATOM     33  C   UNL     1     -74.638 -83.438 -10.514  0.00  0.00    +0.007 A 
ATOM     34  C   UNL     1     -73.442 -82.870  -9.960  0.00  0.00    -0.029 A 
ATOM     35  C   UNL     1     -72.113 -83.061 -10.726  0.00  0.00    +0.045 C 
ENDROOT
BRANCH  10   9
ATOM      4  C   UNL     1     -69.482 -82.428  -6.160  0.00  0.00    +0.077 A 
ATOM      5  C   UNL     1     -69.634 -83.842  -5.971  0.00  0.00    +0.048 A 
ATOM      6  C   UNL     1     -70.775 -84.453  -6.536  0.00  0.00    +0.116 A 
ATOM      7  N   UNL     1     -71.690 -83.698  -7.237  0.00  0.00    -0.223 NA
ATOM      8  C   UNL     1     -71.515 -82.336  -7.399  0.00  0.00    +0.220 A 
ATOM      9  N   UNL     1     -72.418 -81.557  -8.106  0.00  0.00    -0.283 N 
ATOM     36  H   UNL     1     -72.257 -80.555  -8.197  0.00  0.00    +0.155 HD
ATOM     37  N   UNL     1     -70.434 -81.728  -6.868  0.00  0.00    -0.214 NA
BRANCH   4   3
ATOM      1  C   UNL     1     -66.296 -80.171  -5.919  0.00  0.00    +0.020 A 
ATOM      2  C   UNL     1     -67.395 -80.919  -6.485  0.00  0.00    +0.013 A 
ATOM      3  C   UNL     1     -68.328 -81.638  -5.626  0.00  0.00    +0.019 A 
ATOM     38  C   UNL     1     -68.119 -81.579  -4.188  0.00  0.00    +0.120 A 
ATOM     39  N   UNL     1     -67.052 -80.852  -3.671  0.00  0.00    -0.263 NA
ATOM     40  C   UNL     1     -66.147 -80.157  -4.488  0.00  0.00    +0.111 A 
ENDBRANCH   4   3
ENDBRANCH  10   9
BRANCH  12  13
ATOM     13  N   UNL     1     -77.313 -82.445  -8.010  0.00  0.00    -0.281 N 
ATOM     14  C   UNL     1     -77.988 -81.286  -7.664  0.00  0.00    +0.248 C 
ATOM     30  O   UNL     1     -77.480 -80.175  -7.627  0.00  0.00    -0.270 OA
ATOM     31  H   UNL     1     -77.796 -83.321  -7.812  0.00  0.00    +0.155 HD
BRANCH  14  15
ATOM     15  C   UNL     1     -79.432 -81.376  -7.290  0.00  0.00    +0.037 A 
ATOM     16  C   UNL     1     -79.896 -82.323  -6.273  0.00  0.00    +0.013 A 
ATOM     17  C   UNL     1     -81.297 -82.401  -5.943  0.00  0.00    +0.005 A 
ATOM     18  C   UNL     1     -82.245 -81.527  -6.631  0.00  0.00    -0.033 A 
ATOM     28  C   UNL     1     -81.756 -80.593  -7.631  0.00  0.00    +0.005 A 
ATOM     29  C   UNL     1     -80.384 -80.514  -7.958  0.00  0.00    +0.013 A 
BRANCH  18  19
ATOM     19  C   UNL     1     -83.760 -81.557  -6.358  0.00  0.00    +0.119 C 
BRANCH  19  20
ATOM     20  N   UNL     1     -84.267 -80.727  -5.225  0.00  0.00    -0.302 NA
ATOM     21  C   UNL     1     -84.788 -79.366  -5.697  0.00  0.00    +0.066 C 
ATOM     22  C   UNL     1     -85.336 -78.520  -4.502  0.00  0.00    -0.064 C 
ATOM     23  N   UNL     1     -84.232 -78.344  -3.458  0.00  0.00    +0.379 N 
ATOM     24  C   UNL     1     -84.725 -77.500  -2.360  0.00  0.00    -0.096 C 
ATOM     25  H   UNL     1     -83.388 -77.804  -3.946  0.00  0.00    -0.082 HD
ATOM     26  C   UNL     1     -83.706 -79.692  -2.984  0.00  0.00    -0.064 C 
ATOM     27  C   UNL     1     -83.192 -80.537  -4.183  0.00  0.00    +0.066 C 
ENDBRANCH  19  20
ENDBRANCH  18  19
ENDBRANCH  14  15
ENDBRANCH  12  13
TORSDOF 6
ENDMDL
MODEL 4
REMARK VINA RESULT:      -9.9     39.430     43.681
REMARK  Name = C:\Users\Docking\Desktop\test protocol\1iep_ligandH.pdb
REMARK  8 active torsions:
REMARK  status: ('A' for Active; 'I' for Inactive)
REMARK    1  A    between atoms: _5  and  _11
REMARK    2  A    between atoms: _19  and  _21
REMARK    3  A    between atoms: _22  and  _66
REMARK    4  A    between atoms: _27  and  _30
REMARK    5  A    between atoms: _32  and  _33
REMARK    6  A    between atoms: _38  and  _43
REMARK    7  A    between atoms: _43  and  _46
REMARK    8  A    between atoms: _53  and  _55
REMARK                            x       y       z     vdW  Elec       q    Type
REMARK                         _______ _______ _______ _____ _____    ______ ____
ROOT
ATOM     10  C   UNL     1    -144.221 -61.389 -14.639  0.00  0.00    +0.038 A 
ATOM     11  C   UNL     1    -144.871 -62.047 -15.715  0.00  0.00    +0.047 A 
ATOM     12  C   UNL     1    -144.429 -61.860 -17.088  0.00  0.00    +0.035 A 
ATOM     32  C   UNL     1    -143.319 -60.998 -17.330  0.00  0.00    +0.024 A 
ATOM     33  C   UNL     1    -142.648 -60.321 -16.248  0.00  0.00    +0.007 A 
ATOM     34  C   UNL     1    -143.082 -60.499 -14.892  0.00  0.00    -0.029 A 
ATOM     35  C   UNL     1    -142.329 -59.743 -13.773  0.00  0.00    +0.045 C 
ENDROOT
BRANCH  10   9
ATOM      4  C   UNL     1    -144.098 -63.680 -10.424  0.00  0.00    +0.077 A 
ATOM      5  C   UNL     1    -143.033 -64.539 -10.854  0.00  0.00    +0.048 A 
ATOM      6  C   UNL     1    -142.549 -64.363 -12.170  0.00  0.00    +0.116 A 
ATOM      7  N   UNL     1    -143.098 -63.398 -12.986  0.00  0.00    -0.223 NA
ATOM      8  C   UNL     1    -144.126 -62.587 -12.540  0.00  0.00    +0.220 A 
ATOM      9  N   UNL     1    -144.688 -61.605 -13.341  0.00  0.00    -0.283 N 
ATOM     36  H   UNL     1    -145.449 -61.032 -12.977  0.00  0.00    +0.155 HD
ATOM     37  N   UNL     1    -144.606 -62.736 -11.288  0.00  0.00    -0.214 NA
BRANCH   4   3
ATOM      1  C   UNL     1    -144.910 -62.990  -6.660  0.00  0.00    +0.020 A 
ATOM      2  C   UNL     1    -144.282 -62.891  -7.957  0.00  0.00    +0.013 A 
ATOM      3  C   UNL     1    -144.713 -63.741  -9.060  0.00  0.00    +0.019 A 
ATOM     38  C   UNL     1    -145.792 -64.687  -8.815  0.00  0.00    +0.120 A 
ATOM     39  N   UNL     1    -146.376 -64.761  -7.554  0.00  0.00    -0.263 NA
ATOM     40  C   UNL     1    -145.968 -63.949  -6.485  0.00  0.00    +0.111 A 
ENDBRANCH   4   3
ENDBRANCH  10   9
BRANCH  12  13
ATOM     13  N   UNL     1    -145.054 -62.495 -18.222  0.00  0.00    -0.281 N 
ATOM     14  C   UNL     1    -146.304 -62.237 -18.761  0.00  0.00    +0.248 C 
ATOM     30  O   UNL     1    -147.165 -61.563 -18.215  0.00  0.00    -0.270 OA
ATOM     31  H   UNL     1    -144.509 -63.224 -18.683  0.00  0.00    +0.155 HD
BRANCH  14  15
ATOM     15  C   UNL     1    -146.652 -62.823 -20.091  0.00  0.00    +0.037 A 
ATOM     16  C   UNL     1    -146.512 -62.044 -21.324  0.00  0.00    +0.013 A 
ATOM     17  C   UNL     1    -146.871 -62.628 -22.592  0.00  0.00    +0.005 A 
ATOM     18  C   UNL     1    -147.373 -64.000 -22.633  0.00  0.00    -0.033 A 
ATOM     28  C   UNL     1    -147.496 -64.751 -21.395  0.00  0.00    +0.005 A 
ATOM     29  C   UNL     1    -147.146 -64.182 -20.150  0.00  0.00    +0.013 A 
BRANCH  18  19
ATOM     19  C   UNL     1    -147.799 -64.695 -23.939  0.00  0.00    +0.119 C 
BRANCH  19  20
ATOM     20  N   UNL     1    -146.721 -65.051 -24.909  0.00  0.00    -0.302 NA
ATOM     21  C   UNL     1    -145.414 -65.423 -24.203  0.00  0.00    +0.066 C 
ATOM     22  C   UNL     1    -144.303 -65.814 -25.232  0.00  0.00    -0.064 C 
ATOM     23  N   UNL     1    -144.082 -64.654 -26.204  0.00  0.00    +0.379 N 
ATOM     24  C   UNL     1    -142.997 -64.996 -27.137  0.00  0.00    -0.096 C 
ATOM     25  H   UNL     1    -143.750 -63.772 -25.608  0.00  0.00    -0.082 HD
ATOM     26  C   UNL     1    -145.377 -64.275 -26.908  0.00  0.00    -0.064 C 
ATOM     27  C   UNL     1    -146.483 -63.917 -25.876  0.00  0.00    +0.066 C 
ENDBRANCH  19  20
ENDBRANCH  18  19
ENDBRANCH  14  15
ENDBRANCH  12  13
TORSDOF 6
ENDMDL
MODEL 5
REMARK VINA RESULT:      -9.8     40.337     43.488
REMARK  Name = C:\Users\Docking\Desktop\test protocol\1iep_ligandH.pdb
REMARK  8 active torsions:
REMARK  status: ('A' for Active; 'I' for Inactive)
REMARK    1  A    between atoms: _5  and  _11
REMARK    2  A    between atoms: _19  and  _21
REMARK    3  A    between atoms: _22  and  _66
REMARK    4  A    between atoms: _27  and  _30
REMARK    5  A    between atoms: _32  and  _33
REMARK    6  A    between atoms: _38  and  _43
REMARK    7  A    between atoms: _43  and  _46
REMARK    8  A    between atoms: _53  and  _55
REMARK                            x       y       z     vdW  Elec       q    Type
REMARK                         _______ _______ _______ _____ _____    ______ ____
ROOT
ATOM     10  C   UNL     1    -144.346 -61.277 -15.668  0.00  0.00    +0.038 A 
ATOM     11  C   UNL     1    -144.619 -62.065 -14.521  0.00  0.00    +0.047 A 
ATOM     12  C   UNL     1    -143.963 -61.797 -13.250  0.00  0.00    +0.035 A 
ATOM     32  C   UNL     1    -143.036 -60.716 -13.183  0.00  0.00    +0.024 A 
ATOM     33  C   UNL     1    -142.746 -59.906 -14.340  0.00  0.00    +0.007 A 
ATOM     34  C   UNL     1    -143.388 -60.167 -15.597  0.00  0.00    -0.029 A 
ATOM     35  C   UNL     1    -143.033 -59.270 -16.805  0.00  0.00    +0.045 C 
ENDROOT
BRANCH  10   9
ATOM      4  C   UNL     1    -144.601 -63.493 -19.918  0.00  0.00    +0.077 A 
ATOM      5  C   UNL     1    -143.301 -64.077 -19.758  0.00  0.00    +0.048 A 
ATOM      6  C   UNL     1    -142.596 -63.777 -18.570  0.00  0.00    +0.116 A 
ATOM      7  N   UNL     1    -143.160 -62.953 -17.621  0.00  0.00    -0.223 NA
ATOM      8  C   UNL     1    -144.415 -62.404 -17.807  0.00  0.00    +0.220 A 
ATOM      9  N   UNL     1    -145.005 -61.579 -16.862  0.00  0.00    -0.283 N 
ATOM     36  H   UNL     1    -145.929 -61.188 -17.041  0.00  0.00    +0.155 HD
ATOM     37  N   UNL     1    -145.108 -62.674 -18.933  0.00  0.00    -0.214 NA
BRANCH   4   3
ATOM      1  C   UNL     1    -147.263 -63.008 -22.743  0.00  0.00    +0.020 A 
ATOM      2  C   UNL     1    -146.448 -62.742 -21.580  0.00  0.00    +0.013 A 
ATOM      3  C   UNL     1    -145.470 -63.718 -21.116  0.00  0.00    +0.019 A 
ATOM     38  C   UNL     1    -145.338 -64.962 -21.859  0.00  0.00    +0.120 A 
ATOM     39  N   UNL     1    -146.137 -65.192 -22.974  0.00  0.00    -0.263 NA
ATOM     40  C   UNL     1    -147.083 -64.261 -23.429  0.00  0.00    +0.111 A 
ENDBRANCH   4   3
ENDBRANCH  10   9
BRANCH  12  13
ATOM     13  N   UNL     1    -144.195 -62.567 -12.054  0.00  0.00    -0.281 N 
ATOM     14  C   UNL     1    -144.990 -62.237 -10.968  0.00  0.00    +0.248 C 
ATOM     30  O   UNL     1    -145.457 -61.126 -10.766  0.00  0.00    -0.270 OA
ATOM     31  H   UNL     1    -143.714 -63.466 -12.001  0.00  0.00    +0.155 HD
BRANCH  14  15
ATOM     15  C   UNL     1    -145.299 -63.289  -9.953  0.00  0.00    +0.037 A 
ATOM     16  C   UNL     1    -145.220 -64.714 -10.286  0.00  0.00    +0.013 A 
ATOM     17  C   UNL     1    -145.539 -65.708  -9.293  0.00  0.00    +0.005 A 
ATOM     18  C   UNL     1    -145.940 -65.280  -7.955  0.00  0.00    -0.033 A 
ATOM     28  C   UNL     1    -146.005 -63.861  -7.649  0.00  0.00    +0.005 A 
ATOM     29  C   UNL     1    -145.693 -62.883  -8.621  0.00  0.00    +0.013 A 
BRANCH  18  19
ATOM     19  C   UNL     1    -146.319 -66.271  -6.838  0.00  0.00    +0.119 C 
BRANCH  19  20
ATOM     20  N   UNL     1    -145.249 -67.188  -6.345  0.00  0.00    -0.302 NA
ATOM     21  C   UNL     1    -145.396 -68.602  -6.914  0.00  0.00    +0.066 C 
ATOM     22  C   UNL     1    -144.255 -69.542  -6.405  0.00  0.00    -0.064 C 
ATOM     23  N   UNL     1    -144.265 -69.570  -4.876  0.00  0.00    +0.379 N 
ATOM     24  C   UNL     1    -143.230 -70.498  -4.396  0.00  0.00    -0.096 C 
ATOM     25  H   UNL     1    -145.254 -69.968  -4.551  0.00  0.00    -0.082 HD
ATOM     26  C   UNL     1    -144.121 -68.168  -4.302  0.00  0.00    -0.064 C 
ATOM     27  C   UNL     1    -145.243 -67.234  -4.837  0.00  0.00    +0.066 C 
ENDBRANCH  19  20
ENDBRANCH  18  19
ENDBRANCH  14  15
ENDBRANCH  12  13
TORSDOF 6
ENDMDL
