MODEL 1
REMARK VINA RESULT:     -10.3      0.000      0.000
REMARK  Name = C:\Users\Docking\Desktop\test protocol\1iep_ligandH.pdb
REMARK  8 active torsions:
REMARK  status: ('A' for Active; 'I' for Inactive)
REMARK    1  A    between atoms: _5  and  _11
REMARK    2  A    between atoms: _19  and  _21
REMARK    3  A    between atoms: _22  and  _66
REMARK    4  A    between atoms: _27  and  _30
REMARK    5  A    between atoms: _32  and  _33
REMARK    6  A    between atoms: _38  and  _43
REMARK    7  A    between atoms: _43  and  _46
REMARK    8  A    between atoms: _53  and  _55
REMARK                            x       y       z     vdW  Elec       q    Type
REMARK                         _______ _______ _______ _____ _____    ______ ____
ROOT
ATOM     10  C   UNL     1    -108.366 -77.179 -26.496  0.00  0.00    +0.038 A 
ATOM     11  C   UNL     1    -107.192 -76.578 -25.974  0.00  0.00    +0.047 A 
ATOM     12  C   UNL     1    -105.953 -76.560 -26.736  0.00  0.00    +0.035 A 
ATOM     32  C   UNL     1    -105.946 -77.161 -28.029  0.00  0.00    +0.024 A 
ATOM     33  C   UNL     1    -107.130 -77.777 -28.575  0.00  0.00    +0.007 A 
ATOM     34  C   UNL     1    -108.354 -77.800 -27.826  0.00  0.00    -0.029 A 
ATOM     35  C   UNL     1    -109.591 -78.480 -28.458  0.00  0.00    +0.045 C 
ENDROOT
BRANCH  10   9
ATOM      4  C   UNL     1    -112.449 -75.134 -25.019  0.00  0.00    +0.077 A 
ATOM      5  C   UNL     1    -112.237 -73.977 -25.841  0.00  0.00    +0.048 A 
ATOM      6  C   UNL     1    -111.061 -73.945 -26.623  0.00  0.00    +0.116 A 
ATOM      7  N   UNL     1    -110.171 -74.996 -26.579  0.00  0.00    -0.223 NA
ATOM      8  C   UNL     1    -110.405 -76.096 -25.774  0.00  0.00    +0.220 A 
ATOM      9  N   UNL     1    -109.527 -77.168 -25.721  0.00  0.00    -0.283 N 
ATOM     36  H   UNL     1    -109.733 -77.957 -25.109  0.00  0.00    +0.155 HD
ATOM     37  N   UNL     1    -111.520 -76.150 -25.017  0.00  0.00    -0.214 NA
BRANCH   4   3
ATOM      1  C   UNL     1    -115.511 -76.706 -23.161  0.00  0.00    +0.020 A 
ATOM      2  C   UNL     1    -114.361 -76.582 -24.026  0.00  0.00    +0.013 A 
ATOM      3  C   UNL     1    -113.646 -75.317 -24.138  0.00  0.00    +0.019 A 
ATOM     38  C   UNL     1    -114.123 -74.188 -23.353  0.00  0.00    +0.120 A 
ATOM     39  N   UNL     1    -115.234 -74.337 -22.529  0.00  0.00    -0.263 NA
ATOM     40  C   UNL     1    -115.932 -75.549 -22.415  0.00  0.00    +0.111 A 
ENDBRANCH   4   3
ENDBRANCH  10   9
BRANCH  12  13
ATOM     13  N   UNL     1    -104.728 -75.972 -26.255  0.00  0.00    -0.281 N 
ATOM     14  C   UNL     1    -104.431 -74.627 -26.101  0.00  0.00    +0.248 C 
ATOM     30  O   UNL     1    -105.103 -73.715 -26.559  0.00  0.00    -0.270 OA
ATOM     31  H   UNL     1    -103.989 -76.626 -25.996  0.00  0.00    +0.155 HD
BRANCH  14  15
ATOM     15  C   UNL     1    -103.203 -74.241 -25.342  0.00  0.00    +0.037 A 
ATOM     16  C   UNL     1    -102.335 -73.155 -25.803  0.00  0.00    +0.013 A 
ATOM     17  C   UNL     1    -101.147 -72.814 -25.061  0.00  0.00    +0.005 A 
ATOM     18  C   UNL     1    -100.821 -73.560 -23.848  0.00  0.00    -0.033 A 
ATOM     28  C   UNL     1    -101.703 -74.629 -23.410  0.00  0.00    +0.005 A 
ATOM     29  C   UNL     1    -102.868 -74.967 -24.136  0.00  0.00    +0.013 A 
BRANCH  18  19
ATOM     19  C   UNL     1     -99.563 -73.279 -23.005  0.00  0.00    +0.119 C 
BRANCH  19  20
ATOM     20  N   UNL     1     -98.320 -72.898 -23.739  0.00  0.00    -0.302 NA
ATOM     21  C   UNL     1     -97.857 -74.000 -24.696  0.00  0.00    +0.066 C 
ATOM     22  C   UNL     1     -96.568 -73.575 -25.472  0.00  0.00    -0.064 C 
ATOM     23  N   UNL     1     -95.464 -73.229 -24.471  0.00  0.00    +0.379 N 
ATOM     24  C   UNL     1     -94.233 -72.885 -25.197  0.00  0.00    -0.096 C 
ATOM     25  H   UNL     1     -95.257 -74.142 -23.867  0.00  0.00    -0.082 HD
ATOM     26  C   UNL     1     -95.917 -72.135 -23.514  0.00  0.00    -0.064 C 
ATOM     27  C   UNL     1     -97.216 -72.555 -22.769  0.00  0.00    +0.066 C 
ENDBRANCH  19  20
ENDBRANCH  18  19
ENDBRANCH  14  15
ENDBRANCH  12  13
TORSDOF 6
ENDMDL
MODEL 2
REMARK VINA RESULT:     -10.2      1.647      2.197
REMARK  Name = C:\Users\Docking\Desktop\test protocol\1iep_ligandH.pdb
REMARK  8 active torsions:
REMARK  status: ('A' for Active; 'I' for Inactive)
REMARK    1  A    between atoms: _5  and  _11
REMARK    2  A    between atoms: _19  and  _21
REMARK    3  A    between atoms: _22  and  _66
REMARK    4  A    between atoms: _27  and  _30
REMARK    5  A    between atoms: _32  and  _33
REMARK    6  A    between atoms: _38  and  _43
REMARK    7  A    between atoms: _43  and  _46
REMARK    8  A    between atoms: _53  and  _55
REMARK                            x       y       z     vdW  Elec       q    Type
REMARK                         _______ _______ _______ _____ _____    ______ ____
ROOT
ATOM     10  C   UNL     1    -108.372 -76.587 -27.633  0.00  0.00    +0.038 A 
ATOM     11  C   UNL     1    -107.419 -75.795 -26.942  0.00  0.00    +0.047 A 
ATOM     12  C   UNL     1    -105.992 -75.989 -27.144  0.00  0.00    +0.035 A 
ATOM     32  C   UNL     1    -105.570 -76.998 -28.058  0.00  0.00    +0.024 A 
ATOM     33  C   UNL     1    -106.525 -77.813 -28.767  0.00  0.00    +0.007 A 
ATOM     34  C   UNL     1    -107.934 -77.627 -28.571  0.00  0.00    -0.029 A 
ATOM     35  C   UNL     1    -108.912 -78.534 -29.353  0.00  0.00    +0.045 C 
ENDROOT
BRANCH  10   9
ATOM      4  C   UNL     1    -112.446 -77.370 -25.218  0.00  0.00    +0.077 A 
ATOM      5  C   UNL     1    -111.822 -78.337 -24.363  0.00  0.00    +0.048 A 
ATOM      6  C   UNL     1    -110.453 -78.610 -24.582  0.00  0.00    +0.116 A 
ATOM      7  N   UNL     1    -109.769 -77.958 -25.584  0.00  0.00    -0.223 NA
ATOM      8  C   UNL     1    -110.401 -77.031 -26.392  0.00  0.00    +0.220 A 
ATOM      9  N   UNL     1    -109.730 -76.357 -27.401  0.00  0.00    -0.283 N 
ATOM     36  H   UNL     1    -110.234 -75.686 -27.981  0.00  0.00    +0.155 HD
ATOM     37  N   UNL     1    -111.708 -76.754 -26.205  0.00  0.00    -0.214 NA
BRANCH   4   3
ATOM      1  C   UNL     1    -115.903 -76.215 -23.798  0.00  0.00    +0.020 A 
ATOM      2  C   UNL     1    -114.509 -76.592 -23.848  0.00  0.00    +0.013 A 
ATOM      3  C   UNL     1    -113.885 -76.971 -25.110  0.00  0.00    +0.019 A 
ATOM     38  C   UNL     1    -114.705 -76.957 -26.311  0.00  0.00    +0.120 A 
ATOM     39  N   UNL     1    -116.045 -76.590 -26.232  0.00  0.00    -0.263 NA
ATOM     40  C   UNL     1    -116.657 -76.226 -25.023  0.00  0.00    +0.111 A 
ENDBRANCH   4   3
ENDBRANCH  10   9
BRANCH  12  13
ATOM     13  N   UNL     1    -104.978 -75.221 -26.465  0.00  0.00    -0.281 N 
ATOM     14  C   UNL     1    -104.167 -75.620 -25.415  0.00  0.00    +0.248 C 
ATOM     30  O   UNL     1    -104.340 -76.635 -24.755  0.00  0.00    -0.270 OA
ATOM     31  H   UNL     1    -104.841 -74.267 -26.799  0.00  0.00    +0.155 HD
BRANCH  14  15
ATOM     15  C   UNL     1    -103.006 -74.761 -25.032  0.00  0.00    +0.037 A 
ATOM     16  C   UNL     1    -102.330 -74.927 -23.742  0.00  0.00    +0.013 A 
ATOM     17  C   UNL     1    -101.223 -74.073 -23.391  0.00  0.00    +0.005 A 
ATOM     18  C   UNL     1    -100.783 -73.047 -24.333  0.00  0.00    -0.033 A 
ATOM     28  C   UNL     1    -101.467 -72.909 -25.608  0.00  0.00    +0.005 A 
ATOM     29  C   UNL     1    -102.553 -73.743 -25.955  0.00  0.00    +0.013 A 
BRANCH  18  19
ATOM     19  C   UNL     1     -99.623 -72.079 -24.033  0.00  0.00    +0.119 C 
BRANCH  19  20
ATOM     20  N   UNL     1     -98.306 -72.369 -24.675  0.00  0.00    -0.302 NA
ATOM     21  C   UNL     1     -97.613 -73.578 -24.042  0.00  0.00    +0.066 C 
ATOM     22  C   UNL     1     -96.247 -73.881 -24.741  0.00  0.00    -0.064 C 
ATOM     23  N   UNL     1     -95.353 -72.643 -24.664  0.00  0.00    +0.379 N 
ATOM     24  C   UNL     1     -94.047 -72.943 -25.269  0.00  0.00    -0.096 C 
ATOM     25  H   UNL     1     -95.183 -72.415 -23.586  0.00  0.00    -0.082 HD
ATOM     26  C   UNL     1     -96.036 -71.435 -25.289  0.00  0.00    -0.064 C 
ATOM     27  C   UNL     1     -97.406 -71.160 -24.608  0.00  0.00    +0.066 C 
ENDBRANCH  19  20
ENDBRANCH  18  19
ENDBRANCH  14  15
ENDBRANCH  12  13
TORSDOF 6
ENDMDL
MODEL 3
REMARK VINA RESULT:     -10.0      3.359      6.371
REMARK  Name = C:\Users\Docking\Desktop\test protocol\1iep_ligandH.pdb
REMARK  8 active torsions:
REMARK  status: ('A' for Active; 'I' for Inactive)
REMARK    1  A    between atoms: _5  and  _11
REMARK    2  A    between atoms: _19  and  _21
REMARK    3  A    between atoms: _22  and  _66
REMARK    4  A    between atoms: _27  and  _30
REMARK    5  A    between atoms: _32  and  _33
REMARK    6  A    between atoms: _38  and  _43
REMARK    7  A    between atoms: _43  and  _46
REMARK    8  A    between atoms: _53  and  _55
REMARK                            x       y       z     vdW  Elec       q    Type
REMARK                         _______ _______ _______ _____ _____    ______ ____
ROOT
ATOM     10  C   UNL     1    -110.229 -78.022 -26.729  0.00  0.00    +0.038 A 
ATOM     11  C   UNL     1    -108.865 -77.707 -26.506  0.00  0.00    +0.047 A 
ATOM     12  C   UNL     1    -108.475 -76.467 -25.854  0.00  0.00    +0.035 A 
ATOM     32  C   UNL     1    -109.503 -75.571 -25.438  0.00  0.00    +0.024 A 
ATOM     33  C   UNL     1    -110.895 -75.875 -25.657  0.00  0.00    +0.007 A 
ATOM     34  C   UNL     1    -111.285 -77.096 -26.302  0.00  0.00    -0.029 A 
ATOM     35  C   UNL     1    -112.793 -77.367 -26.517  0.00  0.00    +0.045 C 
ENDROOT
BRANCH  10   9
ATOM      4  C   UNL     1    -109.491 -81.355 -30.102  0.00  0.00    +0.077 A 
ATOM      5  C   UNL     1    -108.398 -80.621 -30.672  0.00  0.00    +0.048 A 
ATOM      6  C   UNL     1    -108.063 -79.387 -30.072  0.00  0.00    +0.116 A 
ATOM      7  N   UNL     1    -108.773 -78.931 -28.983  0.00  0.00    -0.223 NA
ATOM      8  C   UNL     1    -109.823 -79.663 -28.459  0.00  0.00    +0.220 A 
ATOM      9  N   UNL     1    -110.546 -79.227 -27.360  0.00  0.00    -0.283 N 
ATOM     36  H   UNL     1    -111.318 -79.793 -27.008  0.00  0.00    +0.155 HD
ATOM     37  N   UNL     1    -110.164 -80.844 -29.015  0.00  0.00    -0.214 NA
BRANCH   4   3
ATOM      1  C   UNL     1    -111.530 -84.116 -31.979  0.00  0.00    +0.020 A 
ATOM      2  C   UNL     1    -111.116 -82.816 -31.504  0.00  0.00    +0.013 A 
ATOM      3  C   UNL     1    -109.963 -82.677 -30.623  0.00  0.00    +0.019 A 
ATOM     38  C   UNL     1    -109.245 -83.883 -30.238  0.00  0.00    +0.120 A 
ATOM     39  N   UNL     1    -109.669 -85.122 -30.710  0.00  0.00    -0.263 NA
ATOM     40  C   UNL     1    -110.777 -85.268 -31.557  0.00  0.00    +0.111 A 
ENDBRANCH   4   3
ENDBRANCH  10   9
BRANCH  12  13
ATOM     13  N   UNL     1    -107.106 -76.089 -25.608  0.00  0.00    -0.281 N 
ATOM     14  C   UNL     1    -106.144 -75.724 -26.536  0.00  0.00    +0.248 C 
ATOM     30  O   UNL     1    -106.256 -75.874 -27.744  0.00  0.00    -0.270 OA
ATOM     31  H   UNL     1    -106.809 -76.091 -24.632  0.00  0.00    +0.155 HD
BRANCH  14  15
ATOM     15  C   UNL     1    -104.866 -75.119 -26.051  0.00  0.00    +0.037 A 
ATOM     16  C   UNL     1    -104.083 -75.748 -24.985  0.00  0.00    +0.013 A 
ATOM     17  C   UNL     1    -102.863 -75.134 -24.524  0.00  0.00    +0.005 A 
ATOM     18  C   UNL     1    -102.418 -73.882 -25.132  0.00  0.00    -0.033 A 
ATOM     28  C   UNL     1    -103.211 -73.282 -26.192  0.00  0.00    +0.005 A 
ATOM     29  C   UNL     1    -104.408 -73.880 -26.645  0.00  0.00    +0.013 A 
BRANCH  18  19
ATOM     19  C   UNL     1    -101.140 -73.145 -24.689  0.00  0.00    +0.119 C 
BRANCH  19  20
ATOM     20  N   UNL     1    -100.128 -73.932 -23.922  0.00  0.00    -0.302 NA
ATOM     21  C   UNL     1    -100.391 -73.890 -22.414  0.00  0.00    +0.066 C 
ATOM     22  C   UNL     1     -99.336 -74.736 -21.629  0.00  0.00    -0.064 C 
ATOM     23  N   UNL     1     -97.932 -74.221 -21.949  0.00  0.00    +0.379 N 
ATOM     24  C   UNL     1     -96.942 -74.977 -21.168  0.00  0.00    -0.096 C 
ATOM     25  H   UNL     1     -97.880 -73.156 -21.622  0.00  0.00    -0.082 HD
ATOM     26  C   UNL     1     -97.664 -74.257 -23.447  0.00  0.00    -0.064 C 
ATOM     27  C   UNL     1     -98.735 -73.437 -24.220  0.00  0.00    +0.066 C 
ENDBRANCH  19  20
ENDBRANCH  18  19
ENDBRANCH  14  15
ENDBRANCH  12  13
TORSDOF 6
ENDMDL
MODEL 4
REMARK VINA RESULT:      -9.8      1.488      2.205
REMARK  Name = C:\Users\Docking\Desktop\test protocol\1iep_ligandH.pdb
REMARK  8 active torsions:
REMARK  status: ('A' for Active; 'I' for Inactive)
REMARK    1  A    between atoms: _5  and  _11
REMARK    2  A    between atoms: _19  and  _21
REMARK    3  A    between atoms: _22  and  _66
REMARK    4  A    between atoms: _27  and  _30
REMARK    5  A    between atoms: _32  and  _33
REMARK    6  A    between atoms: _38  and  _43
REMARK    7  A    between atoms: _43  and  _46
REMARK    8  A    between atoms: _53  and  _55
REMARK                            x       y       z     vdW  Elec       q    Type
REMARK                         _______ _______ _______ _____ _____    ______ ____
ROOT
ATOM     10  C   UNL     1    -110.053 -77.247 -25.953  0.00  0.00    +0.038 A 
ATOM     11  C   UNL     1    -108.937 -76.455 -25.579  0.00  0.00    +0.047 A 
ATOM     12  C   UNL     1    -107.685 -76.521 -26.317  0.00  0.00    +0.035 A 
ATOM     32  C   UNL     1    -107.606 -77.404 -27.433  0.00  0.00    +0.024 A 
ATOM     33  C   UNL     1    -108.729 -78.217 -27.827  0.00  0.00    +0.007 A 
ATOM     34  C   UNL     1    -109.966 -78.157 -27.101  0.00  0.00    -0.029 A 
ATOM     35  C   UNL     1    -111.136 -79.056 -27.564  0.00  0.00    +0.045 C 
ENDROOT
BRANCH  10   9
ATOM      4  C   UNL     1    -114.275 -75.183 -24.977  0.00  0.00    +0.077 A 
ATOM      5  C   UNL     1    -114.109 -74.213 -26.021  0.00  0.00    +0.048 A 
ATOM      6  C   UNL     1    -112.920 -74.275 -26.781  0.00  0.00    +0.116 A 
ATOM      7  N   UNL     1    -111.974 -75.240 -26.510  0.00  0.00    -0.223 NA
ATOM      8  C   UNL     1    -112.164 -76.159 -25.495  0.00  0.00    +0.220 A 
ATOM      9  N   UNL     1    -111.230 -77.143 -25.209  0.00  0.00    -0.283 N 
ATOM     36  H   UNL     1    -111.405 -77.798 -24.447  0.00  0.00    +0.155 HD
ATOM     37  N   UNL     1    -113.291 -76.120 -24.753  0.00  0.00    -0.214 NA
BRANCH   4   3
ATOM      1  C   UNL     1    -117.779 -76.102 -23.501  0.00  0.00    +0.020 A 
ATOM      2  C   UNL     1    -116.642 -76.074 -24.392  0.00  0.00    +0.013 A 
ATOM      3  C   UNL     1    -115.479 -75.249 -24.090  0.00  0.00    +0.019 A 
ATOM     38  C   UNL     1    -115.498 -74.460 -22.868  0.00  0.00    +0.120 A 
ATOM     39  N   UNL     1    -116.607 -74.506 -22.029  0.00  0.00    -0.263 NA
ATOM     40  C   UNL     1    -117.733 -75.295 -22.311  0.00  0.00    +0.111 A 
ENDBRANCH   4   3
ENDBRANCH  10   9
BRANCH  12  13
ATOM     13  N   UNL     1    -106.517 -75.748 -25.978  0.00  0.00    -0.281 N 
ATOM     14  C   UNL     1    -105.293 -76.209 -25.522  0.00  0.00    +0.248 C 
ATOM     30  O   UNL     1    -105.086 -77.347 -25.130  0.00  0.00    -0.270 OA
ATOM     31  H   UNL     1    -106.602 -74.737 -26.089  0.00  0.00    +0.155 HD
BRANCH  14  15
ATOM     15  C   UNL     1    -104.135 -75.264 -25.481  0.00  0.00    +0.037 A 
ATOM     16  C   UNL     1    -103.201 -75.254 -24.352  0.00  0.00    +0.013 A 
ATOM     17  C   UNL     1    -102.103 -74.322 -24.330  0.00  0.00    +0.005 A 
ATOM     18  C   UNL     1    -101.931 -73.391 -25.444  0.00  0.00    -0.033 A 
ATOM     28  C   UNL     1    -102.869 -73.426 -26.554  0.00  0.00    +0.005 A 
ATOM     29  C   UNL     1    -103.947 -74.338 -26.578  0.00  0.00    +0.013 A 
BRANCH  18  19
ATOM     19  C   UNL     1    -100.799 -72.348 -25.494  0.00  0.00    +0.119 C 
BRANCH  19  20
ATOM     20  N   UNL     1     -99.501 -72.715 -24.854  0.00  0.00    -0.302 NA
ATOM     21  C   UNL     1     -99.218 -71.876 -23.605  0.00  0.00    +0.066 C 
ATOM     22  C   UNL     1     -97.867 -72.289 -22.936  0.00  0.00    -0.064 C 
ATOM     23  N   UNL     1     -96.733 -72.146 -23.952  0.00  0.00    +0.379 N 
ATOM     24  C   UNL     1     -95.453 -72.478 -23.309  0.00  0.00    -0.096 C 
ATOM     25  H   UNL     1     -96.689 -71.076 -24.261  0.00  0.00    -0.082 HD
ATOM     26  C   UNL     1     -97.007 -72.975 -25.199  0.00  0.00    -0.064 C 
ATOM     27  C   UNL     1     -98.366 -72.577 -25.839  0.00  0.00    +0.066 C 
ENDBRANCH  19  20
ENDBRANCH  18  19
ENDBRANCH  14  15
ENDBRANCH  12  13
TORSDOF 6
ENDMDL
MODEL 5
REMARK VINA RESULT:      -9.6     40.347     43.296
REMARK  Name = C:\Users\Docking\Desktop\test protocol\1iep_ligandH.pdb
REMARK  8 active torsions:
REMARK  status: ('A' for Active; 'I' for Inactive)
REMARK    1  A    between atoms: _5  and  _11
REMARK    2  A    between atoms: _19  and  _21
REMARK    3  A    between atoms: _22  and  _66
REMARK    4  A    between atoms: _27  and  _30
REMARK    5  A    between atoms: _32  and  _33
REMARK    6  A    between atoms: _38  and  _43
REMARK    7  A    between atoms: _43  and  _46
REMARK    8  A    between atoms: _53  and  _55
REMARK                            x       y       z     vdW  Elec       q    Type
REMARK                         _______ _______ _______ _____ _____    ______ ____
ROOT
ATOM     10  C   UNL     1    -144.437 -61.356 -15.347  0.00  0.00    +0.038 A 
ATOM     11  C   UNL     1    -144.737 -62.118 -14.189  0.00  0.00    +0.047 A 
ATOM     12  C   UNL     1    -144.009 -61.917 -12.945  0.00  0.00    +0.035 A 
ATOM     32  C   UNL     1    -142.983 -60.928 -12.916  0.00  0.00    +0.024 A 
ATOM     33  C   UNL     1    -142.664 -60.145 -14.083  0.00  0.00    +0.007 A 
ATOM     34  C   UNL     1    -143.377 -60.341 -15.313  0.00  0.00    -0.029 A 
ATOM     35  C   UNL     1    -142.988 -59.477 -16.536  0.00  0.00    +0.045 C 
ENDROOT
BRANCH  10   9
ATOM      4  C   UNL     1    -145.244 -63.759 -19.422  0.00  0.00    +0.077 A 
ATOM      5  C   UNL     1    -144.099 -64.599 -19.223  0.00  0.00    +0.048 A 
ATOM      6  C   UNL     1    -143.324 -64.376 -18.063  0.00  0.00    +0.116 A 
ATOM      7  N   UNL     1    -143.678 -63.384 -17.175  0.00  0.00    -0.223 NA
ATOM      8  C   UNL     1    -144.788 -62.590 -17.398  0.00  0.00    +0.220 A 
ATOM      9  N   UNL     1    -145.167 -61.591 -16.514  0.00  0.00    -0.283 N 
ATOM     36  H   UNL     1    -145.988 -61.022 -16.718  0.00  0.00    +0.155 HD
ATOM     37  N   UNL     1    -145.543 -62.782 -18.499  0.00  0.00    -0.214 NA
BRANCH   4   3
ATOM      1  C   UNL     1    -146.941 -63.203 -22.903  0.00  0.00    +0.020 A 
ATOM      2  C   UNL     1    -146.027 -63.051 -21.794  0.00  0.00    +0.013 A 
ATOM      3  C   UNL     1    -146.163 -63.874 -20.599  0.00  0.00    +0.019 A 
ATOM     38  C   UNL     1    -147.243 -64.848 -20.557  0.00  0.00    +0.120 A 
ATOM     39  N   UNL     1    -148.109 -64.970 -21.639  0.00  0.00    -0.263 NA
ATOM     40  C   UNL     1    -147.989 -64.183 -22.794  0.00  0.00    +0.111 A 
ENDBRANCH   4   3
ENDBRANCH  10   9
BRANCH  12  13
ATOM     13  N   UNL     1    -144.265 -62.667 -11.741  0.00  0.00    -0.281 N 
ATOM     14  C   UNL     1    -145.038 -62.294 -10.654  0.00  0.00    +0.248 C 
ATOM     30  O   UNL     1    -145.459 -61.163 -10.460  0.00  0.00    -0.270 OA
ATOM     31  H   UNL     1    -143.821 -63.583 -11.682  0.00  0.00    +0.155 HD
BRANCH  14  15
ATOM     15  C   UNL     1    -145.384 -63.324  -9.626  0.00  0.00    +0.037 A 
ATOM     16  C   UNL     1    -145.757 -62.941  -8.262  0.00  0.00    +0.013 A 
ATOM     17  C   UNL     1    -146.068 -63.954  -7.286  0.00  0.00    +0.005 A 
ATOM     18  C   UNL     1    -146.010 -65.362  -7.672  0.00  0.00    -0.033 A 
ATOM     28  C   UNL     1    -145.642 -65.714  -9.034  0.00  0.00    +0.005 A 
ATOM     29  C   UNL     1    -145.335 -64.723  -9.993  0.00  0.00    +0.013 A 
BRANCH  18  19
ATOM     19  C   UNL     1    -146.306 -66.512  -6.691  0.00  0.00    +0.119 C 
BRANCH  19  20
ATOM     20  N   UNL     1    -145.160 -67.380  -6.289  0.00  0.00    -0.302 NA
ATOM     21  C   UNL     1    -145.252 -68.777  -6.910  0.00  0.00    +0.066 C 
ATOM     22  C   UNL     1    -144.034 -69.665  -6.498  0.00  0.00    -0.064 C 
ATOM     23  N   UNL     1    -143.964 -69.755  -4.973  0.00  0.00    +0.379 N 
ATOM     24  C   UNL     1    -142.854 -70.636  -4.583  0.00  0.00    -0.096 C 
ATOM     25  H   UNL     1    -144.910 -70.225  -4.618  0.00  0.00    -0.082 HD
ATOM     26  C   UNL     1    -143.875 -68.370  -4.347  0.00  0.00    -0.064 C 
ATOM     27  C   UNL     1    -145.075 -67.486  -4.786  0.00  0.00    +0.066 C 
ENDBRANCH  19  20
ENDBRANCH  18  19
ENDBRANCH  14  15
ENDBRANCH  12  13
TORSDOF 6
ENDMDL
