MODEL 1
REMARK VINA RESULT:     -10.1      0.000      0.000
REMARK  Name = C:\Users\Docking\Desktop\test protocol\1iep_ligandH.pdb
REMARK  8 active torsions:
REMARK  status: ('A' for Active; 'I' for Inactive)
REMARK    1  A    between atoms: _5  and  _11
REMARK    2  A    between atoms: _19  and  _21
REMARK    3  A    between atoms: _22  and  _66
REMARK    4  A    between atoms: _27  and  _30
REMARK    5  A    between atoms: _32  and  _33
REMARK    6  A    between atoms: _38  and  _43
REMARK    7  A    between atoms: _43  and  _46
REMARK    8  A    between atoms: _53  and  _55
REMARK                            x       y       z     vdW  Elec       q    Type
REMARK                         _______ _______ _______ _____ _____    ______ ____
ROOT
ATOM     10  C   UNL     1       4.563   5.822  11.928  0.00  0.00    +0.038 A 
ATOM     11  C   UNL     1       4.605   6.890  10.997  0.00  0.00    +0.047 A 
ATOM     12  C   UNL     1       3.494   7.820  10.866  0.00  0.00    +0.035 A 
ATOM     32  C   UNL     1       2.355   7.633  11.702  0.00  0.00    +0.024 A 
ATOM     33  C   UNL     1       2.295   6.552  12.654  0.00  0.00    +0.007 A 
ATOM     34  C   UNL     1       3.387   5.630  12.786  0.00  0.00    -0.029 A 
ATOM     35  C   UNL     1       3.265   4.486  13.819  0.00  0.00    +0.045 C 
ENDROOT
BRANCH  10   9
ATOM      4  C   UNL     1       6.837   1.747  10.806  0.00  0.00    +0.077 A 
ATOM      5  C   UNL     1       5.739   1.285  10.007  0.00  0.00    +0.048 A 
ATOM      6  C   UNL     1       4.604   2.122   9.917  0.00  0.00    +0.116 A 
ATOM      7  N   UNL     1       4.581   3.330  10.580  0.00  0.00    -0.223 NA
ATOM      8  C   UNL     1       5.657   3.745  11.343  0.00  0.00    +0.220 A 
ATOM      9  N   UNL     1       5.658   4.960  12.012  0.00  0.00    -0.283 N 
ATOM     36  H   UNL     1       6.468   5.226  12.571  0.00  0.00    +0.155 HD
ATOM     37  N   UNL     1       6.751   2.963  11.447  0.00  0.00    -0.214 NA
BRANCH   4   3
ATOM      1  C   UNL     1       9.719  -0.364  12.399  0.00  0.00    +0.020 A 
ATOM      2  C   UNL     1       8.482   0.371  12.268  0.00  0.00    +0.013 A 
ATOM      3  C   UNL     1       8.106   0.976  10.997  0.00  0.00    +0.019 A 
ATOM     38  C   UNL     1       9.011   0.818   9.868  0.00  0.00    +0.120 A 
ATOM     39  N   UNL     1      10.197   0.107  10.024  0.00  0.00    -0.263 NA
ATOM     40  C   UNL     1      10.570  -0.479  11.243  0.00  0.00    +0.111 A 
ENDBRANCH   4   3
ENDBRANCH  10   9
BRANCH  12  13
ATOM     13  N   UNL     1       3.477   8.918   9.932  0.00  0.00    -0.281 N 
ATOM     14  C   UNL     1       2.509   9.898   9.787  0.00  0.00    +0.248 C 
ATOM     30  O   UNL     1       1.400   9.855  10.298  0.00  0.00    -0.270 OA
ATOM     31  H   UNL     1       4.276   8.981   9.301  0.00  0.00    +0.155 HD
BRANCH  14  15
ATOM     15  C   UNL     1       2.810  11.091   8.939  0.00  0.00    +0.037 A 
ATOM     16  C   UNL     1       2.188  12.390   9.207  0.00  0.00    +0.013 A 
ATOM     17  C   UNL     1       2.483  13.521   8.363  0.00  0.00    +0.005 A 
ATOM     18  C   UNL     1       3.408  13.358   7.244  0.00  0.00    -0.033 A 
ATOM     28  C   UNL     1       4.015  12.059   7.004  0.00  0.00    +0.005 A 
ATOM     29  C   UNL     1       3.727  10.948   7.828  0.00  0.00    +0.013 A 
BRANCH  18  19
ATOM     19  C   UNL     1       3.764  14.505   6.279  0.00  0.00    +0.119 C 
BRANCH  19  20
ATOM     20  N   UNL     1       3.164  14.461   4.913  0.00  0.00    -0.302 NA
ATOM     21  C   UNL     1       2.967  15.861   4.326  0.00  0.00    +0.066 C 
ATOM     22  C   UNL     1       2.359  15.796   2.888  0.00  0.00    -0.064 C 
ATOM     23  N   UNL     1       1.032  15.037   2.932  0.00  0.00    +0.379 N 
ATOM     24  C   UNL     1       0.429  15.024   1.592  0.00  0.00    -0.096 C 
ATOM     25  H   UNL     1       0.344  15.598   3.607  0.00  0.00    -0.082 HD
ATOM     26  C   UNL     1       1.217  13.644   3.517  0.00  0.00    -0.064 C 
ATOM     27  C   UNL     1       1.850  13.719   4.935  0.00  0.00    +0.066 C 
ENDBRANCH  19  20
ENDBRANCH  18  19
ENDBRANCH  14  15
ENDBRANCH  12  13
TORSDOF 6
ENDMDL
MODEL 2
REMARK VINA RESULT:      -9.2      4.510     12.859
REMARK  Name = C:\Users\Docking\Desktop\test protocol\1iep_ligandH.pdb
REMARK  8 active torsions:
REMARK  status: ('A' for Active; 'I' for Inactive)
REMARK    1  A    between atoms: _5  and  _11
REMARK    2  A    between atoms: _19  and  _21
REMARK    3  A    between atoms: _22  and  _66
REMARK    4  A    between atoms: _27  and  _30
REMARK    5  A    between atoms: _32  and  _33
REMARK    6  A    between atoms: _38  and  _43
REMARK    7  A    between atoms: _43  and  _46
REMARK    8  A    between atoms: _53  and  _55
REMARK                            x       y       z     vdW  Elec       q    Type
REMARK                         _______ _______ _______ _____ _____    ______ ____
ROOT
ATOM     10  C   UNL     1       3.927  14.069   2.716  0.00  0.00    +0.038 A 
ATOM     11  C   UNL     1       3.969  13.249   3.873  0.00  0.00    +0.047 A 
ATOM     12  C   UNL     1       2.982  13.392   4.932  0.00  0.00    +0.035 A 
ATOM     32  C   UNL     1       1.964  14.378   4.779  0.00  0.00    +0.024 A 
ATOM     33  C   UNL     1       1.908  15.220   3.610  0.00  0.00    +0.007 A 
ATOM     34  C   UNL     1       2.880  15.086   2.563  0.00  0.00    -0.029 A 
ATOM     35  C   UNL     1       2.775  16.020   1.336  0.00  0.00    +0.045 C 
ENDROOT
BRANCH  10   9
ATOM      4  C   UNL     1       8.253  14.944   0.829  0.00  0.00    +0.077 A 
ATOM      5  C   UNL     1       8.593  15.858   1.882  0.00  0.00    +0.048 A 
ATOM      6  C   UNL     1       7.624  16.080   2.886  0.00  0.00    +0.116 A 
ATOM      7  N   UNL     1       6.409  15.432   2.831  0.00  0.00    -0.223 NA
ATOM      8  C   UNL     1       6.113  14.558   1.801  0.00  0.00    +0.220 A 
ATOM      9  N   UNL     1       4.900  13.889   1.731  0.00  0.00    -0.283 N 
ATOM     36  H   UNL     1       4.717  13.259   0.950  0.00  0.00    +0.155 HD
ATOM     37  N   UNL     1       7.020  14.330   0.829  0.00  0.00    -0.214 NA
BRANCH   4   3
ATOM      1  C   UNL     1      10.103  14.975  -2.617  0.00  0.00    +0.020 A 
ATOM      2  C   UNL     1       9.195  15.345  -1.556  0.00  0.00    +0.013 A 
ATOM      3  C   UNL     1       9.172  14.603  -0.302  0.00  0.00    +0.019 A 
ATOM     38  C   UNL     1      10.089  13.483  -0.152  0.00  0.00    +0.120 A 
ATOM     39  N   UNL     1      10.951  13.148  -1.192  0.00  0.00    -0.263 NA
ATOM     40  C   UNL     1      10.980  13.854  -2.404  0.00  0.00    +0.111 A 
ENDBRANCH   4   3
ENDBRANCH  10   9
BRANCH  12  13
ATOM     13  N   UNL     1       2.978  12.593   6.133  0.00  0.00    -0.281 N 
ATOM     14  C   UNL     1       2.820  13.023   7.440  0.00  0.00    +0.248 C 
ATOM     30  O   UNL     1       2.871  14.191   7.795  0.00  0.00    -0.270 OA
ATOM     31  H   UNL     1       3.108  11.590   6.003  0.00  0.00    +0.155 HD
BRANCH  14  15
ATOM     15  C   UNL     1       2.585  12.006   8.511  0.00  0.00    +0.037 A 
ATOM     16  C   UNL     1       2.167  12.404   9.858  0.00  0.00    +0.013 A 
ATOM     17  C   UNL     1       1.964  11.404  10.876  0.00  0.00    +0.005 A 
ATOM     18  C   UNL     1       2.178   9.996  10.551  0.00  0.00    -0.033 A 
ATOM     28  C   UNL     1       2.588   9.630   9.205  0.00  0.00    +0.005 A 
ATOM     29  C   UNL     1       2.789  10.607   8.205  0.00  0.00    +0.013 A 
BRANCH  18  19
ATOM     19  C   UNL     1       2.006   8.864  11.581  0.00  0.00    +0.119 C 
BRANCH  19  20
ATOM     20  N   UNL     1       3.103   7.856  11.678  0.00  0.00    -0.302 NA
ATOM     21  C   UNL     1       3.086   7.116  13.019  0.00  0.00    +0.066 C 
ATOM     22  C   UNL     1       4.226   6.049  13.095  0.00  0.00    -0.064 C 
ATOM     23  N   UNL     1       5.576   6.732  12.870  0.00  0.00    +0.379 N 
ATOM     24  C   UNL     1       6.655   5.741  12.998  0.00  0.00    -0.096 C 
ATOM     25  H   UNL     1       5.712   7.487  13.678  0.00  0.00    -0.082 HD
ATOM     26  C   UNL     1       5.600   7.472  11.539  0.00  0.00    -0.064 C 
ATOM     27  C   UNL     1       4.445   8.509  11.463  0.00  0.00    +0.066 C 
ENDBRANCH  19  20
ENDBRANCH  18  19
ENDBRANCH  14  15
ENDBRANCH  12  13
TORSDOF 6
ENDMDL
MODEL 3
REMARK VINA RESULT:      -9.1      9.245     16.117
REMARK  Name = C:\Users\Docking\Desktop\test protocol\1iep_ligandH.pdb
REMARK  8 active torsions:
REMARK  status: ('A' for Active; 'I' for Inactive)
REMARK    1  A    between atoms: _5  and  _11
REMARK    2  A    between atoms: _19  and  _21
REMARK    3  A    between atoms: _22  and  _66
REMARK    4  A    between atoms: _27  and  _30
REMARK    5  A    between atoms: _32  and  _33
REMARK    6  A    between atoms: _38  and  _43
REMARK    7  A    between atoms: _43  and  _46
REMARK    8  A    between atoms: _53  and  _55
REMARK                            x       y       z     vdW  Elec       q    Type
REMARK                         _______ _______ _______ _____ _____    ______ ____
ROOT
ATOM     10  C   UNL     1       4.273  -1.122   7.048  0.00  0.00    +0.038 A 
ATOM     11  C   UNL     1       3.692  -2.102   7.893  0.00  0.00    +0.047 A 
ATOM     12  C   UNL     1       2.321  -2.546   7.698  0.00  0.00    +0.035 A 
ATOM     32  C   UNL     1       1.570  -1.972   6.631  0.00  0.00    +0.024 A 
ATOM     33  C   UNL     1       2.144  -0.973   5.764  0.00  0.00    +0.007 A 
ATOM     34  C   UNL     1       3.496  -0.530   5.953  0.00  0.00    -0.029 A 
ATOM     35  C   UNL     1       4.057   0.548   4.997  0.00  0.00    +0.045 C 
ENDROOT
BRANCH  10   9
ATOM      4  C   UNL     1       7.591   1.354   9.477  0.00  0.00    +0.077 A 
ATOM      5  C   UNL     1       6.606   1.943  10.338  0.00  0.00    +0.048 A 
ATOM      6  C   UNL     1       5.257   1.588  10.119  0.00  0.00    +0.116 A 
ATOM      7  N   UNL     1       4.927   0.708   9.110  0.00  0.00    -0.223 NA
ATOM      8  C   UNL     1       5.902   0.160   8.296  0.00  0.00    +0.220 A 
ATOM      9  N   UNL     1       5.594  -0.732   7.281  0.00  0.00    -0.283 N 
ATOM     36  H   UNL     1       6.341  -1.109   6.697  0.00  0.00    +0.155 HD
ATOM     37  N   UNL     1       7.198   0.485   8.484  0.00  0.00    -0.214 NA
BRANCH   4   3
ATOM      1  C   UNL     1      11.085   3.104   9.299  0.00  0.00    +0.020 A 
ATOM      2  C   UNL     1       9.662   2.890   9.173  0.00  0.00    +0.013 A 
ATOM      3  C   UNL     1       9.059   1.629   9.585  0.00  0.00    +0.019 A 
ATOM     38  C   UNL     1       9.930   0.597  10.127  0.00  0.00    +0.120 A 
ATOM     39  N   UNL     1      11.298   0.831  10.236  0.00  0.00    -0.263 NA
ATOM     40  C   UNL     1      11.890   2.040   9.840  0.00  0.00    +0.111 A 
ENDBRANCH   4   3
ENDBRANCH  10   9
BRANCH  12  13
ATOM     13  N   UNL     1       1.675  -3.533   8.528  0.00  0.00    -0.281 N 
ATOM     14  C   UNL     1       1.887  -4.901   8.546  0.00  0.00    +0.248 C 
ATOM     30  O   UNL     1       2.515  -5.515   7.696  0.00  0.00    -0.270 OA
ATOM     31  H   UNL     1       0.977  -3.179   9.182  0.00  0.00    +0.155 HD
BRANCH  14  15
ATOM     15  C   UNL     1       1.306  -5.708   9.662  0.00  0.00    +0.037 A 
ATOM     16  C   UNL     1       1.893  -6.990  10.059  0.00  0.00    +0.013 A 
ATOM     17  C   UNL     1       1.302  -7.756  11.128  0.00  0.00    +0.005 A 
ATOM     18  C   UNL     1       0.116  -7.240  11.808  0.00  0.00    -0.033 A 
ATOM     28  C   UNL     1      -0.443  -5.963  11.397  0.00  0.00    +0.005 A 
ATOM     29  C   UNL     1       0.133  -5.210  10.349  0.00  0.00    +0.013 A 
BRANCH  18  19
ATOM     19  C   UNL     1      -0.593  -8.000  12.944  0.00  0.00    +0.119 C 
BRANCH  19  20
ATOM     20  N   UNL     1      -1.335  -9.243  12.577  0.00  0.00    -0.302 NA
ATOM     21  C   UNL     1      -2.823  -9.149  12.928  0.00  0.00    +0.066 C 
ATOM     22  C   UNL     1      -3.588 -10.449  12.517  0.00  0.00    -0.064 C 
ATOM     23  N   UNL     1      -2.944 -11.655  13.203  0.00  0.00    +0.379 N 
ATOM     24  C   UNL     1      -3.696 -12.872  12.864  0.00  0.00    -0.096 C 
ATOM     25  H   UNL     1      -3.027 -11.502  14.304  0.00  0.00    -0.082 HD
ATOM     26  C   UNL     1      -1.464 -11.754  12.861  0.00  0.00    -0.064 C 
ATOM     27  C   UNL     1      -0.719 -10.446  13.247  0.00  0.00    +0.066 C 
ENDBRANCH  19  20
ENDBRANCH  18  19
ENDBRANCH  14  15
ENDBRANCH  12  13
TORSDOF 6
ENDMDL
MODEL 4
REMARK VINA RESULT:      -9.1      1.731      2.433
REMARK  Name = C:\Users\Docking\Desktop\test protocol\1iep_ligandH.pdb
REMARK  8 active torsions:
REMARK  status: ('A' for Active; 'I' for Inactive)
REMARK    1  A    between atoms: _5  and  _11
REMARK    2  A    between atoms: _19  and  _21
REMARK    3  A    between atoms: _22  and  _66
REMARK    4  A    between atoms: _27  and  _30
REMARK    5  A    between atoms: _32  and  _33
REMARK    6  A    between atoms: _38  and  _43
REMARK    7  A    between atoms: _43  and  _46
REMARK    8  A    between atoms: _53  and  _55
REMARK                            x       y       z     vdW  Elec       q    Type
REMARK                         _______ _______ _______ _____ _____    ______ ____
ROOT
ATOM     10  C   UNL     1       4.572   5.901  11.867  0.00  0.00    +0.038 A 
ATOM     11  C   UNL     1       4.557   6.935  10.897  0.00  0.00    +0.047 A 
ATOM     12  C   UNL     1       3.399   7.802  10.739  0.00  0.00    +0.035 A 
ATOM     32  C   UNL     1       2.275   7.590  11.589  0.00  0.00    +0.024 A 
ATOM     33  C   UNL     1       2.273   6.543  12.580  0.00  0.00    +0.007 A 
ATOM     34  C   UNL     1       3.411   5.682  12.739  0.00  0.00    -0.029 A 
ATOM     35  C   UNL     1       3.350   4.572  13.813  0.00  0.00    +0.045 C 
ENDROOT
BRANCH  10   9
ATOM      4  C   UNL     1       7.022   1.883  10.922  0.00  0.00    +0.077 A 
ATOM      5  C   UNL     1       5.934   1.326  10.171  0.00  0.00    +0.048 A 
ATOM      6  C   UNL     1       4.759   2.102  10.058  0.00  0.00    +0.116 A 
ATOM      7  N   UNL     1       4.688   3.342  10.655  0.00  0.00    -0.223 NA
ATOM      8  C   UNL     1       5.755   3.849  11.374  0.00  0.00    +0.220 A 
ATOM      9  N   UNL     1       5.709   5.098  11.975  0.00  0.00    -0.283 N 
ATOM     36  H   UNL     1       6.515   5.433  12.503  0.00  0.00    +0.155 HD
ATOM     37  N   UNL     1       6.888   3.127  11.497  0.00  0.00    -0.214 NA
BRANCH   4   3
ATOM      1  C   UNL     1       9.823  -0.461  12.323  0.00  0.00    +0.020 A 
ATOM      2  C   UNL     1       8.539   0.184  12.166  0.00  0.00    +0.013 A 
ATOM      3  C   UNL     1       8.330   1.186  11.128  0.00  0.00    +0.019 A 
ATOM     38  C   UNL     1       9.450   1.516  10.259  0.00  0.00    +0.120 A 
ATOM     39  N   UNL     1      10.675   0.880  10.435  0.00  0.00    -0.263 NA
ATOM     40  C   UNL     1      10.888  -0.085  11.431  0.00  0.00    +0.111 A 
ENDBRANCH   4   3
ENDBRANCH  10   9
BRANCH  12  13
ATOM     13  N   UNL     1       3.324   8.863   9.765  0.00  0.00    -0.281 N 
ATOM     14  C   UNL     1       4.269   9.218   8.817  0.00  0.00    +0.248 C 
ATOM     30  O   UNL     1       5.421   8.810   8.803  0.00  0.00    -0.270 OA
ATOM     31  H   UNL     1       2.469   9.420   9.777  0.00  0.00    +0.155 HD
BRANCH  14  15
ATOM     15  C   UNL     1       3.884  10.176   7.737  0.00  0.00    +0.037 A 
ATOM     16  C   UNL     1       4.436  10.059   6.385  0.00  0.00    +0.013 A 
ATOM     17  C   UNL     1       4.060  11.007   5.365  0.00  0.00    +0.005 A 
ATOM     18  C   UNL     1       3.125  12.080   5.695  0.00  0.00    -0.033 A 
ATOM     28  C   UNL     1       2.589  12.169   7.043  0.00  0.00    +0.005 A 
ATOM     29  C   UNL     1       2.955  11.243   8.044  0.00  0.00    +0.013 A 
BRANCH  18  19
ATOM     19  C   UNL     1       2.685  13.148   4.676  0.00  0.00    +0.119 C 
BRANCH  19  20
ATOM     20  N   UNL     1       3.745  14.044   4.125  0.00  0.00    -0.302 NA
ATOM     21  C   UNL     1       4.301  13.527   2.795  0.00  0.00    +0.066 C 
ATOM     22  C   UNL     1       5.392  14.489   2.222  0.00  0.00    -0.064 C 
ATOM     23  N   UNL     1       6.512  14.655   3.249  0.00  0.00    +0.379 N 
ATOM     24  C   UNL     1       7.568  15.513   2.690  0.00  0.00    -0.096 C 
ATOM     25  H   UNL     1       6.955  13.648   3.432  0.00  0.00    -0.082 HD
ATOM     26  C   UNL     1       5.968  15.166   4.576  0.00  0.00    -0.064 C 
ATOM     27  C   UNL     1       4.864  14.219   5.122  0.00  0.00    +0.066 C 
ENDBRANCH  19  20
ENDBRANCH  18  19
ENDBRANCH  14  15
ENDBRANCH  12  13
TORSDOF 6
ENDMDL
MODEL 5
REMARK VINA RESULT:      -9.0      8.069     15.766
REMARK  Name = C:\Users\Docking\Desktop\test protocol\1iep_ligandH.pdb
REMARK  8 active torsions:
REMARK  status: ('A' for Active; 'I' for Inactive)
REMARK    1  A    between atoms: _5  and  _11
REMARK    2  A    between atoms: _19  and  _21
REMARK    3  A    between atoms: _22  and  _66
REMARK    4  A    between atoms: _27  and  _30
REMARK    5  A    between atoms: _32  and  _33
REMARK    6  A    between atoms: _38  and  _43
REMARK    7  A    between atoms: _43  and  _46
REMARK    8  A    between atoms: _53  and  _55
REMARK                            x       y       z     vdW  Elec       q    Type
REMARK                         _______ _______ _______ _____ _____    ______ ____
ROOT
ATOM     10  C   UNL     1       3.844  -0.063   7.537  0.00  0.00    +0.038 A 
ATOM     11  C   UNL     1       3.088  -1.144   8.055  0.00  0.00    +0.047 A 
ATOM     12  C   UNL     1       2.804  -2.320   7.247  0.00  0.00    +0.035 A 
ATOM     32  C   UNL     1       3.310  -2.363   5.915  0.00  0.00    +0.024 A 
ATOM     33  C   UNL     1       4.080  -1.271   5.372  0.00  0.00    +0.007 A 
ATOM     34  C   UNL     1       4.360  -0.108   6.163  0.00  0.00    -0.029 A 
ATOM     35  C   UNL     1       5.185   1.035   5.526  0.00  0.00    +0.045 C 
ENDROOT
BRANCH  10   9
ATOM      4  C   UNL     1       6.639   2.481  10.496  0.00  0.00    +0.077 A 
ATOM      5  C   UNL     1       7.696   1.514  10.424  0.00  0.00    +0.048 A 
ATOM      6  C   UNL     1       7.478   0.372   9.620  0.00  0.00    +0.116 A 
ATOM      7  N   UNL     1       6.288   0.220   8.943  0.00  0.00    -0.223 NA
ATOM      8  C   UNL     1       5.288   1.171   9.035  0.00  0.00    +0.220 A 
ATOM      9  N   UNL     1       4.086   1.042   8.356  0.00  0.00    -0.283 N 
ATOM     36  H   UNL     1       3.371   1.762   8.457  0.00  0.00    +0.155 HD
ATOM     37  N   UNL     1       5.471   2.269   9.798  0.00  0.00    -0.214 NA
BRANCH   4   3
ATOM      1  C   UNL     1       7.973   5.418  12.708  0.00  0.00    +0.020 A 
ATOM      2  C   UNL     1       7.948   4.193  11.942  0.00  0.00    +0.013 A 
ATOM      3  C   UNL     1       6.720   3.740  11.301  0.00  0.00    +0.019 A 
ATOM     38  C   UNL     1       5.525   4.557  11.455  0.00  0.00    +0.120 A 
ATOM     39  N   UNL     1       5.579   5.731  12.200  0.00  0.00    -0.263 NA
ATOM     40  C   UNL     1       6.755   6.175  12.823  0.00  0.00    +0.111 A 
ENDBRANCH   4   3
ENDBRANCH  10   9
BRANCH  12  13
ATOM     13  N   UNL     1       2.035  -3.446   7.718  0.00  0.00    -0.281 N 
ATOM     14  C   UNL     1       2.503  -4.618   8.289  0.00  0.00    +0.248 C 
ATOM     30  O   UNL     1       3.673  -4.968   8.288  0.00  0.00    -0.270 OA
ATOM     31  H   UNL     1       1.023  -3.369   7.616  0.00  0.00    +0.155 HD
BRANCH  14  15
ATOM     15  C   UNL     1       1.527  -5.541   8.945  0.00  0.00    +0.037 A 
ATOM     16  C   UNL     1       0.551  -5.047   9.920  0.00  0.00    +0.013 A 
ATOM     17  C   UNL     1      -0.368  -5.962  10.550  0.00  0.00    +0.005 A 
ATOM     18  C   UNL     1      -0.316  -7.381  10.205  0.00  0.00    -0.033 A 
ATOM     28  C   UNL     1       0.659  -7.842   9.231  0.00  0.00    +0.005 A 
ATOM     29  C   UNL     1       1.562  -6.949   8.612  0.00  0.00    +0.013 A 
BRANCH  18  19
ATOM     19  C   UNL     1      -1.244  -8.431  10.843  0.00  0.00    +0.119 C 
BRANCH  19  20
ATOM     20  N   UNL     1      -0.788  -9.061  12.118  0.00  0.00    -0.302 NA
ATOM     21  C   UNL     1      -0.227  -8.029  13.101  0.00  0.00    +0.066 C 
ATOM     22  C   UNL     1       0.224  -8.702  14.438  0.00  0.00    -0.064 C 
ATOM     23  N   UNL     1       1.263  -9.784  14.136  0.00  0.00    +0.379 N 
ATOM     24  C   UNL     1       1.732 -10.379  15.396  0.00  0.00    -0.096 C 
ATOM     25  H   UNL     1       2.136  -9.288  13.650  0.00  0.00    -0.082 HD
ATOM     26  C   UNL     1       0.714 -10.813  13.158  0.00  0.00    -0.064 C 
ATOM     27  C   UNL     1       0.242 -10.130  11.844  0.00  0.00    +0.066 C 
ENDBRANCH  19  20
ENDBRANCH  18  19
ENDBRANCH  14  15
ENDBRANCH  12  13
TORSDOF 6
ENDMDL
