MODEL 1
REMARK VINA RESULT:      -9.8      0.000      0.000
REMARK  Name = C:\Users\Docking\Desktop\test protocol\1iep_ligandH.pdb
REMARK  8 active torsions:
REMARK  status: ('A' for Active; 'I' for Inactive)
REMARK    1  A    between atoms: _5  and  _11
REMARK    2  A    between atoms: _19  and  _21
REMARK    3  A    between atoms: _22  and  _66
REMARK    4  A    between atoms: _27  and  _30
REMARK    5  A    between atoms: _32  and  _33
REMARK    6  A    between atoms: _38  and  _43
REMARK    7  A    between atoms: _43  and  _46
REMARK    8  A    between atoms: _53  and  _55
REMARK                            x       y       z     vdW  Elec       q    Type
REMARK                         _______ _______ _______ _____ _____    ______ ____
ROOT
ATOM     10  C   UNL     1       4.288   6.793  12.128  0.00  0.00    +0.038 A 
ATOM     11  C   UNL     1       4.113   7.668  11.026  0.00  0.00    +0.047 A 
ATOM     12  C   UNL     1       3.035   8.644  11.004  0.00  0.00    +0.035 A 
ATOM     32  C   UNL     1       2.156   8.704  12.124  0.00  0.00    +0.024 A 
ATOM     33  C   UNL     1       2.318   7.822  13.252  0.00  0.00    +0.007 A 
ATOM     34  C   UNL     1       3.378   6.855  13.278  0.00  0.00    -0.029 A 
ATOM     35  C   UNL     1       3.501   5.929  14.511  0.00  0.00    +0.045 C 
ENDROOT
BRANCH  10   9
ATOM      4  C   UNL     1       6.197   2.588  10.820  0.00  0.00    +0.077 A 
ATOM      5  C   UNL     1       4.988   2.174  10.168  0.00  0.00    +0.048 A 
ATOM      6  C   UNL     1       3.895   3.070  10.198  0.00  0.00    +0.116 A 
ATOM      7  N   UNL     1       4.015   4.286  10.835  0.00  0.00    -0.223 NA
ATOM      8  C   UNL     1       5.195   4.653  11.456  0.00  0.00    +0.220 A 
ATOM      9  N   UNL     1       5.340   5.874  12.096  0.00  0.00    -0.283 N 
ATOM     36  H   UNL     1       6.224   6.104  12.548  0.00  0.00    +0.155 HD
ATOM     37  N   UNL     1       6.252   3.815  11.442  0.00  0.00    -0.214 NA
BRANCH   4   3
ATOM      1  C   UNL     1       9.150   0.363  12.098  0.00  0.00    +0.020 A 
ATOM      2  C   UNL     1       7.946   1.161  12.103  0.00  0.00    +0.013 A 
ATOM      3  C   UNL     1       7.439   1.753  10.871  0.00  0.00    +0.019 A 
ATOM     38  C   UNL     1       8.180   1.515   9.641  0.00  0.00    +0.120 A 
ATOM     39  N   UNL     1       9.337   0.743   9.667  0.00  0.00    -0.263 NA
ATOM     40  C   UNL     1       9.835   0.170  10.847  0.00  0.00    +0.111 A 
ENDBRANCH   4   3
ENDBRANCH  10   9
BRANCH  12  13
ATOM     13  N   UNL     1       2.803   9.554   9.909  0.00  0.00    -0.281 N 
ATOM     14  C   UNL     1       2.380  10.871   9.971  0.00  0.00    +0.248 C 
ATOM     30  O   UNL     1       1.930  11.406  10.974  0.00  0.00    -0.270 OA
ATOM     31  H   UNL     1       2.972   9.180   8.975  0.00  0.00    +0.155 HD
BRANCH  14  15
ATOM     15  C   UNL     1       2.456  11.713   8.738  0.00  0.00    +0.037 A 
ATOM     16  C   UNL     1       2.800  11.128   7.440  0.00  0.00    +0.013 A 
ATOM     17  C   UNL     1       2.882  11.965   6.269  0.00  0.00    +0.005 A 
ATOM     18  C   UNL     1       2.618  13.397   6.392  0.00  0.00    -0.033 A 
ATOM     28  C   UNL     1       2.273  13.949   7.692  0.00  0.00    +0.005 A 
ATOM     29  C   UNL     1       2.192  13.132   8.842  0.00  0.00    +0.013 A 
BRANCH  18  19
ATOM     19  C   UNL     1       2.703  14.369   5.200  0.00  0.00    +0.119 C 
BRANCH  19  20
ATOM     20  N   UNL     1       3.988  14.408   4.441  0.00  0.00    -0.302 NA
ATOM     21  C   UNL     1       5.188  14.672   5.355  0.00  0.00    +0.066 C 
ATOM     22  C   UNL     1       6.527  14.688   4.548  0.00  0.00    -0.064 C 
ATOM     23  N   UNL     1       6.442  15.745   3.446  0.00  0.00    +0.379 N 
ATOM     24  C   UNL     1       7.720  15.803   2.722  0.00  0.00    -0.096 C 
ATOM     25  H   UNL     1       6.287  16.734   3.938  0.00  0.00    -0.082 HD
ATOM     26  C   UNL     1       5.250  15.492   2.534  0.00  0.00    -0.064 C 
ATOM     27  C   UNL     1       3.928  15.449   3.350  0.00  0.00    +0.066 C 
ENDBRANCH  19  20
ENDBRANCH  18  19
ENDBRANCH  14  15
ENDBRANCH  12  13
TORSDOF 6
ENDMDL
MODEL 2
REMARK VINA RESULT:      -9.3      2.044      2.790
REMARK  Name = C:\Users\Docking\Desktop\test protocol\1iep_ligandH.pdb
REMARK  8 active torsions:
REMARK  status: ('A' for Active; 'I' for Inactive)
REMARK    1  A    between atoms: _5  and  _11
REMARK    2  A    between atoms: _19  and  _21
REMARK    3  A    between atoms: _22  and  _66
REMARK    4  A    between atoms: _27  and  _30
REMARK    5  A    between atoms: _32  and  _33
REMARK    6  A    between atoms: _38  and  _43
REMARK    7  A    between atoms: _43  and  _46
REMARK    8  A    between atoms: _53  and  _55
REMARK                            x       y       z     vdW  Elec       q    Type
REMARK                         _______ _______ _______ _____ _____    ______ ____
ROOT
ATOM     10  C   UNL     1       4.941   5.474  12.059  0.00  0.00    +0.038 A 
ATOM     11  C   UNL     1       5.192   6.581  11.210  0.00  0.00    +0.047 A 
ATOM     12  C   UNL     1       4.182   7.605  10.989  0.00  0.00    +0.035 A 
ATOM     32  C   UNL     1       2.927   7.470  11.652  0.00  0.00    +0.024 A 
ATOM     33  C   UNL     1       2.654   6.349  12.517  0.00  0.00    +0.007 A 
ATOM     34  C   UNL     1       3.646   5.336  12.737  0.00  0.00    -0.029 A 
ATOM     35  C   UNL     1       3.296   4.153  13.671  0.00  0.00    +0.045 C 
ENDROOT
BRANCH  10   9
ATOM      4  C   UNL     1       7.269   1.485  10.752  0.00  0.00    +0.077 A 
ATOM      5  C   UNL     1       6.391   1.267   9.638  0.00  0.00    +0.048 A 
ATOM      6  C   UNL     1       5.349   2.200   9.441  0.00  0.00    +0.116 A 
ATOM      7  N   UNL     1       5.205   3.269  10.299  0.00  0.00    -0.223 NA
ATOM      8  C   UNL     1       6.068   3.449  11.365  0.00  0.00    +0.220 A 
ATOM      9  N   UNL     1       5.946   4.520  12.236  0.00  0.00    -0.283 N 
ATOM     36  H   UNL     1       6.598   4.614  13.014  0.00  0.00    +0.155 HD
ATOM     37  N   UNL     1       7.070   2.571  11.575  0.00  0.00    -0.214 NA
BRANCH   4   3
ATOM      1  C   UNL     1       9.844  -0.701  12.723  0.00  0.00    +0.020 A 
ATOM      2  C   UNL     1       8.722   0.167  12.451  0.00  0.00    +0.013 A 
ATOM      3  C   UNL     1       8.419   0.589  11.089  0.00  0.00    +0.019 A 
ATOM     38  C   UNL     1       9.279   0.110  10.017  0.00  0.00    +0.120 A 
ATOM     39  N   UNL     1      10.354  -0.723  10.309  0.00  0.00    -0.263 NA
ATOM     40  C   UNL     1      10.656  -1.134  11.616  0.00  0.00    +0.111 A 
ENDBRANCH   4   3
ENDBRANCH  10   9
BRANCH  12  13
ATOM     13  N   UNL     1       4.378   8.747  10.132  0.00  0.00    -0.281 N 
ATOM     14  C   UNL     1       4.861   8.765   8.834  0.00  0.00    +0.248 C 
ATOM     30  O   UNL     1       5.403   7.817   8.285  0.00  0.00    -0.270 OA
ATOM     31  H   UNL     1       4.129   9.653  10.530  0.00  0.00    +0.155 HD
BRANCH  14  15
ATOM     15  C   UNL     1       4.738  10.022   8.035  0.00  0.00    +0.037 A 
ATOM     16  C   UNL     1       3.434  10.646   7.795  0.00  0.00    +0.013 A 
ATOM     17  C   UNL     1       3.341  11.849   7.006  0.00  0.00    +0.005 A 
ATOM     18  C   UNL     1       4.558  12.437   6.453  0.00  0.00    -0.033 A 
ATOM     28  C   UNL     1       5.840  11.801   6.711  0.00  0.00    +0.005 A 
ATOM     29  C   UNL     1       5.934  10.621   7.482  0.00  0.00    +0.013 A 
BRANCH  18  19
ATOM     19  C   UNL     1       4.552  13.708   5.582  0.00  0.00    +0.119 C 
BRANCH  19  20
ATOM     20  N   UNL     1       3.283  14.041   4.868  0.00  0.00    -0.302 NA
ATOM     21  C   UNL     1       3.157  13.291   3.539  0.00  0.00    +0.066 C 
ATOM     22  C   UNL     1       1.814  13.634   2.817  0.00  0.00    -0.064 C 
ATOM     23  N   UNL     1       1.728  15.146   2.596  0.00  0.00    +0.379 N 
ATOM     24  C   UNL     1       0.493  15.466   1.866  0.00  0.00    -0.096 C 
ATOM     25  H   UNL     1       2.589  15.442   1.953  0.00  0.00    -0.082 HD
ATOM     26  C   UNL     1       1.855  15.899   3.913  0.00  0.00    -0.064 C 
ATOM     27  C   UNL     1       3.180  15.529   4.636  0.00  0.00    +0.066 C 
ENDBRANCH  19  20
ENDBRANCH  18  19
ENDBRANCH  14  15
ENDBRANCH  12  13
TORSDOF 6
ENDMDL
MODEL 3
REMARK VINA RESULT:      -9.2      3.247      4.815
REMARK  Name = C:\Users\Docking\Desktop\test protocol\1iep_ligandH.pdb
REMARK  8 active torsions:
REMARK  status: ('A' for Active; 'I' for Inactive)
REMARK    1  A    between atoms: _5  and  _11
REMARK    2  A    between atoms: _19  and  _21
REMARK    3  A    between atoms: _22  and  _66
REMARK    4  A    between atoms: _27  and  _30
REMARK    5  A    between atoms: _32  and  _33
REMARK    6  A    between atoms: _38  and  _43
REMARK    7  A    between atoms: _43  and  _46
REMARK    8  A    between atoms: _53  and  _55
REMARK                            x       y       z     vdW  Elec       q    Type
REMARK                         _______ _______ _______ _____ _____    ______ ____
ROOT
ATOM     10  C   UNL     1       5.446   3.179  10.883  0.00  0.00    +0.038 A 
ATOM     11  C   UNL     1       4.687   4.301  10.461  0.00  0.00    +0.047 A 
ATOM     12  C   UNL     1       5.131   5.658  10.740  0.00  0.00    +0.035 A 
ATOM     32  C   UNL     1       6.355   5.836  11.448  0.00  0.00    +0.024 A 
ATOM     33  C   UNL     1       7.139   4.707  11.885  0.00  0.00    +0.007 A 
ATOM     34  C   UNL     1       6.705   3.367  11.615  0.00  0.00    -0.029 A 
ATOM     35  C   UNL     1       7.582   2.194  12.113  0.00  0.00    +0.045 C 
ENDROOT
BRANCH  10   9
ATOM      4  C   UNL     1       4.649  -0.441   7.834  0.00  0.00    +0.077 A 
ATOM      5  C   UNL     1       5.198   0.291   6.729  0.00  0.00    +0.048 A 
ATOM      6  C   UNL     1       5.668   1.598   6.986  0.00  0.00    +0.116 A 
ATOM      7  N   UNL     1       5.590   2.124   8.257  0.00  0.00    -0.223 NA
ATOM      8  C   UNL     1       5.054   1.392   9.300  0.00  0.00    +0.220 A 
ATOM      9  N   UNL     1       4.973   1.899  10.588  0.00  0.00    -0.283 N 
ATOM     36  H   UNL     1       4.564   1.330  11.329  0.00  0.00    +0.155 HD
ATOM     37  N   UNL     1       4.597   0.142   9.081  0.00  0.00    -0.214 NA
BRANCH   4   3
ATOM      1  C   UNL     1       2.226  -3.499   7.549  0.00  0.00    +0.020 A 
ATOM      2  C   UNL     1       2.690  -2.135   7.656  0.00  0.00    +0.013 A 
ATOM      3  C   UNL     1       4.115  -1.835   7.723  0.00  0.00    +0.019 A 
ATOM     38  C   UNL     1       5.052  -2.948   7.677  0.00  0.00    +0.120 A 
ATOM     39  N   UNL     1       4.576  -4.251   7.575  0.00  0.00    -0.263 NA
ATOM     40  C   UNL     1       3.207  -4.552   7.512  0.00  0.00    +0.111 A 
ENDBRANCH   4   3
ENDBRANCH  10   9
BRANCH  12  13
ATOM     13  N   UNL     1       4.398   6.835  10.344  0.00  0.00    -0.281 N 
ATOM     14  C   UNL     1       3.718   7.728  11.155  0.00  0.00    +0.248 C 
ATOM     30  O   UNL     1       3.456   7.530  12.333  0.00  0.00    -0.270 OA
ATOM     31  H   UNL     1       4.379   7.034   9.343  0.00  0.00    +0.155 HD
BRANCH  14  15
ATOM     15  C   UNL     1       3.248   9.021  10.571  0.00  0.00    +0.037 A 
ATOM     16  C   UNL     1       2.483   9.982  11.370  0.00  0.00    +0.013 A 
ATOM     17  C   UNL     1       2.027  11.214  10.777  0.00  0.00    +0.005 A 
ATOM     18  C   UNL     1       2.338  11.493   9.377  0.00  0.00    -0.033 A 
ATOM     28  C   UNL     1       3.103  10.525   8.609  0.00  0.00    +0.005 A 
ATOM     29  C   UNL     1       3.551   9.315   9.187  0.00  0.00    +0.013 A 
BRANCH  18  19
ATOM     19  C   UNL     1       1.874  12.773   8.656  0.00  0.00    +0.119 C 
BRANCH  19  20
ATOM     20  N   UNL     1       2.668  13.217   7.473  0.00  0.00    -0.302 NA
ATOM     21  C   UNL     1       3.994  13.865   7.882  0.00  0.00    +0.066 C 
ATOM     22  C   UNL     1       4.823  14.304   6.631  0.00  0.00    -0.064 C 
ATOM     23  N   UNL     1       3.990  15.266   5.782  0.00  0.00    +0.379 N 
ATOM     24  C   UNL     1       4.787  15.725   4.636  0.00  0.00    -0.096 C 
ATOM     25  H   UNL     1       3.757  16.156   6.411  0.00  0.00    -0.082 HD
ATOM     26  C   UNL     1       2.668  14.631   5.373  0.00  0.00    -0.064 C 
ATOM     27  C   UNL     1       1.866  14.171   6.623  0.00  0.00    +0.066 C 
ENDBRANCH  19  20
ENDBRANCH  18  19
ENDBRANCH  14  15
ENDBRANCH  12  13
TORSDOF 6
ENDMDL
MODEL 4
REMARK VINA RESULT:      -9.1      1.288      1.976
REMARK  Name = C:\Users\Docking\Desktop\test protocol\1iep_ligandH.pdb
REMARK  8 active torsions:
REMARK  status: ('A' for Active; 'I' for Inactive)
REMARK    1  A    between atoms: _5  and  _11
REMARK    2  A    between atoms: _19  and  _21
REMARK    3  A    between atoms: _22  and  _66
REMARK    4  A    between atoms: _27  and  _30
REMARK    5  A    between atoms: _32  and  _33
REMARK    6  A    between atoms: _38  and  _43
REMARK    7  A    between atoms: _43  and  _46
REMARK    8  A    between atoms: _53  and  _55
REMARK                            x       y       z     vdW  Elec       q    Type
REMARK                         _______ _______ _______ _____ _____    ______ ____
ROOT
ATOM     10  C   UNL     1       3.679   6.409  11.745  0.00  0.00    +0.038 A 
ATOM     11  C   UNL     1       3.560   7.274  10.627  0.00  0.00    +0.047 A 
ATOM     12  C   UNL     1       2.831   8.529  10.721  0.00  0.00    +0.035 A 
ATOM     32  C   UNL     1       2.237   8.874  11.970  0.00  0.00    +0.024 A 
ATOM     33  C   UNL     1       2.347   8.006  13.116  0.00  0.00    +0.007 A 
ATOM     34  C   UNL     1       3.063   6.765  13.029  0.00  0.00    -0.029 A 
ATOM     35  C   UNL     1       3.143   5.871  14.288  0.00  0.00    +0.045 C 
ENDROOT
BRANCH  10   9
ATOM      4  C   UNL     1       7.778   3.916  11.603  0.00  0.00    +0.077 A 
ATOM      5  C   UNL     1       8.571   5.094  11.811  0.00  0.00    +0.048 A 
ATOM      6  C   UNL     1       7.885   6.322  11.943  0.00  0.00    +0.116 A 
ATOM      7  N   UNL     1       6.510   6.358  11.870  0.00  0.00    -0.223 NA
ATOM      8  C   UNL     1       5.776   5.204  11.667  0.00  0.00    +0.220 A 
ATOM      9  N   UNL     1       4.391   5.216  11.599  0.00  0.00    -0.283 N 
ATOM     36  H   UNL     1       3.886   4.344  11.440  0.00  0.00    +0.155 HD
ATOM     37  N   UNL     1       6.407   4.019  11.537  0.00  0.00    -0.214 NA
BRANCH   4   3
ATOM      1  C   UNL     1       8.641   0.143  12.171  0.00  0.00    +0.020 A 
ATOM      2  C   UNL     1       8.057   1.450  12.365  0.00  0.00    +0.013 A 
ATOM      3  C   UNL     1       8.356   2.544  11.449  0.00  0.00    +0.019 A 
ATOM     38  C   UNL     1       9.258   2.279  10.338  0.00  0.00    +0.120 A 
ATOM     39  N   UNL     1       9.807   1.011  10.177  0.00  0.00    -0.263 NA
ATOM     40  C   UNL     1       9.527  -0.049  11.053  0.00  0.00    +0.111 A 
ENDBRANCH   4   3
ENDBRANCH  10   9
BRANCH  12  13
ATOM     13  N   UNL     1       2.670   9.443   9.618  0.00  0.00    -0.281 N 
ATOM     14  C   UNL     1       2.340  10.788   9.667  0.00  0.00    +0.248 C 
ATOM     30  O   UNL     1       1.921  11.360  10.662  0.00  0.00    -0.270 OA
ATOM     31  H   UNL     1       2.818   9.052   8.687  0.00  0.00    +0.155 HD
BRANCH  14  15
ATOM     15  C   UNL     1       2.482  11.612   8.429  0.00  0.00    +0.037 A 
ATOM     16  C   UNL     1       2.180  13.046   8.431  0.00  0.00    +0.013 A 
ATOM     17  C   UNL     1       2.309  13.814   7.218  0.00  0.00    +0.005 A 
ATOM     18  C   UNL     1       2.743  13.150   5.992  0.00  0.00    -0.033 A 
ATOM     28  C   UNL     1       3.041  11.727   6.019  0.00  0.00    +0.005 A 
ATOM     29  C   UNL     1       2.915  10.971   7.206  0.00  0.00    +0.013 A 
BRANCH  18  19
ATOM     19  C   UNL     1       2.888  13.887   4.648  0.00  0.00    +0.119 C 
BRANCH  19  20
ATOM     20  N   UNL     1       4.273  14.196   4.183  0.00  0.00    -0.302 NA
ATOM     21  C   UNL     1       4.784  13.163   3.174  0.00  0.00    +0.066 C 
ATOM     22  C   UNL     1       6.225  13.515   2.681  0.00  0.00    -0.064 C 
ATOM     23  N   UNL     1       7.165  13.606   3.885  0.00  0.00    +0.379 N 
ATOM     24  C   UNL     1       8.533  13.879   3.420  0.00  0.00    -0.096 C 
ATOM     25  H   UNL     1       7.170  12.610   4.386  0.00  0.00    -0.082 HD
ATOM     26  C   UNL     1       6.663  14.628   4.894  0.00  0.00    -0.064 C 
ATOM     27  C   UNL     1       5.218  14.287   5.355  0.00  0.00    +0.066 C 
ENDBRANCH  19  20
ENDBRANCH  18  19
ENDBRANCH  14  15
ENDBRANCH  12  13
TORSDOF 6
ENDMDL
MODEL 5
REMARK VINA RESULT:      -9.0      5.485     13.762
REMARK  Name = C:\Users\Docking\Desktop\test protocol\1iep_ligandH.pdb
REMARK  8 active torsions:
REMARK  status: ('A' for Active; 'I' for Inactive)
REMARK    1  A    between atoms: _5  and  _11
REMARK    2  A    between atoms: _19  and  _21
REMARK    3  A    between atoms: _22  and  _66
REMARK    4  A    between atoms: _27  and  _30
REMARK    5  A    between atoms: _32  and  _33
REMARK    6  A    between atoms: _38  and  _43
REMARK    7  A    between atoms: _43  and  _46
REMARK    8  A    between atoms: _53  and  _55
REMARK                            x       y       z     vdW  Elec       q    Type
REMARK                         _______ _______ _______ _____ _____    ______ ____
ROOT
ATOM     10  C   UNL     1       5.745   4.828  10.475  0.00  0.00    +0.038 A 
ATOM     11  C   UNL     1       5.163   3.663   9.914  0.00  0.00    +0.047 A 
ATOM     12  C   UNL     1       5.589   2.335  10.329  0.00  0.00    +0.035 A 
ATOM     32  C   UNL     1       6.608   2.231  11.320  0.00  0.00    +0.024 A 
ATOM     33  C   UNL     1       7.210   3.405  11.900  0.00  0.00    +0.007 A 
ATOM     34  C   UNL     1       6.797   4.717  11.493  0.00  0.00    -0.029 A 
ATOM     35  C   UNL     1       7.482   5.941  12.145  0.00  0.00    +0.045 C 
ENDROOT
BRANCH  10   9
ATOM      4  C   UNL     1       2.821   8.621  10.786  0.00  0.00    +0.077 A 
ATOM      5  C   UNL     1       2.105   8.053  11.892  0.00  0.00    +0.048 A 
ATOM      6  C   UNL     1       2.516   6.780  12.346  0.00  0.00    +0.116 A 
ATOM      7  N   UNL     1       3.566   6.132  11.732  0.00  0.00    -0.223 NA
ATOM      8  C   UNL     1       4.234   6.708  10.667  0.00  0.00    +0.220 A 
ATOM      9  N   UNL     1       5.298   6.078  10.040  0.00  0.00    -0.283 N 
ATOM     36  H   UNL     1       5.760   6.532   9.253  0.00  0.00    +0.155 HD
ATOM     37  N   UNL     1       3.860   7.922  10.214  0.00  0.00    -0.214 NA
BRANCH   4   3
ATOM      1  C   UNL     1       1.661  12.332  10.353  0.00  0.00    +0.020 A 
ATOM      2  C   UNL     1       1.945  11.058  10.972  0.00  0.00    +0.013 A 
ATOM      3  C   UNL     1       2.507   9.961  10.195  0.00  0.00    +0.019 A 
ATOM     38  C   UNL     1       2.774  10.187   8.782  0.00  0.00    +0.120 A 
ATOM     39  N   UNL     1       2.489  11.424   8.213  0.00  0.00    -0.263 NA
ATOM     40  C   UNL     1       1.946  12.487   8.950  0.00  0.00    +0.111 A 
ENDBRANCH   4   3
ENDBRANCH  10   9
BRANCH  12  13
ATOM     13  N   UNL     1       5.040   1.116   9.788  0.00  0.00    -0.281 N 
ATOM     14  C   UNL     1       4.882   0.770   8.456  0.00  0.00    +0.248 C 
ATOM     30  O   UNL     1       4.993   1.550   7.522  0.00  0.00    -0.270 OA
ATOM     31  H   UNL     1       4.731   0.423  10.471  0.00  0.00    +0.155 HD
BRANCH  14  15
ATOM     15  C   UNL     1       4.537  -0.643   8.113  0.00  0.00    +0.037 A 
ATOM     16  C   UNL     1       5.576  -1.668   7.978  0.00  0.00    +0.013 A 
ATOM     17  C   UNL     1       5.218  -3.020   7.630  0.00  0.00    +0.005 A 
ATOM     18  C   UNL     1       3.812  -3.355   7.415  0.00  0.00    -0.033 A 
ATOM     28  C   UNL     1       2.802  -2.321   7.560  0.00  0.00    +0.005 A 
ATOM     29  C   UNL     1       3.149  -0.994   7.901  0.00  0.00    +0.013 A 
BRANCH  18  19
ATOM     19  C   UNL     1       3.340  -4.767   7.019  0.00  0.00    +0.119 C 
BRANCH  19  20
ATOM     20  N   UNL     1       2.319  -5.417   7.894  0.00  0.00    -0.302 NA
ATOM     21  C   UNL     1       2.849  -5.665   9.309  0.00  0.00    +0.066 C 
ATOM     22  C   UNL     1       1.760  -6.324  10.217  0.00  0.00    -0.064 C 
ATOM     23  N   UNL     1       1.291  -7.632   9.578  0.00  0.00    +0.379 N 
ATOM     24  C   UNL     1       0.310  -8.284  10.458  0.00  0.00    -0.096 C 
ATOM     25  H   UNL     1       2.175  -8.306   9.499  0.00  0.00    -0.082 HD
ATOM     26  C   UNL     1       0.765  -7.395   8.169  0.00  0.00    -0.064 C 
ATOM     27  C   UNL     1       1.844  -6.712   7.284  0.00  0.00    +0.066 C 
ENDBRANCH  19  20
ENDBRANCH  18  19
ENDBRANCH  14  15
ENDBRANCH  12  13
TORSDOF 6
ENDMDL
