MODEL 1
REMARK VINA RESULT:      -9.6      0.000      0.000
REMARK  Name = C:\Users\Docking\Desktop\test protocol\1iep_ligandH.pdb
REMARK  8 active torsions:
REMARK  status: ('A' for Active; 'I' for Inactive)
REMARK    1  A    between atoms: _5  and  _11
REMARK    2  A    between atoms: _19  and  _21
REMARK    3  A    between atoms: _22  and  _66
REMARK    4  A    between atoms: _27  and  _30
REMARK    5  A    between atoms: _32  and  _33
REMARK    6  A    between atoms: _38  and  _43
REMARK    7  A    between atoms: _43  and  _46
REMARK    8  A    between atoms: _53  and  _55
REMARK                            x       y       z     vdW  Elec       q    Type
REMARK                         _______ _______ _______ _____ _____    ______ ____
ROOT
ATOM     10  C   UNL     1       4.406   6.383  11.849  0.00  0.00    +0.038 A 
ATOM     11  C   UNL     1       4.221   7.388  10.866  0.00  0.00    +0.047 A 
ATOM     12  C   UNL     1       3.001   8.179  10.819  0.00  0.00    +0.035 A 
ATOM     32  C   UNL     1       1.991   7.921  11.791  0.00  0.00    +0.024 A 
ATOM     33  C   UNL     1       2.162   6.902  12.797  0.00  0.00    +0.007 A 
ATOM     34  C   UNL     1       3.362   6.118  12.846  0.00  0.00    -0.029 A 
ATOM     35  C   UNL     1       3.489   5.034  13.943  0.00  0.00    +0.045 C 
ENDROOT
BRANCH  10   9
ATOM      4  C   UNL     1       6.973   2.471  10.779  0.00  0.00    +0.077 A 
ATOM      5  C   UNL     1       5.838   1.813  10.198  0.00  0.00    +0.048 A 
ATOM      6  C   UNL     1       4.611   2.513  10.200  0.00  0.00    +0.116 A 
ATOM      7  N   UNL     1       4.535   3.776  10.746  0.00  0.00    -0.223 NA
ATOM      8  C   UNL     1       5.648   4.381  11.300  0.00  0.00    +0.220 A 
ATOM      9  N   UNL     1       5.597   5.654  11.848  0.00  0.00    -0.283 N 
ATOM     36  H   UNL     1       6.439   6.062  12.254  0.00  0.00    +0.155 HD
ATOM     37  N   UNL     1       6.832   3.733  11.312  0.00  0.00    -0.214 NA
BRANCH   4   3
ATOM      1  C   UNL     1       9.919  -0.029  11.387  0.00  0.00    +0.020 A 
ATOM      2  C   UNL     1       8.580   0.511  11.341  0.00  0.00    +0.013 A 
ATOM      3  C   UNL     1       8.339   1.862  10.849  0.00  0.00    +0.019 A 
ATOM     38  C   UNL     1       9.483   2.645  10.407  0.00  0.00    +0.120 A 
ATOM     39  N   UNL     1      10.761   2.098  10.465  0.00  0.00    -0.263 NA
ATOM     40  C   UNL     1      11.006   0.801  10.938  0.00  0.00    +0.111 A 
ENDBRANCH   4   3
ENDBRANCH  10   9
BRANCH  12  13
ATOM     13  N   UNL     1       2.753   9.208   9.839  0.00  0.00    -0.281 N 
ATOM     14  C   UNL     1       2.426  10.535  10.062  0.00  0.00    +0.248 C 
ATOM     30  O   UNL     1       2.085  10.991  11.143  0.00  0.00    -0.270 OA
ATOM     31  H   UNL     1       2.829   8.923   8.863  0.00  0.00    +0.155 HD
BRANCH  14  15
ATOM     15  C   UNL     1       2.469  11.492   8.915  0.00  0.00    +0.037 A 
ATOM     16  C   UNL     1       2.137  12.908   9.093  0.00  0.00    +0.013 A 
ATOM     17  C   UNL     1       2.170  13.806   7.966  0.00  0.00    +0.005 A 
ATOM     18  C   UNL     1       2.539  13.290   6.650  0.00  0.00    -0.033 A 
ATOM     28  C   UNL     1       2.869  11.883   6.502  0.00  0.00    +0.005 A 
ATOM     29  C   UNL     1       2.837  10.999   7.604  0.00  0.00    +0.013 A 
BRANCH  18  19
ATOM     19  C   UNL     1       2.581  14.172   5.388  0.00  0.00    +0.119 C 
BRANCH  19  20
ATOM     20  N   UNL     1       3.869  14.227   4.634  0.00  0.00    -0.302 NA
ATOM     21  C   UNL     1       5.039  14.648   5.526  0.00  0.00    +0.066 C 
ATOM     22  C   UNL     1       6.383  14.678   4.727  0.00  0.00    -0.064 C 
ATOM     23  N   UNL     1       6.242  15.626   3.535  0.00  0.00    +0.379 N 
ATOM     24  C   UNL     1       7.522  15.701   2.814  0.00  0.00    -0.096 C 
ATOM     25  H   UNL     1       6.019  16.642   3.935  0.00  0.00    -0.082 HD
ATOM     26  C   UNL     1       5.079  15.216   2.643  0.00  0.00    -0.064 C 
ATOM     27  C   UNL     1       3.754  15.160   3.454  0.00  0.00    +0.066 C 
ENDBRANCH  19  20
ENDBRANCH  18  19
ENDBRANCH  14  15
ENDBRANCH  12  13
TORSDOF 6
ENDMDL
MODEL 2
REMARK VINA RESULT:      -9.1      2.035      2.688
REMARK  Name = C:\Users\Docking\Desktop\test protocol\1iep_ligandH.pdb
REMARK  8 active torsions:
REMARK  status: ('A' for Active; 'I' for Inactive)
REMARK    1  A    between atoms: _5  and  _11
REMARK    2  A    between atoms: _19  and  _21
REMARK    3  A    between atoms: _22  and  _66
REMARK    4  A    between atoms: _27  and  _30
REMARK    5  A    between atoms: _32  and  _33
REMARK    6  A    between atoms: _38  and  _43
REMARK    7  A    between atoms: _43  and  _46
REMARK    8  A    between atoms: _53  and  _55
REMARK                            x       y       z     vdW  Elec       q    Type
REMARK                         _______ _______ _______ _____ _____    ______ ____
ROOT
ATOM     10  C   UNL     1       4.909   5.437  12.097  0.00  0.00    +0.038 A 
ATOM     11  C   UNL     1       5.165   6.535  11.237  0.00  0.00    +0.047 A 
ATOM     12  C   UNL     1       4.174   7.581  11.037  0.00  0.00    +0.035 A 
ATOM     32  C   UNL     1       2.933   7.477  11.731  0.00  0.00    +0.024 A 
ATOM     33  C   UNL     1       2.656   6.367  12.608  0.00  0.00    +0.007 A 
ATOM     34  C   UNL     1       3.629   5.332  12.808  0.00  0.00    -0.029 A 
ATOM     35  C   UNL     1       3.276   4.161  13.755  0.00  0.00    +0.045 C 
ENDROOT
BRANCH  10   9
ATOM      4  C   UNL     1       7.134   1.410  10.727  0.00  0.00    +0.077 A 
ATOM      5  C   UNL     1       6.236   1.219   9.625  0.00  0.00    +0.048 A 
ATOM      6  C   UNL     1       5.211   2.176   9.449  0.00  0.00    +0.116 A 
ATOM      7  N   UNL     1       5.102   3.240  10.317  0.00  0.00    -0.223 NA
ATOM      8  C   UNL     1       5.983   3.394  11.372  0.00  0.00    +0.220 A 
ATOM      9  N   UNL     1       5.897   4.461  12.252  0.00  0.00    -0.283 N 
ATOM     36  H   UNL     1       6.562   4.535  13.022  0.00  0.00    +0.155 HD
ATOM     37  N   UNL     1       6.970   2.493  11.562  0.00  0.00    -0.214 NA
BRANCH   4   3
ATOM      1  C   UNL     1       9.832  -0.669  12.651  0.00  0.00    +0.020 A 
ATOM      2  C   UNL     1       8.730   0.233  12.401  0.00  0.00    +0.013 A 
ATOM      3  C   UNL     1       8.269   0.487  11.042  0.00  0.00    +0.019 A 
ATOM     38  C   UNL     1       8.949  -0.193   9.950  0.00  0.00    +0.120 A 
ATOM     39  N   UNL     1      10.007  -1.055  10.221  0.00  0.00    -0.263 NA
ATOM     40  C   UNL     1      10.461  -1.306  11.524  0.00  0.00    +0.111 A 
ENDBRANCH   4   3
ENDBRANCH  10   9
BRANCH  12  13
ATOM     13  N   UNL     1       4.374   8.715  10.169  0.00  0.00    -0.281 N 
ATOM     14  C   UNL     1       5.040   8.752   8.956  0.00  0.00    +0.248 C 
ATOM     30  O   UNL     1       5.754   7.856   8.532  0.00  0.00    -0.270 OA
ATOM     31  H   UNL     1       3.975   9.598  10.489  0.00  0.00    +0.155 HD
BRANCH  14  15
ATOM     15  C   UNL     1       4.907   9.967   8.095  0.00  0.00    +0.037 A 
ATOM     16  C   UNL     1       3.594  10.544   7.795  0.00  0.00    +0.013 A 
ATOM     17  C   UNL     1       3.492  11.707   6.948  0.00  0.00    +0.005 A 
ATOM     18  C   UNL     1       4.708  12.300   6.397  0.00  0.00    -0.033 A 
ATOM     28  C   UNL     1       5.997  11.710   6.715  0.00  0.00    +0.005 A 
ATOM     29  C   UNL     1       6.101  10.570   7.544  0.00  0.00    +0.013 A 
BRANCH  18  19
ATOM     19  C   UNL     1       4.692  13.528   5.467  0.00  0.00    +0.119 C 
BRANCH  19  20
ATOM     20  N   UNL     1       3.399  13.862   4.798  0.00  0.00    -0.302 NA
ATOM     21  C   UNL     1       3.260  13.171   3.439  0.00  0.00    +0.066 C 
ATOM     22  C   UNL     1       1.893  13.513   2.763  0.00  0.00    -0.064 C 
ATOM     23  N   UNL     1       1.767  15.031   2.614  0.00  0.00    +0.379 N 
ATOM     24  C   UNL     1       0.508  15.353   1.926  0.00  0.00    -0.096 C 
ATOM     25  H   UNL     1       2.605  15.377   1.966  0.00  0.00    -0.082 HD
ATOM     26  C   UNL     1       1.906  15.726   3.961  0.00  0.00    -0.064 C 
ATOM     27  C   UNL     1       3.256  15.356   4.637  0.00  0.00    +0.066 C 
ENDBRANCH  19  20
ENDBRANCH  18  19
ENDBRANCH  14  15
ENDBRANCH  12  13
TORSDOF 6
ENDMDL
MODEL 3
REMARK VINA RESULT:      -9.0      5.750     13.905
REMARK  Name = C:\Users\Docking\Desktop\test protocol\1iep_ligandH.pdb
REMARK  8 active torsions:
REMARK  status: ('A' for Active; 'I' for Inactive)
REMARK    1  A    between atoms: _5  and  _11
REMARK    2  A    between atoms: _19  and  _21
REMARK    3  A    between atoms: _22  and  _66
REMARK    4  A    between atoms: _27  and  _30
REMARK    5  A    between atoms: _32  and  _33
REMARK    6  A    between atoms: _38  and  _43
REMARK    7  A    between atoms: _43  and  _46
REMARK    8  A    between atoms: _53  and  _55
REMARK                            x       y       z     vdW  Elec       q    Type
REMARK                         _______ _______ _______ _____ _____    ______ ____
ROOT
ATOM     10  C   UNL     1       5.923   4.286  10.281  0.00  0.00    +0.038 A 
ATOM     11  C   UNL     1       5.312   3.146   9.699  0.00  0.00    +0.047 A 
ATOM     12  C   UNL     1       5.751   1.802  10.038  0.00  0.00    +0.035 A 
ATOM     32  C   UNL     1       6.814   1.654  10.976  0.00  0.00    +0.024 A 
ATOM     33  C   UNL     1       7.448   2.802  11.577  0.00  0.00    +0.007 A 
ATOM     34  C   UNL     1       7.020   4.131  11.244  0.00  0.00    -0.029 A 
ATOM     35  C   UNL     1       7.740   5.325  11.914  0.00  0.00    +0.045 C 
ENDROOT
BRANCH  10   9
ATOM      4  C   UNL     1       3.002   8.051  10.859  0.00  0.00    +0.077 A 
ATOM      5  C   UNL     1       2.320   7.428  11.956  0.00  0.00    +0.048 A 
ATOM      6  C   UNL     1       2.747   6.136  12.336  0.00  0.00    +0.116 A 
ATOM      7  N   UNL     1       3.780   5.522  11.662  0.00  0.00    -0.223 NA
ATOM      8  C   UNL     1       4.415   6.150  10.607  0.00  0.00    +0.220 A 
ATOM      9  N   UNL     1       5.462   5.554   9.920  0.00  0.00    -0.283 N 
ATOM     36  H   UNL     1       5.900   6.047   9.142  0.00  0.00    +0.155 HD
ATOM     37  N   UNL     1       4.025   7.383  10.224  0.00  0.00    -0.214 NA
BRANCH   4   3
ATOM      1  C   UNL     1       1.691  11.727  10.598  0.00  0.00    +0.020 A 
ATOM      2  C   UNL     1       1.990  10.424  11.146  0.00  0.00    +0.013 A 
ATOM      3  C   UNL     1       2.669   9.416  10.341  0.00  0.00    +0.019 A 
ATOM     38  C   UNL     1       3.037   9.762   8.977  0.00  0.00    +0.120 A 
ATOM     39  N   UNL     1       2.735  11.024   8.476  0.00  0.00    -0.263 NA
ATOM     40  C   UNL     1       2.080  12.002   9.240  0.00  0.00    +0.111 A 
ENDBRANCH   4   3
ENDBRANCH  10   9
BRANCH  12  13
ATOM     13  N   UNL     1       5.174   0.607   9.474  0.00  0.00    -0.281 N 
ATOM     14  C   UNL     1       5.581  -0.083   8.344  0.00  0.00    +0.248 C 
ATOM     30  O   UNL     1       6.377   0.345   7.521  0.00  0.00    -0.270 OA
ATOM     31  H   UNL     1       4.367   0.224   9.967  0.00  0.00    +0.155 HD
BRANCH  14  15
ATOM     15  C   UNL     1       5.010  -1.440   8.082  0.00  0.00    +0.037 A 
ATOM     16  C   UNL     1       5.819  -2.650   8.249  0.00  0.00    +0.013 A 
ATOM     17  C   UNL     1       5.249  -3.945   7.973  0.00  0.00    +0.005 A 
ATOM     18  C   UNL     1       3.861  -4.036   7.528  0.00  0.00    -0.033 A 
ATOM     28  C   UNL     1       3.079  -2.820   7.375  0.00  0.00    +0.005 A 
ATOM     29  C   UNL     1       3.635  -1.549   7.644  0.00  0.00    +0.013 A 
BRANCH  18  19
ATOM     19  C   UNL     1       3.177  -5.374   7.191  0.00  0.00    +0.119 C 
BRANCH  19  20
ATOM     20  N   UNL     1       1.945  -5.725   7.959  0.00  0.00    -0.302 NA
ATOM     21  C   UNL     1       2.189  -5.717   9.471  0.00  0.00    +0.066 C 
ATOM     22  C   UNL     1       0.885  -6.065  10.260  0.00  0.00    -0.064 C 
ATOM     23  N   UNL     1       0.364  -7.428   9.802  0.00  0.00    +0.379 N 
ATOM     24  C   UNL     1      -0.830  -7.784  10.583  0.00  0.00    -0.096 C 
ATOM     25  H   UNL     1       1.152  -8.184  10.026  0.00  0.00    -0.082 HD
ATOM     26  C   UNL     1       0.121  -7.446   8.300  0.00  0.00    -0.064 C 
ATOM     27  C   UNL     1       1.416  -7.070   7.526  0.00  0.00    +0.066 C 
ENDBRANCH  19  20
ENDBRANCH  18  19
ENDBRANCH  14  15
ENDBRANCH  12  13
TORSDOF 6
ENDMDL
MODEL 4
REMARK VINA RESULT:      -8.9      3.373     12.537
REMARK  Name = C:\Users\Docking\Desktop\test protocol\1iep_ligandH.pdb
REMARK  8 active torsions:
REMARK  status: ('A' for Active; 'I' for Inactive)
REMARK    1  A    between atoms: _5  and  _11
REMARK    2  A    between atoms: _19  and  _21
REMARK    3  A    between atoms: _22  and  _66
REMARK    4  A    between atoms: _27  and  _30
REMARK    5  A    between atoms: _32  and  _33
REMARK    6  A    between atoms: _38  and  _43
REMARK    7  A    between atoms: _43  and  _46
REMARK    8  A    between atoms: _53  and  _55
REMARK                            x       y       z     vdW  Elec       q    Type
REMARK                         _______ _______ _______ _____ _____    ______ ____
ROOT
ATOM     10  C   UNL     1       3.989  14.188   2.588  0.00  0.00    +0.038 A 
ATOM     11  C   UNL     1       3.953  13.343   3.727  0.00  0.00    +0.047 A 
ATOM     12  C   UNL     1       2.944  13.516   4.760  0.00  0.00    +0.035 A 
ATOM     32  C   UNL     1       1.986  14.559   4.601  0.00  0.00    +0.024 A 
ATOM     33  C   UNL     1       2.009  15.427   3.450  0.00  0.00    +0.007 A 
ATOM     34  C   UNL     1       3.003  15.263   2.429  0.00  0.00    -0.029 A 
ATOM     35  C   UNL     1       2.984  16.227   1.220  0.00  0.00    +0.045 C 
ENDROOT
BRANCH  10   9
ATOM      4  C   UNL     1       8.375  14.947   0.791  0.00  0.00    +0.077 A 
ATOM      5  C   UNL     1       8.711  15.863   1.842  0.00  0.00    +0.048 A 
ATOM      6  C   UNL     1       7.726  16.117   2.822  0.00  0.00    +0.116 A 
ATOM      7  N   UNL     1       6.498  15.496   2.746  0.00  0.00    -0.223 NA
ATOM      8  C   UNL     1       6.205  14.619   1.718  0.00  0.00    +0.220 A 
ATOM      9  N   UNL     1       4.980  13.977   1.626  0.00  0.00    -0.283 N 
ATOM     36  H   UNL     1       4.800  13.343   0.848  0.00  0.00    +0.155 HD
ATOM     37  N   UNL     1       7.129  14.361   0.769  0.00  0.00    -0.214 NA
BRANCH   4   3
ATOM      1  C   UNL     1      11.376  13.433  -1.209  0.00  0.00    +0.020 A 
ATOM      2  C   UNL     1      10.505  13.766  -0.105  0.00  0.00    +0.013 A 
ATOM      3  C   UNL     1       9.311  14.574  -0.316  0.00  0.00    +0.019 A 
ATOM     38  C   UNL     1       9.025  15.034  -1.667  0.00  0.00    +0.120 A 
ATOM     39  N   UNL     1       9.883  14.700  -2.710  0.00  0.00    -0.263 NA
ATOM     40  C   UNL     1      11.036  13.923  -2.518  0.00  0.00    +0.111 A 
ENDBRANCH   4   3
ENDBRANCH  10   9
BRANCH  12  13
ATOM     13  N   UNL     1       2.863  12.694   5.942  0.00  0.00    -0.281 N 
ATOM     14  C   UNL     1       3.048  13.077   7.260  0.00  0.00    +0.248 C 
ATOM     30  O   UNL     1       3.524  14.148   7.609  0.00  0.00    -0.270 OA
ATOM     31  H   UNL     1       2.642  11.710   5.788  0.00  0.00    +0.155 HD
BRANCH  14  15
ATOM     15  C   UNL     1       2.661  12.129   8.349  0.00  0.00    +0.037 A 
ATOM     16  C   UNL     1       2.075  12.610   9.603  0.00  0.00    +0.013 A 
ATOM     17  C   UNL     1       1.726  11.675  10.644  0.00  0.00    +0.005 A 
ATOM     18  C   UNL     1       1.962  10.249  10.433  0.00  0.00    -0.033 A 
ATOM     28  C   UNL     1       2.539   9.799   9.178  0.00  0.00    +0.005 A 
ATOM     29  C   UNL     1       2.883  10.712   8.156  0.00  0.00    +0.013 A 
BRANCH  18  19
ATOM     19  C   UNL     1       1.640   9.183  11.497  0.00  0.00    +0.119 C 
BRANCH  19  20
ATOM     20  N   UNL     1       2.534   7.988  11.560  0.00  0.00    -0.302 NA
ATOM     21  C   UNL     1       1.931   6.781  10.836  0.00  0.00    +0.066 C 
ATOM     22  C   UNL     1       2.889   5.547  10.892  0.00  0.00    -0.064 C 
ATOM     23  N   UNL     1       3.193   5.206  12.352  0.00  0.00    +0.379 N 
ATOM     24  C   UNL     1       4.047   4.011  12.409  0.00  0.00    -0.096 C 
ATOM     25  H   UNL     1       2.227   4.956  12.849  0.00  0.00    -0.082 HD
ATOM     26  C   UNL     1       3.791   6.402  13.080  0.00  0.00    -0.064 C 
ATOM     27  C   UNL     1       2.844   7.632  12.993  0.00  0.00    +0.066 C 
ENDBRANCH  19  20
ENDBRANCH  18  19
ENDBRANCH  14  15
ENDBRANCH  12  13
TORSDOF 6
ENDMDL
MODEL 5
REMARK VINA RESULT:      -8.9      9.237     16.469
REMARK  Name = C:\Users\Docking\Desktop\test protocol\1iep_ligandH.pdb
REMARK  8 active torsions:
REMARK  status: ('A' for Active; 'I' for Inactive)
REMARK    1  A    between atoms: _5  and  _11
REMARK    2  A    between atoms: _19  and  _21
REMARK    3  A    between atoms: _22  and  _66
REMARK    4  A    between atoms: _27  and  _30
REMARK    5  A    between atoms: _32  and  _33
REMARK    6  A    between atoms: _38  and  _43
REMARK    7  A    between atoms: _43  and  _46
REMARK    8  A    between atoms: _53  and  _55
REMARK                            x       y       z     vdW  Elec       q    Type
REMARK                         _______ _______ _______ _____ _____    ______ ____
ROOT
ATOM     10  C   UNL     1       4.275  -1.023   7.021  0.00  0.00    +0.038 A 
ATOM     11  C   UNL     1       3.698  -2.021   7.848  0.00  0.00    +0.047 A 
ATOM     12  C   UNL     1       2.330  -2.471   7.639  0.00  0.00    +0.035 A 
ATOM     32  C   UNL     1       1.581  -1.887   6.577  0.00  0.00    +0.024 A 
ATOM     33  C   UNL     1       2.152  -0.871   5.728  0.00  0.00    +0.007 A 
ATOM     34  C   UNL     1       3.499  -0.421   5.930  0.00  0.00    -0.029 A 
ATOM     35  C   UNL     1       4.058   0.675   4.994  0.00  0.00    +0.045 C 
ENDROOT
BRANCH  10   9
ATOM      4  C   UNL     1       7.570   1.396   9.536  0.00  0.00    +0.077 A 
ATOM      5  C   UNL     1       6.581   1.941  10.421  0.00  0.00    +0.048 A 
ATOM      6  C   UNL     1       5.235   1.579  10.190  0.00  0.00    +0.116 A 
ATOM      7  N   UNL     1       4.913   0.735   9.150  0.00  0.00    -0.223 NA
ATOM      8  C   UNL     1       5.892   0.229   8.314  0.00  0.00    +0.220 A 
ATOM      9  N   UNL     1       5.592  -0.628   7.266  0.00  0.00    -0.283 N 
ATOM     36  H   UNL     1       6.342  -0.974   6.667  0.00  0.00    +0.155 HD
ATOM     37  N   UNL     1       7.185   0.560   8.512  0.00  0.00    -0.214 NA
BRANCH   4   3
ATOM      1  C   UNL     1      11.332   1.238  10.597  0.00  0.00    +0.020 A 
ATOM      2  C   UNL     1       9.925   0.921  10.521  0.00  0.00    +0.013 A 
ATOM      3  C   UNL     1       9.035   1.683   9.653  0.00  0.00    +0.019 A 
ATOM     38  C   UNL     1       9.606   2.767   8.868  0.00  0.00    +0.120 A 
ATOM     39  N   UNL     1      10.965   3.050   8.963  0.00  0.00    -0.263 NA
ATOM     40  C   UNL     1      11.831   2.325   9.796  0.00  0.00    +0.111 A 
ENDBRANCH   4   3
ENDBRANCH  10   9
BRANCH  12  13
ATOM     13  N   UNL     1       1.688  -3.474   8.452  0.00  0.00    -0.281 N 
ATOM     14  C   UNL     1       1.996  -4.822   8.543  0.00  0.00    +0.248 C 
ATOM     30  O   UNL     1       2.738  -5.415   7.774  0.00  0.00    -0.270 OA
ATOM     31  H   UNL     1       0.911  -3.152   9.030  0.00  0.00    +0.155 HD
BRANCH  14  15
ATOM     15  C   UNL     1       1.378  -5.631   9.638  0.00  0.00    +0.037 A 
ATOM     16  C   UNL     1       1.930  -6.932  10.025  0.00  0.00    +0.013 A 
ATOM     17  C   UNL     1       1.305  -7.700  11.072  0.00  0.00    +0.005 A 
ATOM     18  C   UNL     1       0.121  -7.167  11.742  0.00  0.00    -0.033 A 
ATOM     28  C   UNL     1      -0.402  -5.871  11.342  0.00  0.00    +0.005 A 
ATOM     29  C   UNL     1       0.207  -5.116  10.315  0.00  0.00    +0.013 A 
BRANCH  18  19
ATOM     19  C   UNL     1      -0.623  -7.927  12.856  0.00  0.00    +0.119 C 
BRANCH  19  20
ATOM     20  N   UNL     1      -1.340  -9.178  12.468  0.00  0.00    -0.302 NA
ATOM     21  C   UNL     1      -2.805  -9.162  12.915  0.00  0.00    +0.066 C 
ATOM     22  C   UNL     1      -3.547 -10.469  12.482  0.00  0.00    -0.064 C 
ATOM     23  N   UNL     1      -2.817 -11.682  13.061  0.00  0.00    +0.379 N 
ATOM     24  C   UNL     1      -3.544 -12.908  12.704  0.00  0.00    -0.096 C 
ATOM     25  H   UNL     1      -2.835 -11.589  14.172  0.00  0.00    -0.082 HD
ATOM     26  C   UNL     1      -1.359 -11.704  12.624  0.00  0.00    -0.064 C 
ATOM     27  C   UNL     1      -0.639 -10.389  13.033  0.00  0.00    +0.066 C 
ENDBRANCH  19  20
ENDBRANCH  18  19
ENDBRANCH  14  15
ENDBRANCH  12  13
TORSDOF 6
ENDMDL
