MODEL 1
REMARK VINA RESULT:      -9.4      0.000      0.000
REMARK  Name = C:\Users\Docking\Desktop\test protocol\1iep_ligandH.pdb
REMARK  8 active torsions:
REMARK  status: ('A' for Active; 'I' for Inactive)
REMARK    1  A    between atoms: _5  and  _11
REMARK    2  A    between atoms: _19  and  _21
REMARK    3  A    between atoms: _22  and  _66
REMARK    4  A    between atoms: _27  and  _30
REMARK    5  A    between atoms: _32  and  _33
REMARK    6  A    between atoms: _38  and  _43
REMARK    7  A    between atoms: _43  and  _46
REMARK    8  A    between atoms: _53  and  _55
REMARK                            x       y       z     vdW  Elec       q    Type
REMARK                         _______ _______ _______ _____ _____    ______ ____
ROOT
ATOM     10  C   UNL     1      39.185  76.201  -4.562  0.00  0.00    +0.038 A 
ATOM     11  C   UNL     1      39.621  77.042  -3.507  0.00  0.00    +0.047 A 
ATOM     12  C   UNL     1      39.801  78.471  -3.709  0.00  0.00    +0.035 A 
ATOM     32  C   UNL     1      39.524  79.011  -4.998  0.00  0.00    +0.024 A 
ATOM     33  C   UNL     1      39.080  78.171  -6.083  0.00  0.00    +0.007 A 
ATOM     34  C   UNL     1      38.904  76.760  -5.890  0.00  0.00    -0.029 A 
ATOM     35  C   UNL     1      38.432  75.906  -7.090  0.00  0.00    +0.045 C 
ENDROOT
BRANCH  10   9
ATOM      4  C   UNL     1      36.852  72.497  -2.593  0.00  0.00    +0.077 A 
ATOM      5  C   UNL     1      35.876  73.357  -1.987  0.00  0.00    +0.048 A 
ATOM      6  C   UNL     1      36.014  74.747  -2.202  0.00  0.00    +0.116 A 
ATOM      7  N   UNL     1      37.055  75.229  -2.966  0.00  0.00    -0.223 NA
ATOM      8  C   UNL     1      37.979  74.373  -3.534  0.00  0.00    +0.220 A 
ATOM      9  N   UNL     1      39.029  74.835  -4.312  0.00  0.00    -0.283 N 
ATOM     36  H   UNL     1      39.695  74.171  -4.708  0.00  0.00    +0.155 HD
ATOM     37  N   UNL     1      37.870  73.041  -3.343  0.00  0.00    -0.214 NA
BRANCH   4   3
ATOM      1  C   UNL     1      37.077  68.676  -3.399  0.00  0.00    +0.020 A 
ATOM      2  C   UNL     1      37.101  70.109  -3.580  0.00  0.00    +0.013 A 
ATOM      3  C   UNL     1      36.839  71.006  -2.461  0.00  0.00    +0.019 A 
ATOM     38  C   UNL     1      36.554  70.415  -1.162  0.00  0.00    +0.120 A 
ATOM     39  N   UNL     1      36.536  69.031  -1.018  0.00  0.00    -0.263 NA
ATOM     40  C   UNL     1      36.785  68.159  -2.088  0.00  0.00    +0.111 A 
ENDBRANCH   4   3
ENDBRANCH  10   9
BRANCH  12  13
ATOM     13  N   UNL     1      40.249  79.373  -2.677  0.00  0.00    -0.281 N 
ATOM     14  C   UNL     1      41.384  80.167  -2.674  0.00  0.00    +0.248 C 
ATOM     30  O   UNL     1      42.304  80.061  -3.473  0.00  0.00    -0.270 OA
ATOM     31  H   UNL     1      39.658  79.433  -1.848  0.00  0.00    +0.155 HD
BRANCH  14  15
ATOM     15  C   UNL     1      41.526  81.221  -1.624  0.00  0.00    +0.037 A 
ATOM     16  C   UNL     1      42.811  81.472  -0.968  0.00  0.00    +0.013 A 
ATOM     17  C   UNL     1      42.916  82.484   0.054  0.00  0.00    +0.005 A 
ATOM     18  C   UNL     1      41.731  83.253   0.424  0.00  0.00    -0.033 A 
ATOM     28  C   UNL     1      40.469  82.987  -0.247  0.00  0.00    +0.005 A 
ATOM     29  C   UNL     1      40.362  81.996  -1.248  0.00  0.00    +0.013 A 
BRANCH  18  19
ATOM     19  C   UNL     1      41.745  84.337   1.518  0.00  0.00    +0.119 C 
BRANCH  19  20
ATOM     20  N   UNL     1      40.791  84.174   2.655  0.00  0.00    -0.302 NA
ATOM     21  C   UNL     1      39.726  85.275   2.674  0.00  0.00    +0.066 C 
ATOM     22  C   UNL     1      38.723  85.076   3.857  0.00  0.00    -0.064 C 
ATOM     23  N   UNL     1      39.495  85.046   5.177  0.00  0.00    +0.379 N 
ATOM     24  C   UNL     1      38.549  84.917   6.296  0.00  0.00    -0.096 C 
ATOM     25  H   UNL     1      40.017  86.025   5.286  0.00  0.00    -0.082 HD
ATOM     26  C   UNL     1      40.558  83.956   5.166  0.00  0.00    -0.064 C 
ATOM     27  C   UNL     1      41.532  84.146   3.970  0.00  0.00    +0.066 C 
ENDBRANCH  19  20
ENDBRANCH  18  19
ENDBRANCH  14  15
ENDBRANCH  12  13
TORSDOF 6
ENDMDL
MODEL 2
REMARK VINA RESULT:      -9.4      2.106      3.327
REMARK  Name = C:\Users\Docking\Desktop\test protocol\1iep_ligandH.pdb
REMARK  8 active torsions:
REMARK  status: ('A' for Active; 'I' for Inactive)
REMARK    1  A    between atoms: _5  and  _11
REMARK    2  A    between atoms: _19  and  _21
REMARK    3  A    between atoms: _22  and  _66
REMARK    4  A    between atoms: _27  and  _30
REMARK    5  A    between atoms: _32  and  _33
REMARK    6  A    between atoms: _38  and  _43
REMARK    7  A    between atoms: _43  and  _46
REMARK    8  A    between atoms: _53  and  _55
REMARK                            x       y       z     vdW  Elec       q    Type
REMARK                         _______ _______ _______ _____ _____    ______ ____
ROOT
ATOM     10  C   UNL     1      40.922  78.075  -3.284  0.00  0.00    +0.038 A 
ATOM     11  C   UNL     1      40.775  78.757  -2.049  0.00  0.00    +0.047 A 
ATOM     12  C   UNL     1      41.051  80.181  -1.938  0.00  0.00    +0.035 A 
ATOM     32  C   UNL     1      41.473  80.880  -3.107  0.00  0.00    +0.024 A 
ATOM     33  C   UNL     1      41.629  80.202  -4.370  0.00  0.00    +0.007 A 
ATOM     34  C   UNL     1      41.360  78.797  -4.484  0.00  0.00    -0.029 A 
ATOM     35  C   UNL     1      41.551  78.121  -5.862  0.00  0.00    +0.045 C 
ENDROOT
BRANCH  10   9
ATOM      4  C   UNL     1      37.900  74.389  -3.848  0.00  0.00    +0.077 A 
ATOM      5  C   UNL     1      36.777  75.262  -4.034  0.00  0.00    +0.048 A 
ATOM      6  C   UNL     1      37.018  76.652  -3.969  0.00  0.00    +0.116 A 
ATOM      7  N   UNL     1      38.292  77.124  -3.737  0.00  0.00    -0.223 NA
ATOM      8  C   UNL     1      39.353  76.255  -3.560  0.00  0.00    +0.220 A 
ATOM      9  N   UNL     1      40.643  76.707  -3.333  0.00  0.00    -0.283 N 
ATOM     36  H   UNL     1      41.398  76.034  -3.200  0.00  0.00    +0.155 HD
ATOM     37  N   UNL     1      39.148  74.922  -3.615  0.00  0.00    -0.214 NA
BRANCH   4   3
ATOM      1  C   UNL     1      36.922  70.685  -3.055  0.00  0.00    +0.020 A 
ATOM      2  C   UNL     1      36.978  72.127  -2.971  0.00  0.00    +0.013 A 
ATOM      3  C   UNL     1      37.807  72.895  -3.891  0.00  0.00    +0.019 A 
ATOM     38  C   UNL     1      38.572  72.169  -4.893  0.00  0.00    +0.120 A 
ATOM     39  N   UNL     1      38.500  70.781  -4.949  0.00  0.00    -0.263 NA
ATOM     40  C   UNL     1      37.708  70.031  -4.068  0.00  0.00    +0.111 A 
ENDBRANCH   4   3
ENDBRANCH  10   9
BRANCH  12  13
ATOM     13  N   UNL     1      40.927  80.925  -0.710  0.00  0.00    -0.281 N 
ATOM     14  C   UNL     1      41.780  81.897  -0.213  0.00  0.00    +0.248 C 
ATOM     30  O   UNL     1      42.899  82.124  -0.650  0.00  0.00    -0.270 OA
ATOM     31  H   UNL     1      40.111  80.709  -0.137  0.00  0.00    +0.155 HD
BRANCH  14  15
ATOM     15  C   UNL     1      41.331  82.728   0.945  0.00  0.00    +0.037 A 
ATOM     16  C   UNL     1      42.078  82.742   2.206  0.00  0.00    +0.013 A 
ATOM     17  C   UNL     1      41.614  83.539   3.313  0.00  0.00    +0.005 A 
ATOM     18  C   UNL     1      40.395  84.331   3.164  0.00  0.00    -0.033 A 
ATOM     28  C   UNL     1      39.676  84.303   1.901  0.00  0.00    +0.005 A 
ATOM     29  C   UNL     1      40.128  83.522   0.814  0.00  0.00    +0.013 A 
BRANCH  18  19
ATOM     19  C   UNL     1      39.815  85.195   4.300  0.00  0.00    +0.119 C 
BRANCH  19  20
ATOM     20  N   UNL     1      38.617  86.028   3.982  0.00  0.00    -0.302 NA
ATOM     21  C   UNL     1      38.685  87.407   4.644  0.00  0.00    +0.066 C 
ATOM     22  C   UNL     1      37.435  88.274   4.282  0.00  0.00    -0.064 C 
ATOM     23  N   UNL     1      36.165  87.533   4.703  0.00  0.00    +0.379 N 
ATOM     24  C   UNL     1      34.991  88.371   4.417  0.00  0.00    -0.096 C 
ATOM     25  H   UNL     1      36.212  87.382   5.806  0.00  0.00    -0.082 HD
ATOM     26  C   UNL     1      36.091  86.159   4.051  0.00  0.00    -0.064 C 
ATOM     27  C   UNL     1      37.351  85.317   4.393  0.00  0.00    +0.066 C 
ENDBRANCH  19  20
ENDBRANCH  18  19
ENDBRANCH  14  15
ENDBRANCH  12  13
TORSDOF 6
ENDMDL
MODEL 3
REMARK VINA RESULT:      -8.9      2.590     12.733
REMARK  Name = C:\Users\Docking\Desktop\test protocol\1iep_ligandH.pdb
REMARK  8 active torsions:
REMARK  status: ('A' for Active; 'I' for Inactive)
REMARK    1  A    between atoms: _5  and  _11
REMARK    2  A    between atoms: _19  and  _21
REMARK    3  A    between atoms: _22  and  _66
REMARK    4  A    between atoms: _27  and  _30
REMARK    5  A    between atoms: _32  and  _33
REMARK    6  A    between atoms: _38  and  _43
REMARK    7  A    between atoms: _43  and  _46
REMARK    8  A    between atoms: _53  and  _55
REMARK                            x       y       z     vdW  Elec       q    Type
REMARK                         _______ _______ _______ _____ _____    ______ ____
ROOT
ATOM     10  C   UNL     1      42.040  82.094  -0.145  0.00  0.00    +0.038 A 
ATOM     11  C   UNL     1      41.332  81.106  -0.877  0.00  0.00    +0.047 A 
ATOM     12  C   UNL     1      42.035  80.090  -1.644  0.00  0.00    +0.035 A 
ATOM     32  C   UNL     1      43.460  80.108  -1.642  0.00  0.00    +0.024 A 
ATOM     33  C   UNL     1      44.196  81.105  -0.905  0.00  0.00    +0.007 A 
ATOM     34  C   UNL     1      43.508  82.111  -0.148  0.00  0.00    -0.029 A 
ATOM     35  C   UNL     1      44.348  83.160   0.618  0.00  0.00    +0.045 C 
ENDROOT
BRANCH  10   9
ATOM      4  C   UNL     1      40.508  84.022   3.975  0.00  0.00    +0.077 A 
ATOM      5  C   UNL     1      41.189  83.032   4.759  0.00  0.00    +0.048 A 
ATOM      6  C   UNL     1      41.916  82.041   4.064  0.00  0.00    +0.116 A 
ATOM      7  N   UNL     1      41.953  82.048   2.687  0.00  0.00    -0.223 NA
ATOM      8  C   UNL     1      41.284  83.015   1.960  0.00  0.00    +0.220 A 
ATOM      9  N   UNL     1      41.314  83.046   0.574  0.00  0.00    -0.283 N 
ATOM     36  H   UNL     1      40.801  83.772   0.075  0.00  0.00    +0.155 HD
ATOM     37  N   UNL     1      40.581  83.972   2.600  0.00  0.00    -0.214 NA
BRANCH   4   3
ATOM      1  C   UNL     1      39.351  87.020   6.205  0.00  0.00    +0.020 A 
ATOM      2  C   UNL     1      40.171  85.955   5.674  0.00  0.00    +0.013 A 
ATOM      3  C   UNL     1      39.700  85.136   4.564  0.00  0.00    +0.019 A 
ATOM     38  C   UNL     1      38.385  85.423   4.009  0.00  0.00    +0.120 A 
ATOM     39  N   UNL     1      37.618  86.454   4.543  0.00  0.00    -0.263 NA
ATOM     40  C   UNL     1      38.060  87.248   5.612  0.00  0.00    +0.111 A 
ENDBRANCH   4   3
ENDBRANCH  10   9
BRANCH  12  13
ATOM     13  N   UNL     1      41.370  79.067  -2.413  0.00  0.00    -0.281 N 
ATOM     14  C   UNL     1      40.342  78.232  -2.008  0.00  0.00    +0.248 C 
ATOM     30  O   UNL     1      39.980  78.092  -0.849  0.00  0.00    -0.270 OA
ATOM     31  H   UNL     1      41.697  78.944  -3.371  0.00  0.00    +0.155 HD
BRANCH  14  15
ATOM     15  C   UNL     1      39.620  77.424  -3.038  0.00  0.00    +0.037 A 
ATOM     16  C   UNL     1      38.227  77.013  -2.843  0.00  0.00    +0.013 A 
ATOM     17  C   UNL     1      37.560  76.220  -3.845  0.00  0.00    +0.005 A 
ATOM     18  C   UNL     1      38.286  75.834  -5.053  0.00  0.00    -0.033 A 
ATOM     28  C   UNL     1      39.665  76.260  -5.223  0.00  0.00    +0.005 A 
ATOM     29  C   UNL     1      40.323  77.036  -4.243  0.00  0.00    +0.013 A 
BRANCH  18  19
ATOM     19  C   UNL     1      37.660  74.971  -6.165  0.00  0.00    +0.119 C 
BRANCH  19  20
ATOM     20  N   UNL     1      38.256  73.621  -6.400  0.00  0.00    -0.302 NA
ATOM     21  C   UNL     1      37.510  72.847  -7.490  0.00  0.00    +0.066 C 
ATOM     22  C   UNL     1      38.160  71.447  -7.739  0.00  0.00    -0.064 C 
ATOM     23  N   UNL     1      38.179  70.656  -6.429  0.00  0.00    +0.379 N 
ATOM     24  C   UNL     1      38.736  69.318  -6.672  0.00  0.00    -0.096 C 
ATOM     25  H   UNL     1      37.122  70.528  -6.097  0.00  0.00    -0.082 HD
ATOM     26  C   UNL     1      38.916  71.421  -5.339  0.00  0.00    -0.064 C 
ATOM     27  C   UNL     1      38.280  72.822  -5.120  0.00  0.00    +0.066 C 
ENDBRANCH  19  20
ENDBRANCH  18  19
ENDBRANCH  14  15
ENDBRANCH  12  13
TORSDOF 6
ENDMDL
MODEL 4
REMARK VINA RESULT:      -8.9      1.906     12.194
REMARK  Name = C:\Users\Docking\Desktop\test protocol\1iep_ligandH.pdb
REMARK  8 active torsions:
REMARK  status: ('A' for Active; 'I' for Inactive)
REMARK    1  A    between atoms: _5  and  _11
REMARK    2  A    between atoms: _19  and  _21
REMARK    3  A    between atoms: _22  and  _66
REMARK    4  A    between atoms: _27  and  _30
REMARK    5  A    between atoms: _32  and  _33
REMARK    6  A    between atoms: _38  and  _43
REMARK    7  A    between atoms: _43  and  _46
REMARK    8  A    between atoms: _53  and  _55
REMARK                            x       y       z     vdW  Elec       q    Type
REMARK                         _______ _______ _______ _____ _____    ______ ____
ROOT
ATOM     10  C   UNL     1      40.200  83.762  -1.971  0.00  0.00    +0.038 A 
ATOM     11  C   UNL     1      39.924  82.405  -2.278  0.00  0.00    +0.047 A 
ATOM     12  C   UNL     1      40.502  81.766  -3.450  0.00  0.00    +0.035 A 
ATOM     32  C   UNL     1      41.360  82.538  -4.287  0.00  0.00    +0.024 A 
ATOM     33  C   UNL     1      41.650  83.919  -3.990  0.00  0.00    +0.007 A 
ATOM     34  C   UNL     1      41.081  84.555  -2.837  0.00  0.00    -0.029 A 
ATOM     35  C   UNL     1      41.422  86.040  -2.572  0.00  0.00    +0.045 C 
ENDROOT
BRANCH  10   9
ATOM      4  C   UNL     1      40.108  84.626   2.749  0.00  0.00    +0.077 A 
ATOM      5  C   UNL     1      41.307  83.869   2.971  0.00  0.00    +0.048 A 
ATOM      6  C   UNL     1      41.912  83.267   1.845  0.00  0.00    +0.116 A 
ATOM      7  N   UNL     1      41.352  83.418   0.595  0.00  0.00    -0.223 NA
ATOM      8  C   UNL     1      40.194  84.153   0.416  0.00  0.00    +0.220 A 
ATOM      9  N   UNL     1      39.618  84.325  -0.833  0.00  0.00    -0.283 N 
ATOM     36  H   UNL     1      38.760  84.869  -0.922  0.00  0.00    +0.155 HD
ATOM     37  N   UNL     1      39.597  84.737   1.476  0.00  0.00    -0.214 NA
BRANCH   4   3
ATOM      1  C   UNL     1      38.678  85.628   6.250  0.00  0.00    +0.020 A 
ATOM      2  C   UNL     1      39.426  84.919   5.236  0.00  0.00    +0.013 A 
ATOM      3  C   UNL     1      39.355  85.324   3.838  0.00  0.00    +0.019 A 
ATOM     38  C   UNL     1      38.511  86.459   3.496  0.00  0.00    +0.120 A 
ATOM     39  N   UNL     1      37.801  87.121   4.493  0.00  0.00    -0.263 NA
ATOM     40  C   UNL     1      37.861  86.740   5.841  0.00  0.00    +0.111 A 
ENDBRANCH   4   3
ENDBRANCH  10   9
BRANCH  12  13
ATOM     13  N   UNL     1      40.252  80.394  -3.816  0.00  0.00    -0.281 N 
ATOM     14  C   UNL     1      40.367  79.265  -3.021  0.00  0.00    +0.248 C 
ATOM     30  O   UNL     1      40.913  79.243  -1.928  0.00  0.00    -0.270 OA
ATOM     31  H   UNL     1      39.953  80.236  -4.779  0.00  0.00    +0.155 HD
BRANCH  14  15
ATOM     15  C   UNL     1      39.809  77.971  -3.519  0.00  0.00    +0.037 A 
ATOM     16  C   UNL     1      40.375  76.687  -3.096  0.00  0.00    +0.013 A 
ATOM     17  C   UNL     1      39.828  75.454  -3.605  0.00  0.00    +0.005 A 
ATOM     18  C   UNL     1      38.708  75.500  -4.542  0.00  0.00    -0.033 A 
ATOM     28  C   UNL     1      38.163  76.787  -4.940  0.00  0.00    +0.005 A 
ATOM     29  C   UNL     1      38.697  77.998  -4.444  0.00  0.00    +0.013 A 
BRANCH  18  19
ATOM     19  C   UNL     1      38.076  74.234  -5.151  0.00  0.00    +0.119 C 
BRANCH  19  20
ATOM     20  N   UNL     1      38.002  73.021  -4.284  0.00  0.00    -0.302 NA
ATOM     21  C   UNL     1      37.667  71.761  -5.086  0.00  0.00    +0.066 C 
ATOM     22  C   UNL     1      37.615  70.497  -4.167  0.00  0.00    -0.064 C 
ATOM     23  N   UNL     1      36.589  70.720  -3.055  0.00  0.00    +0.379 N 
ATOM     24  C   UNL     1      36.496  69.512  -2.223  0.00  0.00    -0.096 C 
ATOM     25  H   UNL     1      35.596  70.875  -3.538  0.00  0.00    -0.082 HD
ATOM     26  C   UNL     1      36.913  71.973  -2.254  0.00  0.00    -0.064 C 
ATOM     27  C   UNL     1      36.991  73.218  -3.181  0.00  0.00    +0.066 C 
ENDBRANCH  19  20
ENDBRANCH  18  19
ENDBRANCH  14  15
ENDBRANCH  12  13
TORSDOF 6
ENDMDL
MODEL 5
REMARK VINA RESULT:      -8.7      3.500      5.249
REMARK  Name = C:\Users\Docking\Desktop\test protocol\1iep_ligandH.pdb
REMARK  8 active torsions:
REMARK  status: ('A' for Active; 'I' for Inactive)
REMARK    1  A    between atoms: _5  and  _11
REMARK    2  A    between atoms: _19  and  _21
REMARK    3  A    between atoms: _22  and  _66
REMARK    4  A    between atoms: _27  and  _30
REMARK    5  A    between atoms: _32  and  _33
REMARK    6  A    between atoms: _38  and  _43
REMARK    7  A    between atoms: _43  and  _46
REMARK    8  A    between atoms: _53  and  _55
REMARK                            x       y       z     vdW  Elec       q    Type
REMARK                         _______ _______ _______ _____ _____    ______ ____
ROOT
ATOM     10  C   UNL     1      37.975  73.913  -3.115  0.00  0.00    +0.038 A 
ATOM     11  C   UNL     1      38.746  75.070  -3.392  0.00  0.00    +0.047 A 
ATOM     12  C   UNL     1      38.249  76.400  -3.074  0.00  0.00    +0.035 A 
ATOM     32  C   UNL     1      36.962  76.514  -2.473  0.00  0.00    +0.024 A 
ATOM     33  C   UNL     1      36.164  75.348  -2.185  0.00  0.00    +0.007 A 
ATOM     34  C   UNL     1      36.648  74.034  -2.499  0.00  0.00    -0.029 A 
ATOM     35  C   UNL     1      35.747  72.820  -2.174  0.00  0.00    +0.045 C 
ENDROOT
BRANCH  10   9
ATOM      4  C   UNL     1      38.768  70.329  -6.208  0.00  0.00    +0.077 A 
ATOM      5  C   UNL     1      38.049  70.995  -7.255  0.00  0.00    +0.048 A 
ATOM      6  C   UNL     1      37.485  72.255  -6.955  0.00  0.00    +0.116 A 
ATOM      7  N   UNL     1      37.634  72.799  -5.698  0.00  0.00    -0.223 NA
ATOM      8  C   UNL     1      38.332  72.129  -4.710  0.00  0.00    +0.220 A 
ATOM      9  N   UNL     1      38.501  72.661  -3.441  0.00  0.00    -0.283 N 
ATOM     36  H   UNL     1      39.016  72.132  -2.737  0.00  0.00    +0.155 HD
ATOM     37  N   UNL     1      38.879  70.924  -4.971  0.00  0.00    -0.214 NA
BRANCH   4   3
ATOM      1  C   UNL     1      41.268  67.497  -7.222  0.00  0.00    +0.020 A 
ATOM      2  C   UNL     1      40.676  68.808  -7.093  0.00  0.00    +0.013 A 
ATOM      3  C   UNL     1      39.424  68.993  -6.371  0.00  0.00    +0.019 A 
ATOM     38  C   UNL     1      38.792  67.821  -5.785  0.00  0.00    +0.120 A 
ATOM     39  N   UNL     1      39.384  66.570  -5.926  0.00  0.00    -0.263 NA
ATOM     40  C   UNL     1      40.588  66.380  -6.620  0.00  0.00    +0.111 A 
ENDBRANCH   4   3
ENDBRANCH  10   9
BRANCH  12  13
ATOM     13  N   UNL     1      38.984  77.612  -3.340  0.00  0.00    -0.281 N 
ATOM     14  C   UNL     1      39.254  78.192  -4.568  0.00  0.00    +0.248 C 
ATOM     30  O   UNL     1      39.086  77.640  -5.645  0.00  0.00    -0.270 OA
ATOM     31  H   UNL     1      39.349  78.101  -2.523  0.00  0.00    +0.155 HD
BRANCH  14  15
ATOM     15  C   UNL     1      39.804  79.581  -4.605  0.00  0.00    +0.037 A 
ATOM     16  C   UNL     1      39.096  80.661  -5.298  0.00  0.00    +0.013 A 
ATOM     17  C   UNL     1      39.657  81.988  -5.333  0.00  0.00    +0.005 A 
ATOM     18  C   UNL     1      40.934  82.243  -4.670  0.00  0.00    -0.033 A 
ATOM     28  C   UNL     1      41.612  81.155  -3.985  0.00  0.00    +0.005 A 
ATOM     29  C   UNL     1      41.066  79.853  -3.950  0.00  0.00    +0.013 A 
BRANCH  18  19
ATOM     19  C   UNL     1      41.617  83.624  -4.675  0.00  0.00    +0.119 C 
BRANCH  19  20
ATOM     20  N   UNL     1      41.086  84.653  -3.732  0.00  0.00    -0.302 NA
ATOM     21  C   UNL     1      41.756  86.015  -3.931  0.00  0.00    +0.066 C 
ATOM     22  C   UNL     1      41.173  87.085  -2.951  0.00  0.00    -0.064 C 
ATOM     23  N   UNL     1      41.345  86.601  -1.510  0.00  0.00    +0.379 N 
ATOM     24  C   UNL     1      40.850  87.631  -0.585  0.00  0.00    -0.096 C 
ATOM     25  H   UNL     1      42.437  86.476  -1.325  0.00  0.00    -0.082 HD
ATOM     26  C   UNL     1      40.684  85.246  -1.305  0.00  0.00    -0.064 C 
ATOM     27  C   UNL     1      41.250  84.198  -2.302  0.00  0.00    +0.066 C 
ENDBRANCH  19  20
ENDBRANCH  18  19
ENDBRANCH  14  15
ENDBRANCH  12  13
TORSDOF 6
ENDMDL
