MODEL 1
REMARK VINA RESULT:      -9.5      0.000      0.000
REMARK  Name = C:\Users\Docking\Desktop\test protocol\1iep_ligandH.pdb
REMARK  8 active torsions:
REMARK  status: ('A' for Active; 'I' for Inactive)
REMARK    1  A    between atoms: _5  and  _11
REMARK    2  A    between atoms: _19  and  _21
REMARK    3  A    between atoms: _22  and  _66
REMARK    4  A    between atoms: _27  and  _30
REMARK    5  A    between atoms: _32  and  _33
REMARK    6  A    between atoms: _38  and  _43
REMARK    7  A    between atoms: _43  and  _46
REMARK    8  A    between atoms: _53  and  _55
REMARK                            x       y       z     vdW  Elec       q    Type
REMARK                         _______ _______ _______ _____ _____    ______ ____
ROOT
ATOM     10  C   UNL     1      40.741  78.125  -3.421  0.00  0.00    +0.038 A 
ATOM     11  C   UNL     1      40.615  78.789  -2.174  0.00  0.00    +0.047 A 
ATOM     12  C   UNL     1      40.851  80.220  -2.057  0.00  0.00    +0.035 A 
ATOM     32  C   UNL     1      41.211  80.944  -3.231  0.00  0.00    +0.024 A 
ATOM     33  C   UNL     1      41.344  80.284  -4.506  0.00  0.00    +0.007 A 
ATOM     34  C   UNL     1      41.115  78.873  -4.627  0.00  0.00    -0.029 A 
ATOM     35  C   UNL     1      41.278  78.217  -6.018  0.00  0.00    +0.045 C 
ENDROOT
BRANCH  10   9
ATOM      4  C   UNL     1      37.798  74.350  -3.785  0.00  0.00    +0.077 A 
ATOM      5  C   UNL     1      36.635  75.188  -3.842  0.00  0.00    +0.048 A 
ATOM      6  C   UNL     1      36.836  76.584  -3.768  0.00  0.00    +0.116 A 
ATOM      7  N   UNL     1      38.111  77.094  -3.646  0.00  0.00    -0.223 NA
ATOM      8  C   UNL     1      39.211  76.259  -3.591  0.00  0.00    +0.220 A 
ATOM      9  N   UNL     1      40.502  76.750  -3.476  0.00  0.00    -0.283 N 
ATOM     36  H   UNL     1      41.287  76.100  -3.432  0.00  0.00    +0.155 HD
ATOM     37  N   UNL     1      39.045  74.921  -3.659  0.00  0.00    -0.214 NA
BRANCH   4   3
ATOM      1  C   UNL     1      36.872  70.610  -3.110  0.00  0.00    +0.020 A 
ATOM      2  C   UNL     1      36.882  72.051  -3.002  0.00  0.00    +0.013 A 
ATOM      3  C   UNL     1      37.749  72.856  -3.854  0.00  0.00    +0.019 A 
ATOM     38  C   UNL     1      38.599  72.166  -4.813  0.00  0.00    +0.120 A 
ATOM     39  N   UNL     1      38.569  70.777  -4.893  0.00  0.00    -0.263 NA
ATOM     40  C   UNL     1      37.740  69.993  -4.077  0.00  0.00    +0.111 A 
ENDBRANCH   4   3
ENDBRANCH  10   9
BRANCH  12  13
ATOM     13  N   UNL     1      40.747  80.947  -0.816  0.00  0.00    -0.281 N 
ATOM     14  C   UNL     1      41.686  81.787  -0.239  0.00  0.00    +0.248 C 
ATOM     30  O   UNL     1      42.850  81.872  -0.600  0.00  0.00    -0.270 OA
ATOM     31  H   UNL     1      39.874  80.829  -0.301  0.00  0.00    +0.155 HD
BRANCH  14  15
ATOM     15  C   UNL     1      41.276  82.644   0.914  0.00  0.00    +0.037 A 
ATOM     16  C   UNL     1      42.025  82.634   2.173  0.00  0.00    +0.013 A 
ATOM     17  C   UNL     1      41.598  83.458   3.276  0.00  0.00    +0.005 A 
ATOM     18  C   UNL     1      40.415  84.302   3.123  0.00  0.00    -0.033 A 
ATOM     28  C   UNL     1      39.693  84.297   1.861  0.00  0.00    +0.005 A 
ATOM     29  C   UNL     1      40.108  83.489   0.779  0.00  0.00    +0.013 A 
BRANCH  18  19
ATOM     19  C   UNL     1      39.875  85.197   4.254  0.00  0.00    +0.119 C 
BRANCH  19  20
ATOM     20  N   UNL     1      38.655  86.007   3.961  0.00  0.00    -0.302 NA
ATOM     21  C   UNL     1      38.696  87.376   4.646  0.00  0.00    +0.066 C 
ATOM     22  C   UNL     1      37.422  88.218   4.311  0.00  0.00    -0.064 C 
ATOM     23  N   UNL     1      36.174  87.440   4.731  0.00  0.00    +0.379 N 
ATOM     24  C   UNL     1      34.978  88.254   4.470  0.00  0.00    -0.096 C 
ATOM     25  H   UNL     1      36.235  87.271   5.831  0.00  0.00    -0.082 HD
ATOM     26  C   UNL     1      36.127  86.076   4.056  0.00  0.00    -0.064 C 
ATOM     27  C   UNL     1      37.410  85.259   4.372  0.00  0.00    +0.066 C 
ENDBRANCH  19  20
ENDBRANCH  18  19
ENDBRANCH  14  15
ENDBRANCH  12  13
TORSDOF 6
ENDMDL
MODEL 2
REMARK VINA RESULT:      -9.4      2.080      3.271
REMARK  Name = C:\Users\Docking\Desktop\test protocol\1iep_ligandH.pdb
REMARK  8 active torsions:
REMARK  status: ('A' for Active; 'I' for Inactive)
REMARK    1  A    between atoms: _5  and  _11
REMARK    2  A    between atoms: _19  and  _21
REMARK    3  A    between atoms: _22  and  _66
REMARK    4  A    between atoms: _27  and  _30
REMARK    5  A    between atoms: _32  and  _33
REMARK    6  A    between atoms: _38  and  _43
REMARK    7  A    between atoms: _43  and  _46
REMARK    8  A    between atoms: _53  and  _55
REMARK                            x       y       z     vdW  Elec       q    Type
REMARK                         _______ _______ _______ _____ _____    ______ ____
ROOT
ATOM     10  C   UNL     1      39.154  76.178  -4.711  0.00  0.00    +0.038 A 
ATOM     11  C   UNL     1      39.570  77.018  -3.647  0.00  0.00    +0.047 A 
ATOM     12  C   UNL     1      39.740  78.450  -3.841  0.00  0.00    +0.035 A 
ATOM     32  C   UNL     1      39.474  78.993  -5.132  0.00  0.00    +0.024 A 
ATOM     33  C   UNL     1      39.052  78.153  -6.226  0.00  0.00    +0.007 A 
ATOM     34  C   UNL     1      38.885  76.740  -6.041  0.00  0.00    -0.029 A 
ATOM     35  C   UNL     1      38.437  75.886  -7.250  0.00  0.00    +0.045 C 
ENDROOT
BRANCH  10   9
ATOM      4  C   UNL     1      36.884  72.454  -2.707  0.00  0.00    +0.077 A 
ATOM      5  C   UNL     1      35.925  73.308  -2.067  0.00  0.00    +0.048 A 
ATOM      6  C   UNL     1      36.055  74.700  -2.273  0.00  0.00    +0.116 A 
ATOM      7  N   UNL     1      37.072  75.190  -3.063  0.00  0.00    -0.223 NA
ATOM      8  C   UNL     1      37.981  74.339  -3.664  0.00  0.00    +0.220 A 
ATOM      9  N   UNL     1      39.007  74.810  -4.469  0.00  0.00    -0.283 N 
ATOM     36  H   UNL     1      39.662  74.151  -4.889  0.00  0.00    +0.155 HD
ATOM     37  N   UNL     1      37.879  73.006  -3.482  0.00  0.00    -0.214 NA
BRANCH   4   3
ATOM      1  C   UNL     1      37.119  68.641  -3.546  0.00  0.00    +0.020 A 
ATOM      2  C   UNL     1      37.137  70.076  -3.715  0.00  0.00    +0.013 A 
ATOM      3  C   UNL     1      36.876  70.962  -2.588  0.00  0.00    +0.019 A 
ATOM     38  C   UNL     1      36.598  70.359  -1.293  0.00  0.00    +0.120 A 
ATOM     39  N   UNL     1      36.585  68.974  -1.161  0.00  0.00    -0.263 NA
ATOM     40  C   UNL     1      36.834  68.112  -2.239  0.00  0.00    +0.111 A 
ENDBRANCH   4   3
ENDBRANCH  10   9
BRANCH  12  13
ATOM     13  N   UNL     1      40.167  79.352  -2.801  0.00  0.00    -0.281 N 
ATOM     14  C   UNL     1      41.365  80.042  -2.711  0.00  0.00    +0.248 C 
ATOM     30  O   UNL     1      42.343  79.822  -3.410  0.00  0.00    -0.270 OA
ATOM     31  H   UNL     1      39.507  79.499  -2.037  0.00  0.00    +0.155 HD
BRANCH  14  15
ATOM     15  C   UNL     1      41.500  81.123  -1.688  0.00  0.00    +0.037 A 
ATOM     16  C   UNL     1      42.762  81.342  -0.975  0.00  0.00    +0.013 A 
ATOM     17  C   UNL     1      42.860  82.381   0.019  0.00  0.00    +0.005 A 
ATOM     18  C   UNL     1      41.692  83.211   0.305  0.00  0.00    -0.033 A 
ATOM     28  C   UNL     1      40.455  82.976  -0.420  0.00  0.00    +0.005 A 
ATOM     29  C   UNL     1      40.355  81.958  -1.395  0.00  0.00    +0.013 A 
BRANCH  18  19
ATOM     19  C   UNL     1      41.701  84.328   1.365  0.00  0.00    +0.119 C 
BRANCH  19  20
ATOM     20  N   UNL     1      40.758  84.187   2.515  0.00  0.00    -0.302 NA
ATOM     21  C   UNL     1      39.751  85.338   2.578  0.00  0.00    +0.066 C 
ATOM     22  C   UNL     1      38.759  85.163   3.773  0.00  0.00    -0.064 C 
ATOM     23  N   UNL     1      39.550  85.064   5.079  0.00  0.00    +0.379 N 
ATOM     24  C   UNL     1      38.618  84.957   6.210  0.00  0.00    -0.096 C 
ATOM     25  H   UNL     1      40.122  86.013   5.200  0.00  0.00    -0.082 HD
ATOM     26  C   UNL     1      40.556  83.923   5.024  0.00  0.00    -0.064 C 
ATOM     27  C   UNL     1      41.518  84.091   3.815  0.00  0.00    +0.066 C 
ENDBRANCH  19  20
ENDBRANCH  18  19
ENDBRANCH  14  15
ENDBRANCH  12  13
TORSDOF 6
ENDMDL
MODEL 3
REMARK VINA RESULT:      -8.8      4.000      6.562
REMARK  Name = C:\Users\Docking\Desktop\test protocol\1iep_ligandH.pdb
REMARK  8 active torsions:
REMARK  status: ('A' for Active; 'I' for Inactive)
REMARK    1  A    between atoms: _5  and  _11
REMARK    2  A    between atoms: _19  and  _21
REMARK    3  A    between atoms: _22  and  _66
REMARK    4  A    between atoms: _27  and  _30
REMARK    5  A    between atoms: _32  and  _33
REMARK    6  A    between atoms: _38  and  _43
REMARK    7  A    between atoms: _43  and  _46
REMARK    8  A    between atoms: _53  and  _55
REMARK                            x       y       z     vdW  Elec       q    Type
REMARK                         _______ _______ _______ _____ _____    ______ ____
ROOT
ATOM     10  C   UNL     1      38.029  73.923  -3.147  0.00  0.00    +0.038 A 
ATOM     11  C   UNL     1      38.813  75.072  -3.423  0.00  0.00    +0.047 A 
ATOM     12  C   UNL     1      38.327  76.408  -3.112  0.00  0.00    +0.035 A 
ATOM     32  C   UNL     1      37.038  76.536  -2.518  0.00  0.00    +0.024 A 
ATOM     33  C   UNL     1      36.227  75.379  -2.232  0.00  0.00    +0.007 A 
ATOM     34  C   UNL     1      36.700  74.060  -2.538  0.00  0.00    -0.029 A 
ATOM     35  C   UNL     1      35.785  72.856  -2.215  0.00  0.00    +0.045 C 
ENDROOT
BRANCH  10   9
ATOM      4  C   UNL     1      38.846  70.344  -6.239  0.00  0.00    +0.077 A 
ATOM      5  C   UNL     1      38.165  71.026  -7.301  0.00  0.00    +0.048 A 
ATOM      6  C   UNL     1      37.612  72.293  -7.008  0.00  0.00    +0.116 A 
ATOM      7  N   UNL     1      37.737  72.828  -5.744  0.00  0.00    -0.223 NA
ATOM      8  C   UNL     1      38.399  72.143  -4.742  0.00  0.00    +0.220 A 
ATOM      9  N   UNL     1      38.544  72.665  -3.466  0.00  0.00    -0.283 N 
ATOM     36  H   UNL     1      39.033  72.125  -2.753  0.00  0.00    +0.155 HD
ATOM     37  N   UNL     1      38.935  70.931  -4.996  0.00  0.00    -0.214 NA
BRANCH   4   3
ATOM      1  C   UNL     1      41.288  67.468  -7.271  0.00  0.00    +0.020 A 
ATOM      2  C   UNL     1      40.711  68.787  -7.153  0.00  0.00    +0.013 A 
ATOM      3  C   UNL     1      39.486  68.999  -6.393  0.00  0.00    +0.019 A 
ATOM     38  C   UNL     1      38.866  67.846  -5.757  0.00  0.00    +0.120 A 
ATOM     39  N   UNL     1      39.444  66.588  -5.889  0.00  0.00    -0.263 NA
ATOM     40  C   UNL     1      40.621  66.371  -6.620  0.00  0.00    +0.111 A 
ENDBRANCH   4   3
ENDBRANCH  10   9
BRANCH  12  13
ATOM     13  N   UNL     1      39.076  77.611  -3.377  0.00  0.00    -0.281 N 
ATOM     14  C   UNL     1      39.106  78.356  -4.545  0.00  0.00    +0.248 C 
ATOM     30  O   UNL     1      38.657  77.979  -5.617  0.00  0.00    -0.270 OA
ATOM     31  H   UNL     1      39.654  77.957  -2.610  0.00  0.00    +0.155 HD
BRANCH  14  15
ATOM     15  C   UNL     1      39.741  79.709  -4.522  0.00  0.00    +0.037 A 
ATOM     16  C   UNL     1      39.218  80.807  -5.340  0.00  0.00    +0.013 A 
ATOM     17  C   UNL     1      39.859  82.097  -5.313  0.00  0.00    +0.005 A 
ATOM     18  C   UNL     1      41.030  82.298  -4.462  0.00  0.00    -0.033 A 
ATOM     28  C   UNL     1      41.524  81.193  -3.657  0.00  0.00    +0.005 A 
ATOM     29  C   UNL     1      40.899  79.926  -3.682  0.00  0.00    +0.013 A 
BRANCH  18  19
ATOM     19  C   UNL     1      41.790  83.635  -4.386  0.00  0.00    +0.119 C 
BRANCH  19  20
ATOM     20  N   UNL     1      41.185  84.720  -3.558  0.00  0.00    -0.302 NA
ATOM     21  C   UNL     1      41.806  86.087  -3.857  0.00  0.00    +0.066 C 
ATOM     22  C   UNL     1      41.145  87.213  -2.998  0.00  0.00    -0.064 C 
ATOM     23  N   UNL     1      41.286  86.868  -1.514  0.00  0.00    +0.379 N 
ATOM     24  C   UNL     1      40.717  87.953  -0.702  0.00  0.00    -0.096 C 
ATOM     25  H   UNL     1      42.375  86.807  -1.283  0.00  0.00    -0.082 HD
ATOM     26  C   UNL     1      40.673  85.508  -1.208  0.00  0.00    -0.064 C 
ATOM     27  C   UNL     1      41.316  84.401  -2.089  0.00  0.00    +0.066 C 
ENDBRANCH  19  20
ENDBRANCH  18  19
ENDBRANCH  14  15
ENDBRANCH  12  13
TORSDOF 6
ENDMDL
MODEL 4
REMARK VINA RESULT:      -8.7      2.273     12.041
REMARK  Name = C:\Users\Docking\Desktop\test protocol\1iep_ligandH.pdb
REMARK  8 active torsions:
REMARK  status: ('A' for Active; 'I' for Inactive)
REMARK    1  A    between atoms: _5  and  _11
REMARK    2  A    between atoms: _19  and  _21
REMARK    3  A    between atoms: _22  and  _66
REMARK    4  A    between atoms: _27  and  _30
REMARK    5  A    between atoms: _32  and  _33
REMARK    6  A    between atoms: _38  and  _43
REMARK    7  A    between atoms: _43  and  _46
REMARK    8  A    between atoms: _53  and  _55
REMARK                            x       y       z     vdW  Elec       q    Type
REMARK                         _______ _______ _______ _____ _____    ______ ____
ROOT
ATOM     10  C   UNL     1      40.711  82.933  -2.320  0.00  0.00    +0.038 A 
ATOM     11  C   UNL     1      40.283  81.622  -2.652  0.00  0.00    +0.047 A 
ATOM     12  C   UNL     1      40.108  81.216  -4.037  0.00  0.00    +0.035 A 
ATOM     32  C   UNL     1      40.381  82.170  -5.061  0.00  0.00    +0.024 A 
ATOM     33  C   UNL     1      40.815  83.507  -4.741  0.00  0.00    +0.007 A 
ATOM     34  C   UNL     1      40.987  83.914  -3.376  0.00  0.00    -0.029 A 
ATOM     35  C   UNL     1      41.449  85.362  -3.092  0.00  0.00    +0.045 C 
ENDROOT
BRANCH  10   9
ATOM      4  C   UNL     1      38.926  84.172   1.960  0.00  0.00    +0.077 A 
ATOM      5  C   UNL     1      37.580  84.176   1.464  0.00  0.00    +0.048 A 
ATOM      6  C   UNL     1      37.391  83.860   0.100  0.00  0.00    +0.116 A 
ATOM      7  N   UNL     1      38.474  83.564  -0.699  0.00  0.00    -0.223 NA
ATOM      8  C   UNL     1      39.759  83.571  -0.189  0.00  0.00    +0.220 A 
ATOM      9  N   UNL     1      40.863  83.269  -0.973  0.00  0.00    -0.283 N 
ATOM     36  H   UNL     1      41.795  83.293  -0.561  0.00  0.00    +0.155 HD
ATOM     37  N   UNL     1      39.967  83.871   1.110  0.00  0.00    -0.214 NA
BRANCH   4   3
ATOM      1  C   UNL     1      40.937  84.646   5.282  0.00  0.00    +0.020 A 
ATOM      2  C   UNL     1      40.640  84.333   3.903  0.00  0.00    +0.013 A 
ATOM      3  C   UNL     1      39.288  84.482   3.379  0.00  0.00    +0.019 A 
ATOM     38  C   UNL     1      38.251  84.954   4.284  0.00  0.00    +0.120 A 
ATOM     39  N   UNL     1      38.566  85.246   5.608  0.00  0.00    -0.263 NA
ATOM     40  C   UNL     1      39.863  85.105   6.123  0.00  0.00    +0.111 A 
ENDBRANCH   4   3
ENDBRANCH  10   9
BRANCH  12  13
ATOM     13  N   UNL     1      39.668  79.901  -4.434  0.00  0.00    -0.281 N 
ATOM     14  C   UNL     1      40.282  78.685  -4.181  0.00  0.00    +0.248 C 
ATOM     30  O   UNL     1      41.420  78.561  -3.754  0.00  0.00    -0.270 OA
ATOM     31  H   UNL     1      38.799  79.862  -4.967  0.00  0.00    +0.155 HD
BRANCH  14  15
ATOM     15  C   UNL     1      39.526  77.425  -4.454  0.00  0.00    +0.037 A 
ATOM     16  C   UNL     1      38.618  77.316  -5.598  0.00  0.00    +0.013 A 
ATOM     17  C   UNL     1      37.888  76.094  -5.829  0.00  0.00    +0.005 A 
ATOM     18  C   UNL     1      38.066  74.970  -4.913  0.00  0.00    -0.033 A 
ATOM     28  C   UNL     1      38.977  75.104  -3.788  0.00  0.00    +0.005 A 
ATOM     29  C   UNL     1      39.693  76.300  -3.558  0.00  0.00    +0.013 A 
BRANCH  18  19
ATOM     19  C   UNL     1      37.312  73.636  -5.069  0.00  0.00    +0.119 C 
BRANCH  19  20
ATOM     20  N   UNL     1      37.413  72.657  -3.946  0.00  0.00    -0.302 NA
ATOM     21  C   UNL     1      37.133  71.224  -4.406  0.00  0.00    +0.066 C 
ATOM     22  C   UNL     1      37.265  70.210  -3.223  0.00  0.00    -0.064 C 
ATOM     23  N   UNL     1      36.310  70.615  -2.099  0.00  0.00    +0.379 N 
ATOM     24  C   UNL     1      36.389  69.632  -1.009  0.00  0.00    -0.096 C 
ATOM     25  H   UNL     1      35.273  70.583  -2.509  0.00  0.00    -0.082 HD
ATOM     26  C   UNL     1      36.579  72.040  -1.638  0.00  0.00    -0.064 C 
ATOM     27  C   UNL     1      36.474  73.036  -2.827  0.00  0.00    +0.066 C 
ENDBRANCH  19  20
ENDBRANCH  18  19
ENDBRANCH  14  15
ENDBRANCH  12  13
TORSDOF 6
ENDMDL
MODEL 5
REMARK VINA RESULT:      -8.5      2.230     12.589
REMARK  Name = C:\Users\Docking\Desktop\test protocol\1iep_ligandH.pdb
REMARK  8 active torsions:
REMARK  status: ('A' for Active; 'I' for Inactive)
REMARK    1  A    between atoms: _5  and  _11
REMARK    2  A    between atoms: _19  and  _21
REMARK    3  A    between atoms: _22  and  _66
REMARK    4  A    between atoms: _27  and  _30
REMARK    5  A    between atoms: _32  and  _33
REMARK    6  A    between atoms: _38  and  _43
REMARK    7  A    between atoms: _43  and  _46
REMARK    8  A    between atoms: _53  and  _55
REMARK                            x       y       z     vdW  Elec       q    Type
REMARK                         _______ _______ _______ _____ _____    ______ ____
ROOT
ATOM     10  C   UNL     1      40.017  84.168  -2.070  0.00  0.00    +0.038 A 
ATOM     11  C   UNL     1      39.642  82.858  -2.462  0.00  0.00    +0.047 A 
ATOM     12  C   UNL     1      40.196  82.242  -3.658  0.00  0.00    +0.035 A 
ATOM     32  C   UNL     1      41.131  82.989  -4.431  0.00  0.00    +0.024 A 
ATOM     33  C   UNL     1      41.523  84.323  -4.048  0.00  0.00    +0.007 A 
ATOM     34  C   UNL     1      40.978  84.937  -2.871  0.00  0.00    -0.029 A 
ATOM     35  C   UNL     1      41.429  86.372  -2.512  0.00  0.00    +0.045 C 
ENDROOT
BRANCH  10   9
ATOM      4  C   UNL     1      39.941  84.850   2.680  0.00  0.00    +0.077 A 
ATOM      5  C   UNL     1      41.105  84.034   2.875  0.00  0.00    +0.048 A 
ATOM      6  C   UNL     1      41.689  83.452   1.728  0.00  0.00    +0.116 A 
ATOM      7  N   UNL     1      41.142  83.675   0.483  0.00  0.00    -0.223 NA
ATOM      8  C   UNL     1      40.017  84.466   0.330  0.00  0.00    +0.220 A 
ATOM      9  N   UNL     1      39.455  84.711  -0.913  0.00  0.00    -0.283 N 
ATOM     36  H   UNL     1      38.621  85.293  -0.983  0.00  0.00    +0.155 HD
ATOM     37  N   UNL     1      39.440  85.032   1.410  0.00  0.00    -0.214 NA
BRANCH   4   3
ATOM      1  C   UNL     1      39.032  86.371   6.167  0.00  0.00    +0.020 A 
ATOM      2  C   UNL     1      39.778  85.700   5.127  0.00  0.00    +0.013 A 
ATOM      3  C   UNL     1      39.213  85.536   3.794  0.00  0.00    +0.019 A 
ATOM     38  C   UNL     1      37.881  86.067   3.543  0.00  0.00    +0.120 A 
ATOM     39  N   UNL     1      37.187  86.707   4.565  0.00  0.00    -0.263 NA
ATOM     40  C   UNL     1      37.719  86.870   5.852  0.00  0.00    +0.111 A 
ENDBRANCH   4   3
ENDBRANCH  10   9
BRANCH  12  13
ATOM     13  N   UNL     1      39.846  80.918  -4.109  0.00  0.00    -0.281 N 
ATOM     14  C   UNL     1      40.134  79.707  -3.501  0.00  0.00    +0.248 C 
ATOM     30  O   UNL     1      40.926  79.567  -2.580  0.00  0.00    -0.270 OA
ATOM     31  H   UNL     1      39.323  80.867  -4.983  0.00  0.00    +0.155 HD
BRANCH  14  15
ATOM     15  C   UNL     1      39.456  78.471  -3.995  0.00  0.00    +0.037 A 
ATOM     16  C   UNL     1      39.072  77.395  -3.078  0.00  0.00    +0.013 A 
ATOM     17  C   UNL     1      38.434  76.206  -3.583  0.00  0.00    +0.005 A 
ATOM     18  C   UNL     1      38.174  76.087  -5.016  0.00  0.00    -0.033 A 
ATOM     28  C   UNL     1      38.561  77.171  -5.904  0.00  0.00    +0.005 A 
ATOM     29  C   UNL     1      39.187  78.338  -5.412  0.00  0.00    +0.013 A 
BRANCH  18  19
ATOM     19  C   UNL     1      37.517  74.845  -5.647  0.00  0.00    +0.119 C 
BRANCH  19  20
ATOM     20  N   UNL     1      37.990  73.508  -5.176  0.00  0.00    -0.302 NA
ATOM     21  C   UNL     1      38.235  72.543  -6.339  0.00  0.00    +0.066 C 
ATOM     22  C   UNL     1      38.750  71.158  -5.831  0.00  0.00    -0.064 C 
ATOM     23  N   UNL     1      37.738  70.571  -4.845  0.00  0.00    +0.379 N 
ATOM     24  C   UNL     1      38.191  69.242  -4.409  0.00  0.00    -0.096 C 
ATOM     25  H   UNL     1      36.774  70.438  -5.389  0.00  0.00    -0.082 HD
ATOM     26  C   UNL     1      37.486  71.525  -3.686  0.00  0.00    -0.064 C 
ATOM     27  C   UNL     1      37.003  72.909  -4.205  0.00  0.00    +0.066 C 
ENDBRANCH  19  20
ENDBRANCH  18  19
ENDBRANCH  14  15
ENDBRANCH  12  13
TORSDOF 6
ENDMDL
