MODEL 1
REMARK VINA RESULT:      -9.4      0.000      0.000
REMARK  Name = C:\Users\Docking\Desktop\test protocol\1iep_ligandH.pdb
REMARK  8 active torsions:
REMARK  status: ('A' for Active; 'I' for Inactive)
REMARK    1  A    between atoms: _5  and  _11
REMARK    2  A    between atoms: _19  and  _21
REMARK    3  A    between atoms: _22  and  _66
REMARK    4  A    between atoms: _27  and  _30
REMARK    5  A    between atoms: _32  and  _33
REMARK    6  A    between atoms: _38  and  _43
REMARK    7  A    between atoms: _43  and  _46
REMARK    8  A    between atoms: _53  and  _55
REMARK                            x       y       z     vdW  Elec       q    Type
REMARK                         _______ _______ _______ _____ _____    ______ ____
ROOT
ATOM     10  C   UNL     1      40.760  78.089  -3.451  0.00  0.00    +0.038 A 
ATOM     11  C   UNL     1      40.634  78.755  -2.206  0.00  0.00    +0.047 A 
ATOM     12  C   UNL     1      40.883  80.184  -2.089  0.00  0.00    +0.035 A 
ATOM     32  C   UNL     1      41.256  80.903  -3.261  0.00  0.00    +0.024 A 
ATOM     33  C   UNL     1      41.390  80.241  -4.535  0.00  0.00    +0.007 A 
ATOM     34  C   UNL     1      41.148  78.832  -4.656  0.00  0.00    -0.029 A 
ATOM     35  C   UNL     1      41.313  78.173  -6.046  0.00  0.00    +0.045 C 
ENDROOT
BRANCH  10   9
ATOM      4  C   UNL     1      37.782  74.342  -3.810  0.00  0.00    +0.077 A 
ATOM      5  C   UNL     1      36.626  75.190  -3.865  0.00  0.00    +0.048 A 
ATOM      6  C   UNL     1      36.841  76.584  -3.790  0.00  0.00    +0.116 A 
ATOM      7  N   UNL     1      38.120  77.082  -3.671  0.00  0.00    -0.223 NA
ATOM      8  C   UNL     1      39.213  76.237  -3.619  0.00  0.00    +0.220 A 
ATOM      9  N   UNL     1      40.509  76.716  -3.507  0.00  0.00    -0.283 N 
ATOM     36  H   UNL     1      41.287  76.059  -3.464  0.00  0.00    +0.155 HD
ATOM     37  N   UNL     1      39.034  74.901  -3.687  0.00  0.00    -0.214 NA
BRANCH   4   3
ATOM      1  C   UNL     1      38.264  70.635  -4.962  0.00  0.00    +0.020 A 
ATOM      2  C   UNL     1      38.355  72.076  -4.940  0.00  0.00    +0.013 A 
ATOM      3  C   UNL     1      37.718  72.847  -3.880  0.00  0.00    +0.019 A 
ATOM     38  C   UNL     1      36.992  72.123  -2.848  0.00  0.00    +0.120 A 
ATOM     39  N   UNL     1      36.920  70.735  -2.895  0.00  0.00    -0.263 NA
ATOM     40  C   UNL     1      37.527  69.982  -3.911  0.00  0.00    +0.111 A 
ENDBRANCH   4   3
ENDBRANCH  10   9
BRANCH  12  13
ATOM     13  N   UNL     1      40.778  80.913  -0.849  0.00  0.00    -0.281 N 
ATOM     14  C   UNL     1      41.713  81.761  -0.279  0.00  0.00    +0.248 C 
ATOM     30  O   UNL     1      42.875  81.855  -0.645  0.00  0.00    -0.270 OA
ATOM     31  H   UNL     1      39.909  80.789  -0.329  0.00  0.00    +0.155 HD
BRANCH  14  15
ATOM     15  C   UNL     1      41.302  82.619   0.874  0.00  0.00    +0.037 A 
ATOM     16  C   UNL     1      42.083  82.652   2.113  0.00  0.00    +0.013 A 
ATOM     17  C   UNL     1      41.654  83.475   3.217  0.00  0.00    +0.005 A 
ATOM     18  C   UNL     1      40.438  84.273   3.085  0.00  0.00    -0.033 A 
ATOM     28  C   UNL     1      39.685  84.225   1.843  0.00  0.00    +0.005 A 
ATOM     29  C   UNL     1      40.101  83.419   0.759  0.00  0.00    +0.013 A 
BRANCH  18  19
ATOM     19  C   UNL     1      39.894  85.163   4.218  0.00  0.00    +0.119 C 
BRANCH  19  20
ATOM     20  N   UNL     1      38.670  85.967   3.929  0.00  0.00    -0.302 NA
ATOM     21  C   UNL     1      38.712  87.341   4.602  0.00  0.00    +0.066 C 
ATOM     22  C   UNL     1      37.434  88.178   4.271  0.00  0.00    -0.064 C 
ATOM     23  N   UNL     1      36.191  87.399   4.707  0.00  0.00    +0.379 N 
ATOM     24  C   UNL     1      34.991  88.207   4.449  0.00  0.00    -0.096 C 
ATOM     25  H   UNL     1      36.262  87.239   5.808  0.00  0.00    -0.082 HD
ATOM     26  C   UNL     1      36.142  86.030   4.044  0.00  0.00    -0.064 C 
ATOM     27  C   UNL     1      37.431  85.218   4.356  0.00  0.00    +0.066 C 
ENDBRANCH  19  20
ENDBRANCH  18  19
ENDBRANCH  14  15
ENDBRANCH  12  13
TORSDOF 6
ENDMDL
MODEL 2
REMARK VINA RESULT:      -9.4      2.081      3.114
REMARK  Name = C:\Users\Docking\Desktop\test protocol\1iep_ligandH.pdb
REMARK  8 active torsions:
REMARK  status: ('A' for Active; 'I' for Inactive)
REMARK    1  A    between atoms: _5  and  _11
REMARK    2  A    between atoms: _19  and  _21
REMARK    3  A    between atoms: _22  and  _66
REMARK    4  A    between atoms: _27  and  _30
REMARK    5  A    between atoms: _32  and  _33
REMARK    6  A    between atoms: _38  and  _43
REMARK    7  A    between atoms: _43  and  _46
REMARK    8  A    between atoms: _53  and  _55
REMARK                            x       y       z     vdW  Elec       q    Type
REMARK                         _______ _______ _______ _____ _____    ______ ____
ROOT
ATOM     10  C   UNL     1      39.211  76.184  -4.586  0.00  0.00    +0.038 A 
ATOM     11  C   UNL     1      39.637  77.025  -3.526  0.00  0.00    +0.047 A 
ATOM     12  C   UNL     1      39.821  78.454  -3.727  0.00  0.00    +0.035 A 
ATOM     32  C   UNL     1      39.559  78.994  -5.020  0.00  0.00    +0.024 A 
ATOM     33  C   UNL     1      39.126  78.154  -6.109  0.00  0.00    +0.007 A 
ATOM     34  C   UNL     1      38.946  76.743  -5.917  0.00  0.00    -0.029 A 
ATOM     35  C   UNL     1      38.486  75.889  -7.122  0.00  0.00    +0.045 C 
ENDROOT
BRANCH  10   9
ATOM      4  C   UNL     1      36.869  72.487  -2.616  0.00  0.00    +0.077 A 
ATOM      5  C   UNL     1      35.898  73.350  -2.008  0.00  0.00    +0.048 A 
ATOM      6  C   UNL     1      36.040  74.740  -2.221  0.00  0.00    +0.116 A 
ATOM      7  N   UNL     1      37.081  75.219  -2.986  0.00  0.00    -0.223 NA
ATOM      8  C   UNL     1      38.002  74.360  -3.557  0.00  0.00    +0.220 A 
ATOM      9  N   UNL     1      39.051  74.819  -4.337  0.00  0.00    -0.283 N 
ATOM     36  H   UNL     1      39.713  74.154  -4.735  0.00  0.00    +0.155 HD
ATOM     37  N   UNL     1      37.888  73.029  -3.367  0.00  0.00    -0.214 NA
BRANCH   4   3
ATOM      1  C   UNL     1      37.138  68.667  -3.412  0.00  0.00    +0.020 A 
ATOM      2  C   UNL     1      37.169  70.100  -3.590  0.00  0.00    +0.013 A 
ATOM      3  C   UNL     1      36.851  70.996  -2.485  0.00  0.00    +0.019 A 
ATOM     38  C   UNL     1      36.503  70.404  -1.202  0.00  0.00    +0.120 A 
ATOM     39  N   UNL     1      36.479  69.020  -1.060  0.00  0.00    -0.263 NA
ATOM     40  C   UNL     1      36.782  68.149  -2.117  0.00  0.00    +0.111 A 
ENDBRANCH   4   3
ENDBRANCH  10   9
BRANCH  12  13
ATOM     13  N   UNL     1      40.259  79.356  -2.691  0.00  0.00    -0.281 N 
ATOM     14  C   UNL     1      41.424  80.105  -2.650  0.00  0.00    +0.248 C 
ATOM     30  O   UNL     1      42.372  79.949  -3.405  0.00  0.00    -0.270 OA
ATOM     31  H   UNL     1      39.635  79.455  -1.890  0.00  0.00    +0.155 HD
BRANCH  14  15
ATOM     15  C   UNL     1      41.560  81.172  -1.612  0.00  0.00    +0.037 A 
ATOM     16  C   UNL     1      42.836  81.412  -0.933  0.00  0.00    +0.013 A 
ATOM     17  C   UNL     1      42.936  82.436   0.077  0.00  0.00    +0.005 A 
ATOM     18  C   UNL     1      41.756  83.229   0.412  0.00  0.00    -0.033 A 
ATOM     28  C   UNL     1      40.505  82.973  -0.281  0.00  0.00    +0.005 A 
ATOM     29  C   UNL     1      40.402  81.970  -1.270  0.00  0.00    +0.013 A 
BRANCH  18  19
ATOM     19  C   UNL     1      41.766  84.328   1.492  0.00  0.00    +0.119 C 
BRANCH  19  20
ATOM     20  N   UNL     1      40.817  84.172   2.634  0.00  0.00    -0.302 NA
ATOM     21  C   UNL     1      39.759  85.278   2.657  0.00  0.00    +0.066 C 
ATOM     22  C   UNL     1      38.762  85.088   3.846  0.00  0.00    -0.064 C 
ATOM     23  N   UNL     1      39.541  85.056   5.162  0.00  0.00    +0.379 N 
ATOM     24  C   UNL     1      38.601  84.935   6.286  0.00  0.00    -0.096 C 
ATOM     25  H   UNL     1      40.068  86.033   5.266  0.00  0.00    -0.082 HD
ATOM     26  C   UNL     1      40.597  83.960   5.147  0.00  0.00    -0.064 C 
ATOM     27  C   UNL     1      41.565  84.143   3.945  0.00  0.00    +0.066 C 
ENDBRANCH  19  20
ENDBRANCH  18  19
ENDBRANCH  14  15
ENDBRANCH  12  13
TORSDOF 6
ENDMDL
MODEL 3
REMARK VINA RESULT:      -9.1      1.365      1.916
REMARK  Name = C:\Users\Docking\Desktop\test protocol\1iep_ligandH.pdb
REMARK  8 active torsions:
REMARK  status: ('A' for Active; 'I' for Inactive)
REMARK    1  A    between atoms: _5  and  _11
REMARK    2  A    between atoms: _19  and  _21
REMARK    3  A    between atoms: _22  and  _66
REMARK    4  A    between atoms: _27  and  _30
REMARK    5  A    between atoms: _32  and  _33
REMARK    6  A    between atoms: _38  and  _43
REMARK    7  A    between atoms: _43  and  _46
REMARK    8  A    between atoms: _53  and  _55
REMARK                            x       y       z     vdW  Elec       q    Type
REMARK                         _______ _______ _______ _____ _____    ______ ____
ROOT
ATOM     10  C   UNL     1      41.149  78.191  -2.714  0.00  0.00    +0.038 A 
ATOM     11  C   UNL     1      40.710  79.102  -1.719  0.00  0.00    +0.047 A 
ATOM     12  C   UNL     1      41.183  80.477  -1.697  0.00  0.00    +0.035 A 
ATOM     32  C   UNL     1      42.102  80.892  -2.705  0.00  0.00    +0.024 A 
ATOM     33  C   UNL     1      42.560  79.979  -3.722  0.00  0.00    +0.007 A 
ATOM     34  C   UNL     1      42.098  78.620  -3.748  0.00  0.00    -0.029 A 
ATOM     35  C   UNL     1      42.627  77.683  -4.859  0.00  0.00    +0.045 C 
ENDROOT
BRANCH  10   9
ATOM      4  C   UNL     1      38.035  74.806  -4.086  0.00  0.00    +0.077 A 
ATOM      5  C   UNL     1      37.300  75.729  -4.902  0.00  0.00    +0.048 A 
ATOM      6  C   UNL     1      37.753  77.067  -4.936  0.00  0.00    +0.116 A 
ATOM      7  N   UNL     1      38.858  77.443  -4.205  0.00  0.00    -0.223 NA
ATOM      8  C   UNL     1      39.542  76.528  -3.426  0.00  0.00    +0.220 A 
ATOM      9  N   UNL     1      40.661  76.882  -2.688  0.00  0.00    -0.283 N 
ATOM     36  H   UNL     1      41.134  76.180  -2.120  0.00  0.00    +0.155 HD
ATOM     37  N   UNL     1      39.130  75.245  -3.375  0.00  0.00    -0.214 NA
BRANCH   4   3
ATOM      1  C   UNL     1      36.980  71.345  -2.600  0.00  0.00    +0.020 A 
ATOM      2  C   UNL     1      37.312  72.749  -2.678  0.00  0.00    +0.013 A 
ATOM      3  C   UNL     1      37.682  73.358  -3.949  0.00  0.00    +0.019 A 
ATOM     38  C   UNL     1      37.707  72.511  -5.133  0.00  0.00    +0.120 A 
ATOM     39  N   UNL     1      37.384  71.162  -5.027  0.00  0.00    -0.263 NA
ATOM     40  C   UNL     1      37.028  70.565  -3.809  0.00  0.00    +0.111 A 
ENDBRANCH   4   3
ENDBRANCH  10   9
BRANCH  12  13
ATOM     13  N   UNL     1      40.779  81.445  -0.708  0.00  0.00    -0.281 N 
ATOM     14  C   UNL     1      40.195  82.684  -0.917  0.00  0.00    +0.248 C 
ATOM     30  O   UNL     1      40.125  83.241  -2.002  0.00  0.00    -0.270 OA
ATOM     31  H   UNL     1      40.944  81.186   0.265  0.00  0.00    +0.155 HD
BRANCH  14  15
ATOM     15  C   UNL     1      39.616  83.415   0.251  0.00  0.00    +0.037 A 
ATOM     16  C   UNL     1      38.246  83.935   0.220  0.00  0.00    +0.013 A 
ATOM     17  C   UNL     1      37.719  84.652   1.353  0.00  0.00    +0.005 A 
ATOM     18  C   UNL     1      38.561  84.852   2.530  0.00  0.00    -0.033 A 
ATOM     28  C   UNL     1      39.915  84.321   2.536  0.00  0.00    +0.005 A 
ATOM     29  C   UNL     1      40.436  83.619   1.427  0.00  0.00    +0.013 A 
BRANCH  18  19
ATOM     19  C   UNL     1      38.088  85.623   3.776  0.00  0.00    +0.119 C 
BRANCH  19  20
ATOM     20  N   UNL     1      36.836  86.427   3.648  0.00  0.00    -0.302 NA
ATOM     21  C   UNL     1      36.854  87.666   4.548  0.00  0.00    +0.066 C 
ATOM     22  C   UNL     1      35.547  88.507   4.385  0.00  0.00    -0.064 C 
ATOM     23  N   UNL     1      34.335  87.628   4.699  0.00  0.00    +0.379 N 
ATOM     24  C   UNL     1      33.108  88.431   4.603  0.00  0.00    -0.096 C 
ATOM     25  H   UNL     1      34.433  87.283   5.755  0.00  0.00    -0.082 HD
ATOM     26  C   UNL     1      34.311  86.392   3.811  0.00  0.00    -0.064 C 
ATOM     27  C   UNL     1      35.627  85.579   3.958  0.00  0.00    +0.066 C 
ENDBRANCH  19  20
ENDBRANCH  18  19
ENDBRANCH  14  15
ENDBRANCH  12  13
TORSDOF 6
ENDMDL
MODEL 4
REMARK VINA RESULT:      -9.0      2.971      5.270
REMARK  Name = C:\Users\Docking\Desktop\test protocol\1iep_ligandH.pdb
REMARK  8 active torsions:
REMARK  status: ('A' for Active; 'I' for Inactive)
REMARK    1  A    between atoms: _5  and  _11
REMARK    2  A    between atoms: _19  and  _21
REMARK    3  A    between atoms: _22  and  _66
REMARK    4  A    between atoms: _27  and  _30
REMARK    5  A    between atoms: _32  and  _33
REMARK    6  A    between atoms: _38  and  _43
REMARK    7  A    between atoms: _43  and  _46
REMARK    8  A    between atoms: _53  and  _55
REMARK                            x       y       z     vdW  Elec       q    Type
REMARK                         _______ _______ _______ _____ _____    ______ ____
ROOT
ATOM     10  C   UNL     1      38.443  74.388  -4.986  0.00  0.00    +0.038 A 
ATOM     11  C   UNL     1      39.220  75.206  -4.127  0.00  0.00    +0.047 A 
ATOM     12  C   UNL     1      39.425  76.618  -4.414  0.00  0.00    +0.035 A 
ATOM     32  C   UNL     1      38.821  77.164  -5.584  0.00  0.00    +0.024 A 
ATOM     33  C   UNL     1      38.029  76.346  -6.469  0.00  0.00    +0.007 A 
ATOM     34  C   UNL     1      37.826  74.953  -6.192  0.00  0.00    -0.029 A 
ATOM     35  C   UNL     1      36.972  74.123  -7.180  0.00  0.00    +0.045 C 
ENDROOT
BRANCH  10   9
ATOM      4  C   UNL     1      36.800  70.888  -2.142  0.00  0.00    +0.077 A 
ATOM      5  C   UNL     1      36.246  71.826  -1.209  0.00  0.00    +0.048 A 
ATOM      6  C   UNL     1      36.411  73.200  -1.494  0.00  0.00    +0.116 A 
ATOM      7  N   UNL     1      37.083  73.595  -2.630  0.00  0.00    -0.223 NA
ATOM      8  C   UNL     1      37.607  72.665  -3.509  0.00  0.00    +0.220 A 
ATOM      9  N   UNL     1      38.278  73.040  -4.662  0.00  0.00    -0.283 N 
ATOM     36  H   UNL     1      38.657  72.323  -5.281  0.00  0.00    +0.155 HD
ATOM     37  N   UNL     1      37.463  71.347  -3.259  0.00  0.00    -0.214 NA
BRANCH   4   3
ATOM      1  C   UNL     1      37.265  67.039  -2.664  0.00  0.00    +0.020 A 
ATOM      2  C   UNL     1      37.390  68.465  -2.863  0.00  0.00    +0.013 A 
ATOM      3  C   UNL     1      36.705  69.402  -1.982  0.00  0.00    +0.019 A 
ATOM     38  C   UNL     1      35.896  68.861  -0.900  0.00  0.00    +0.120 A 
ATOM     39  N   UNL     1      35.793  67.483  -0.734  0.00  0.00    -0.263 NA
ATOM     40  C   UNL     1      36.446  66.571  -1.577  0.00  0.00    +0.111 A 
ENDBRANCH   4   3
ENDBRANCH  10   9
BRANCH  12  13
ATOM     13  N   UNL     1      40.210  77.496  -3.582  0.00  0.00    -0.281 N 
ATOM     14  C   UNL     1      41.511  77.925  -3.787  0.00  0.00    +0.248 C 
ATOM     30  O   UNL     1      42.275  77.445  -4.612  0.00  0.00    -0.270 OA
ATOM     31  H   UNL     1      39.751  77.843  -2.740  0.00  0.00    +0.155 HD
BRANCH  14  15
ATOM     15  C   UNL     1      42.046  79.037  -2.945  0.00  0.00    +0.037 A 
ATOM     16  C   UNL     1      43.469  79.385  -2.960  0.00  0.00    +0.013 A 
ATOM     17  C   UNL     1      43.962  80.452  -2.124  0.00  0.00    +0.005 A 
ATOM     18  C   UNL     1      43.029  81.179  -1.267  0.00  0.00    -0.033 A 
ATOM     28  C   UNL     1      41.621  80.817  -1.276  0.00  0.00    +0.005 A 
ATOM     29  C   UNL     1      41.135  79.771  -2.093  0.00  0.00    +0.013 A 
BRANCH  18  19
ATOM     19  C   UNL     1      43.470  82.317  -0.328  0.00  0.00    +0.119 C 
BRANCH  19  20
ATOM     20  N   UNL     1      42.626  82.574   0.878  0.00  0.00    -0.302 NA
ATOM     21  C   UNL     1      42.104  84.013   0.917  0.00  0.00    +0.066 C 
ATOM     22  C   UNL     1      41.205  84.258   2.173  0.00  0.00    -0.064 C 
ATOM     23  N   UNL     1      42.002  83.937   3.438  0.00  0.00    +0.379 N 
ATOM     24  C   UNL     1      41.179  84.222   4.622  0.00  0.00    -0.096 C 
ATOM     25  H   UNL     1      42.883  84.620   3.465  0.00  0.00    -0.082 HD
ATOM     26  C   UNL     1      42.528  82.509   3.406  0.00  0.00    -0.064 C 
ATOM     27  C   UNL     1      43.396  82.267   2.139  0.00  0.00    +0.066 C 
ENDBRANCH  19  20
ENDBRANCH  18  19
ENDBRANCH  14  15
ENDBRANCH  12  13
TORSDOF 6
ENDMDL
MODEL 5
REMARK VINA RESULT:      -9.0      2.131     12.875
REMARK  Name = C:\Users\Docking\Desktop\test protocol\1iep_ligandH.pdb
REMARK  8 active torsions:
REMARK  status: ('A' for Active; 'I' for Inactive)
REMARK    1  A    between atoms: _5  and  _11
REMARK    2  A    between atoms: _19  and  _21
REMARK    3  A    between atoms: _22  and  _66
REMARK    4  A    between atoms: _27  and  _30
REMARK    5  A    between atoms: _32  and  _33
REMARK    6  A    between atoms: _38  and  _43
REMARK    7  A    between atoms: _43  and  _46
REMARK    8  A    between atoms: _53  and  _55
REMARK                            x       y       z     vdW  Elec       q    Type
REMARK                         _______ _______ _______ _____ _____    ______ ____
ROOT
ATOM     10  C   UNL     1      41.807  82.162  -0.209  0.00  0.00    +0.038 A 
ATOM     11  C   UNL     1      41.122  81.154  -0.934  0.00  0.00    +0.047 A 
ATOM     12  C   UNL     1      41.847  80.175  -1.730  0.00  0.00    +0.035 A 
ATOM     32  C   UNL     1      43.270  80.252  -1.762  0.00  0.00    +0.024 A 
ATOM     33  C   UNL     1      43.982  81.271  -1.032  0.00  0.00    +0.007 A 
ATOM     34  C   UNL     1      43.272  82.240  -0.248  0.00  0.00    -0.029 A 
ATOM     35  C   UNL     1      44.087  83.314   0.510  0.00  0.00    +0.045 C 
ENDROOT
BRANCH  10   9
ATOM      4  C   UNL     1      40.369  84.039   3.968  0.00  0.00    +0.077 A 
ATOM      5  C   UNL     1      41.149  83.103   4.725  0.00  0.00    +0.048 A 
ATOM      6  C   UNL     1      41.901  82.150   4.002  0.00  0.00    +0.116 A 
ATOM      7  N   UNL     1      41.867  82.143   2.624  0.00  0.00    -0.223 NA
ATOM      8  C   UNL     1      41.103  83.059   1.925  0.00  0.00    +0.220 A 
ATOM      9  N   UNL     1      41.061  83.076   0.539  0.00  0.00    -0.283 N 
ATOM     36  H   UNL     1      40.479  83.763   0.060  0.00  0.00    +0.155 HD
ATOM     37  N   UNL     1      40.375  83.978   2.592  0.00  0.00    -0.214 NA
BRANCH   4   3
ATOM      1  C   UNL     1      39.136  86.974   6.242  0.00  0.00    +0.020 A 
ATOM      2  C   UNL     1      39.992  85.955   5.678  0.00  0.00    +0.013 A 
ATOM      3  C   UNL     1      39.524  85.108   4.588  0.00  0.00    +0.019 A 
ATOM     38  C   UNL     1      38.174  85.320   4.087  0.00  0.00    +0.120 A 
ATOM     39  N   UNL     1      37.372  86.308   4.650  0.00  0.00    -0.263 NA
ATOM     40  C   UNL     1      37.812  87.128   5.701  0.00  0.00    +0.111 A 
ENDBRANCH   4   3
ENDBRANCH  10   9
BRANCH  12  13
ATOM     13  N   UNL     1      41.206  79.134  -2.493  0.00  0.00    -0.281 N 
ATOM     14  C   UNL     1      40.260  78.219  -2.059  0.00  0.00    +0.248 C 
ATOM     30  O   UNL     1      39.978  78.020  -0.887  0.00  0.00    -0.270 OA
ATOM     31  H   UNL     1      41.482  79.062  -3.472  0.00  0.00    +0.155 HD
BRANCH  14  15
ATOM     15  C   UNL     1      39.533  77.396  -3.073  0.00  0.00    +0.037 A 
ATOM     16  C   UNL     1      38.135  77.006  -2.874  0.00  0.00    +0.013 A 
ATOM     17  C   UNL     1      37.462  76.198  -3.860  0.00  0.00    +0.005 A 
ATOM     18  C   UNL     1      38.187  75.775  -5.055  0.00  0.00    -0.033 A 
ATOM     28  C   UNL     1      39.572  76.181  -5.230  0.00  0.00    +0.005 A 
ATOM     29  C   UNL     1      40.235  76.972  -4.266  0.00  0.00    +0.013 A 
BRANCH  18  19
ATOM     19  C   UNL     1      37.556  74.894  -6.149  0.00  0.00    +0.119 C 
BRANCH  19  20
ATOM     20  N   UNL     1      38.192  73.569  -6.412  0.00  0.00    -0.302 NA
ATOM     21  C   UNL     1      37.458  72.786  -7.504  0.00  0.00    +0.066 C 
ATOM     22  C   UNL     1      38.151  71.412  -7.783  0.00  0.00    -0.064 C 
ATOM     23  N   UNL     1      38.214  70.603  -6.486  0.00  0.00    +0.379 N 
ATOM     24  C   UNL     1      38.812  69.288  -6.756  0.00  0.00    -0.096 C 
ATOM     25  H   UNL     1      37.167  70.435  -6.142  0.00  0.00    -0.082 HD
ATOM     26  C   UNL     1      38.940  71.376  -5.393  0.00  0.00    -0.064 C 
ATOM     27  C   UNL     1      38.261  72.752  -5.145  0.00  0.00    +0.066 C 
ENDBRANCH  19  20
ENDBRANCH  18  19
ENDBRANCH  14  15
ENDBRANCH  12  13
TORSDOF 6
ENDMDL
