MODEL 1
REMARK VINA RESULT:      -9.8      0.000      0.000
REMARK  Name = C:\Users\Docking\Desktop\test protocol\1iep_ligandH.pdb
REMARK  8 active torsions:
REMARK  status: ('A' for Active; 'I' for Inactive)
REMARK    1  A    between atoms: _5  and  _11
REMARK    2  A    between atoms: _19  and  _21
REMARK    3  A    between atoms: _22  and  _66
REMARK    4  A    between atoms: _27  and  _30
REMARK    5  A    between atoms: _32  and  _33
REMARK    6  A    between atoms: _38  and  _43
REMARK    7  A    between atoms: _43  and  _46
REMARK    8  A    between atoms: _53  and  _55
REMARK                            x       y       z     vdW  Elec       q    Type
REMARK                         _______ _______ _______ _____ _____    ______ ____
ROOT
ATOM     10  C   UNL     1      19.964  19.559  -6.076  0.00  0.00    +0.038 A 
ATOM     11  C   UNL     1      18.682  18.995  -5.849  0.00  0.00    +0.047 A 
ATOM     12  C   UNL     1      18.387  17.622  -6.225  0.00  0.00    +0.035 A 
ATOM     32  C   UNL     1      19.422  16.848  -6.827  0.00  0.00    +0.024 A 
ATOM     33  C   UNL     1      20.730  17.405  -7.065  0.00  0.00    +0.007 A 
ATOM     34  C   UNL     1      21.027  18.761  -6.699  0.00  0.00    -0.029 A 
ATOM     35  C   UNL     1      22.445  19.307  -6.985  0.00  0.00    +0.045 C 
ENDROOT
BRANCH  10   9
ATOM      4  C   UNL     1      18.516  24.091  -5.443  0.00  0.00    +0.077 A 
ATOM      5  C   UNL     1      17.201  23.802  -5.936  0.00  0.00    +0.048 A 
ATOM      6  C   UNL     1      16.939  22.476  -6.350  0.00  0.00    +0.116 A 
ATOM      7  N   UNL     1      17.928  21.519  -6.271  0.00  0.00    -0.223 NA
ATOM      8  C   UNL     1      19.186  21.831  -5.791  0.00  0.00    +0.220 A 
ATOM      9  N   UNL     1      20.193  20.883  -5.696  0.00  0.00    -0.283 N 
ATOM     36  H   UNL     1      21.110  21.155  -5.343  0.00  0.00    +0.155 HD
ATOM     37  N   UNL     1      19.461  23.090  -5.391  0.00  0.00    -0.214 NA
BRANCH   4   3
ATOM      1  C   UNL     1      18.551  27.605  -3.725  0.00  0.00    +0.020 A 
ATOM      2  C   UNL     1      18.089  26.307  -4.161  0.00  0.00    +0.013 A 
ATOM      3  C   UNL     1      18.944  25.443  -4.965  0.00  0.00    +0.019 A 
ATOM     38  C   UNL     1      20.272  25.926  -5.313  0.00  0.00    +0.120 A 
ATOM     39  N   UNL     1      20.690  27.181  -4.880  0.00  0.00    -0.263 NA
ATOM     40  C   UNL     1      19.875  28.021  -4.107  0.00  0.00    +0.111 A 
ENDBRANCH   4   3
ENDBRANCH  10   9
BRANCH  12  13
ATOM     13  N   UNL     1      17.102  16.998  -6.027  0.00  0.00    -0.281 N 
ATOM     14  C   UNL     1      16.147  16.693  -6.983  0.00  0.00    +0.248 C 
ATOM     30  O   UNL     1      16.164  17.106  -8.133  0.00  0.00    -0.270 OA
ATOM     31  H   UNL     1      16.868  16.752  -5.065  0.00  0.00    +0.155 HD
BRANCH  14  15
ATOM     15  C   UNL     1      15.000  15.813  -6.603  0.00  0.00    +0.037 A 
ATOM     16  C   UNL     1      15.128  14.354  -6.606  0.00  0.00    +0.013 A 
ATOM     17  C   UNL     1      14.001  13.528  -6.252  0.00  0.00    +0.005 A 
ATOM     18  C   UNL     1      12.735  14.162  -5.889  0.00  0.00    -0.033 A 
ATOM     28  C   UNL     1      12.638  15.612  -5.889  0.00  0.00    +0.005 A 
ATOM     29  C   UNL     1      13.740  16.424  -6.237  0.00  0.00    +0.013 A 
BRANCH  18  19
ATOM     19  C   UNL     1      11.474  13.359  -5.518  0.00  0.00    +0.119 C 
BRANCH  19  20
ATOM     20  N   UNL     1      11.043  13.386  -4.088  0.00  0.00    -0.302 NA
ATOM     21  C   UNL     1      10.589  12.008  -3.599  0.00  0.00    +0.066 C 
ATOM     22  C   UNL     1      10.163  12.050  -2.095  0.00  0.00    -0.064 C 
ATOM     23  N   UNL     1       9.049  13.083  -1.913  0.00  0.00    +0.379 N 
ATOM     24  C   UNL     1       8.606  13.084  -0.511  0.00  0.00    -0.096 C 
ATOM     25  H   UNL     1       8.186  12.763  -2.541  0.00  0.00    -0.082 HD
ATOM     26  C   UNL     1       9.491  14.456  -2.399  0.00  0.00    -0.064 C 
ATOM     27  C   UNL     1       9.941  14.397  -3.886  0.00  0.00    +0.066 C 
ENDBRANCH  19  20
ENDBRANCH  18  19
ENDBRANCH  14  15
ENDBRANCH  12  13
TORSDOF 6
ENDMDL
MODEL 2
REMARK VINA RESULT:      -9.5     25.002     27.286
REMARK  Name = C:\Users\Docking\Desktop\test protocol\1iep_ligandH.pdb
REMARK  8 active torsions:
REMARK  status: ('A' for Active; 'I' for Inactive)
REMARK    1  A    between atoms: _5  and  _11
REMARK    2  A    between atoms: _19  and  _21
REMARK    3  A    between atoms: _22  and  _66
REMARK    4  A    between atoms: _27  and  _30
REMARK    5  A    between atoms: _32  and  _33
REMARK    6  A    between atoms: _38  and  _43
REMARK    7  A    between atoms: _43  and  _46
REMARK    8  A    between atoms: _53  and  _55
REMARK                            x       y       z     vdW  Elec       q    Type
REMARK                         _______ _______ _______ _____ _____    ______ ____
ROOT
ATOM     10  C   UNL     1      37.503  10.103  13.241  0.00  0.00    +0.038 A 
ATOM     11  C   UNL     1      36.816   9.315  12.282  0.00  0.00    +0.047 A 
ATOM     12  C   UNL     1      35.670   8.502  12.659  0.00  0.00    +0.035 A 
ATOM     32  C   UNL     1      35.249   8.517  14.021  0.00  0.00    +0.024 A 
ATOM     33  C   UNL     1      35.936   9.312  15.008  0.00  0.00    +0.007 A 
ATOM     34  C   UNL     1      37.069  10.114  14.643  0.00  0.00    -0.029 A 
ATOM     35  C   UNL     1      37.772  10.941  15.745  0.00  0.00    +0.045 C 
ENDROOT
BRANCH  10   9
ATOM      4  C   UNL     1      39.415  14.046  11.282  0.00  0.00    +0.077 A 
ATOM      5  C   UNL     1      38.125  14.625  11.045  0.00  0.00    +0.048 A 
ATOM      6  C   UNL     1      36.994  13.874  11.435  0.00  0.00    +0.116 A 
ATOM      7  N   UNL     1      37.154  12.635  12.018  0.00  0.00    -0.223 NA
ATOM      8  C   UNL     1      38.413  12.105  12.232  0.00  0.00    +0.220 A 
ATOM      9  N   UNL     1      38.597  10.865  12.824  0.00  0.00    -0.283 N 
ATOM     36  H   UNL     1      39.542  10.505  12.957  0.00  0.00    +0.155 HD
ATOM     37  N   UNL     1      39.508  12.802  11.867  0.00  0.00    -0.214 NA
BRANCH   4   3
ATOM      1  C   UNL     1      42.771  14.987   9.505  0.00  0.00    +0.020 A 
ATOM      2  C   UNL     1      41.534  14.303   9.804  0.00  0.00    +0.013 A 
ATOM      3  C   UNL     1      40.705  14.719  10.929  0.00  0.00    +0.019 A 
ATOM     38  C   UNL     1      41.160  15.840  11.737  0.00  0.00    +0.120 A 
ATOM     39  N   UNL     1      42.356  16.479  11.426  0.00  0.00    -0.263 NA
ATOM     40  C   UNL     1      43.163  16.086  10.347  0.00  0.00    +0.111 A 
ENDBRANCH   4   3
ENDBRANCH  10   9
BRANCH  12  13
ATOM     13  N   UNL     1      34.938   7.676  11.731  0.00  0.00    -0.281 N 
ATOM     14  C   UNL     1      34.826   7.829  10.359  0.00  0.00    +0.248 C 
ATOM     30  O   UNL     1      35.167   8.829   9.745  0.00  0.00    -0.270 OA
ATOM     31  H   UNL     1      34.441   6.882  12.136  0.00  0.00    +0.155 HD
BRANCH  14  15
ATOM     15  C   UNL     1      34.238   6.715   9.554  0.00  0.00    +0.037 A 
ATOM     16  C   UNL     1      35.088   5.793   8.798  0.00  0.00    +0.013 A 
ATOM     17  C   UNL     1      34.494   4.738   8.016  0.00  0.00    +0.005 A 
ATOM     18  C   UNL     1      33.040   4.599   7.987  0.00  0.00    -0.033 A 
ATOM     28  C   UNL     1      32.220   5.525   8.751  0.00  0.00    +0.005 A 
ATOM     29  C   UNL     1      32.799   6.561   9.518  0.00  0.00    +0.013 A 
BRANCH  18  19
ATOM     19  C   UNL     1      32.319   3.516   7.163  0.00  0.00    +0.119 C 
BRANCH  19  20
ATOM     20  N   UNL     1      31.708   3.937   5.867  0.00  0.00    -0.302 NA
ATOM     21  C   UNL     1      30.816   2.844   5.271  0.00  0.00    +0.066 C 
ATOM     22  C   UNL     1      30.167   3.309   3.927  0.00  0.00    -0.064 C 
ATOM     23  N   UNL     1      31.268   3.707   2.943  0.00  0.00    +0.379 N 
ATOM     24  C   UNL     1      30.663   4.090   1.658  0.00  0.00    -0.096 C 
ATOM     25  H   UNL     1      31.902   2.807   2.763  0.00  0.00    -0.082 HD
ATOM     26  C   UNL     1      32.161   4.791   3.528  0.00  0.00    -0.064 C 
ATOM     27  C   UNL     1      32.778   4.330   4.878  0.00  0.00    +0.066 C 
ENDBRANCH  19  20
ENDBRANCH  18  19
ENDBRANCH  14  15
ENDBRANCH  12  13
TORSDOF 6
ENDMDL
MODEL 3
REMARK VINA RESULT:      -9.4     21.879     26.240
REMARK  Name = C:\Users\Docking\Desktop\test protocol\1iep_ligandH.pdb
REMARK  8 active torsions:
REMARK  status: ('A' for Active; 'I' for Inactive)
REMARK    1  A    between atoms: _5  and  _11
REMARK    2  A    between atoms: _19  and  _21
REMARK    3  A    between atoms: _22  and  _66
REMARK    4  A    between atoms: _27  and  _30
REMARK    5  A    between atoms: _32  and  _33
REMARK    6  A    between atoms: _38  and  _43
REMARK    7  A    between atoms: _43  and  _46
REMARK    8  A    between atoms: _53  and  _55
REMARK                            x       y       z     vdW  Elec       q    Type
REMARK                         _______ _______ _______ _____ _____    ______ ____
ROOT
ATOM     10  C   UNL     1      20.426  25.166  17.286  0.00  0.00    +0.038 A 
ATOM     11  C   UNL     1      21.597  25.418  16.527  0.00  0.00    +0.047 A 
ATOM     12  C   UNL     1      21.851  24.714  15.279  0.00  0.00    +0.035 A 
ATOM     32  C   UNL     1      20.888  23.762  14.833  0.00  0.00    +0.024 A 
ATOM     33  C   UNL     1      19.693  23.493  15.593  0.00  0.00    +0.007 A 
ATOM     34  C   UNL     1      19.439  24.183  16.825  0.00  0.00    -0.029 A 
ATOM     35  C   UNL     1      18.144  23.849  17.602  0.00  0.00    +0.045 C 
ENDROOT
BRANCH  10   9
ATOM      4  C   UNL     1      21.148  25.809  21.987  0.00  0.00    +0.077 A 
ATOM      5  C   UNL     1      21.955  24.628  22.085  0.00  0.00    +0.048 A 
ATOM      6  C   UNL     1      22.155  23.878  20.904  0.00  0.00    +0.116 A 
ATOM      7  N   UNL     1      21.585  24.290  19.719  0.00  0.00    -0.223 NA
ATOM      8  C   UNL     1      20.810  25.434  19.660  0.00  0.00    +0.220 A 
ATOM      9  N   UNL     1      20.234  25.870  18.477  0.00  0.00    -0.283 N 
ATOM     36  H   UNL     1      19.663  26.715  18.476  0.00  0.00    +0.155 HD
ATOM     37  N   UNL     1      20.603  26.166  20.774  0.00  0.00    -0.214 NA
BRANCH   4   3
ATOM      1  C   UNL     1      20.128  27.119  25.529  0.00  0.00    +0.020 A 
ATOM      2  C   UNL     1      20.403  26.209  24.442  0.00  0.00    +0.013 A 
ATOM      3  C   UNL     1      20.849  26.708  23.147  0.00  0.00    +0.019 A 
ATOM     38  C   UNL     1      21.007  28.145  22.984  0.00  0.00    +0.120 A 
ATOM     39  N   UNL     1      20.733  28.998  24.049  0.00  0.00    -0.263 NA
ATOM     40  C   UNL     1      20.302  28.529  25.299  0.00  0.00    +0.111 A 
ENDBRANCH   4   3
ENDBRANCH  10   9
BRANCH  12  13
ATOM     13  N   UNL     1      23.026  24.922  14.469  0.00  0.00    -0.281 N 
ATOM     14  C   UNL     1      23.747  26.093  14.299  0.00  0.00    +0.248 C 
ATOM     30  O   UNL     1      23.363  27.198  14.653  0.00  0.00    -0.270 OA
ATOM     31  H   UNL     1      23.367  24.107  13.959  0.00  0.00    +0.155 HD
BRANCH  14  15
ATOM     15  C   UNL     1      25.080  26.029  13.627  0.00  0.00    +0.037 A 
ATOM     16  C   UNL     1      26.001  24.916  13.871  0.00  0.00    +0.013 A 
ATOM     17  C   UNL     1      27.288  24.887  13.222  0.00  0.00    +0.005 A 
ATOM     18  C   UNL     1      27.661  25.975  12.322  0.00  0.00    -0.033 A 
ATOM     28  C   UNL     1      26.726  27.064  12.094  0.00  0.00    +0.005 A 
ATOM     29  C   UNL     1      25.464  27.096  12.728  0.00  0.00    +0.013 A 
BRANCH  18  19
ATOM     19  C   UNL     1      29.022  26.037  11.604  0.00  0.00    +0.119 C 
BRANCH  19  20
ATOM     20  N   UNL     1      29.029  26.528  10.193  0.00  0.00    -0.302 NA
ATOM     21  C   UNL     1      29.662  25.514   9.235  0.00  0.00    +0.066 C 
ATOM     22  C   UNL     1      29.641  26.034   7.761  0.00  0.00    -0.064 C 
ATOM     23  N   UNL     1      30.368  27.377   7.686  0.00  0.00    +0.379 N 
ATOM     24  C   UNL     1      30.400  27.841   6.291  0.00  0.00    -0.096 C 
ATOM     25  H   UNL     1      31.421  27.210   8.012  0.00  0.00    -0.082 HD
ATOM     26  C   UNL     1      29.746  28.390   8.637  0.00  0.00    -0.064 C 
ATOM     27  C   UNL     1      29.746  27.852  10.095  0.00  0.00    +0.066 C 
ENDBRANCH  19  20
ENDBRANCH  18  19
ENDBRANCH  14  15
ENDBRANCH  12  13
TORSDOF 6
ENDMDL
MODEL 4
REMARK VINA RESULT:      -9.1     22.478     25.272
REMARK  Name = C:\Users\Docking\Desktop\test protocol\1iep_ligandH.pdb
REMARK  8 active torsions:
REMARK  status: ('A' for Active; 'I' for Inactive)
REMARK    1  A    between atoms: _5  and  _11
REMARK    2  A    between atoms: _19  and  _21
REMARK    3  A    between atoms: _22  and  _66
REMARK    4  A    between atoms: _27  and  _30
REMARK    5  A    between atoms: _32  and  _33
REMARK    6  A    between atoms: _38  and  _43
REMARK    7  A    between atoms: _43  and  _46
REMARK    8  A    between atoms: _53  and  _55
REMARK                            x       y       z     vdW  Elec       q    Type
REMARK                         _______ _______ _______ _____ _____    ______ ____
ROOT
ATOM     10  C   UNL     1      28.694  28.846  12.398  0.00  0.00    +0.038 A 
ATOM     11  C   UNL     1      27.797  29.944  12.420  0.00  0.00    +0.047 A 
ATOM     12  C   UNL     1      27.216  30.417  13.667  0.00  0.00    +0.035 A 
ATOM     32  C   UNL     1      27.572  29.748  14.874  0.00  0.00    +0.024 A 
ATOM     33  C   UNL     1      28.481  28.629  14.870  0.00  0.00    +0.007 A 
ATOM     34  C   UNL     1      29.056  28.157  13.643  0.00  0.00    -0.029 A 
ATOM     35  C   UNL     1      30.019  26.948  13.697  0.00  0.00    +0.045 C 
ENDROOT
BRANCH  10   9
ATOM      4  C   UNL     1      31.838  29.251   8.794  0.00  0.00    +0.077 A 
ATOM      5  C   UNL     1      32.464  30.396   9.390  0.00  0.00    +0.048 A 
ATOM      6  C   UNL     1      31.942  30.853  10.621  0.00  0.00    +0.116 A 
ATOM      7  N   UNL     1      30.874  30.206  11.204  0.00  0.00    -0.223 NA
ATOM      8  C   UNL     1      30.292  29.105  10.601  0.00  0.00    +0.220 A 
ATOM      9  N   UNL     1      29.222  28.434  11.172  0.00  0.00    -0.283 N 
ATOM     36  H   UNL     1      28.816  27.631  10.693  0.00  0.00    +0.155 HD
ATOM     37  N   UNL     1      30.771  28.650   9.425  0.00  0.00    -0.214 NA
BRANCH   4   3
ATOM      1  C   UNL     1      33.042  28.813   5.098  0.00  0.00    +0.020 A 
ATOM      2  C   UNL     1      32.623  29.446   6.328  0.00  0.00    +0.013 A 
ATOM      3  C   UNL     1      32.277  28.647   7.497  0.00  0.00    +0.019 A 
ATOM     38  C   UNL     1      32.367  27.199   7.388  0.00  0.00    +0.120 A 
ATOM     39  N   UNL     1      32.772  26.617   6.190  0.00  0.00    -0.263 NA
ATOM     40  C   UNL     1      33.106  27.376   5.059  0.00  0.00    +0.111 A 
ENDBRANCH   4   3
ENDBRANCH  10   9
BRANCH  12  13
ATOM     13  N   UNL     1      26.294  31.522  13.750  0.00  0.00    -0.281 N 
ATOM     14  C   UNL     1      26.566  32.871  13.597  0.00  0.00    +0.248 C 
ATOM     30  O   UNL     1      27.690  33.352  13.575  0.00  0.00    -0.270 OA
ATOM     31  H   UNL     1      25.322  31.280  13.946  0.00  0.00    +0.155 HD
BRANCH  14  15
ATOM     15  C   UNL     1      25.425  33.827  13.461  0.00  0.00    +0.037 A 
ATOM     16  C   UNL     1      25.639  35.276  13.497  0.00  0.00    +0.013 A 
ATOM     17  C   UNL     1      24.519  36.176  13.382  0.00  0.00    +0.005 A 
ATOM     18  C   UNL     1      23.173  35.628  13.227  0.00  0.00    -0.033 A 
ATOM     28  C   UNL     1      22.990  34.187  13.189  0.00  0.00    +0.005 A 
ATOM     29  C   UNL     1      24.086  33.302  13.303  0.00  0.00    +0.013 A 
BRANCH  18  19
ATOM     19  C   UNL     1      21.918  36.513  13.118  0.00  0.00    +0.119 C 
BRANCH  19  20
ATOM     20  N   UNL     1      20.854  36.076  12.165  0.00  0.00    -0.302 NA
ATOM     21  C   UNL     1      20.777  36.984  10.934  0.00  0.00    +0.066 C 
ATOM     22  C   UNL     1      19.675  36.499   9.937  0.00  0.00    -0.064 C 
ATOM     23  N   UNL     1      18.326  36.448  10.658  0.00  0.00    +0.379 N 
ATOM     24  C   UNL     1      17.278  36.049   9.708  0.00  0.00    -0.096 C 
ATOM     25  H   UNL     1      18.091  37.481  11.007  0.00  0.00    -0.082 HD
ATOM     26  C   UNL     1      18.394  35.550  11.885  0.00  0.00    -0.064 C 
ATOM     27  C   UNL     1      19.513  36.023  12.855  0.00  0.00    +0.066 C 
ENDBRANCH  19  20
ENDBRANCH  18  19
ENDBRANCH  14  15
ENDBRANCH  12  13
TORSDOF 6
ENDMDL
MODEL 5
REMARK VINA RESULT:      -9.1      2.460      3.727
REMARK  Name = C:\Users\Docking\Desktop\test protocol\1iep_ligandH.pdb
REMARK  8 active torsions:
REMARK  status: ('A' for Active; 'I' for Inactive)
REMARK    1  A    between atoms: _5  and  _11
REMARK    2  A    between atoms: _19  and  _21
REMARK    3  A    between atoms: _22  and  _66
REMARK    4  A    between atoms: _27  and  _30
REMARK    5  A    between atoms: _32  and  _33
REMARK    6  A    between atoms: _38  and  _43
REMARK    7  A    between atoms: _43  and  _46
REMARK    8  A    between atoms: _53  and  _55
REMARK                            x       y       z     vdW  Elec       q    Type
REMARK                         _______ _______ _______ _____ _____    ______ ____
ROOT
ATOM     10  C   UNL     1      15.488  20.928  -7.552  0.00  0.00    +0.038 A 
ATOM     11  C   UNL     1      14.717  20.110  -6.687  0.00  0.00    +0.047 A 
ATOM     12  C   UNL     1      14.220  18.814  -7.121  0.00  0.00    +0.035 A 
ATOM     32  C   UNL     1      14.530  18.379  -8.442  0.00  0.00    +0.024 A 
ATOM     33  C   UNL     1      15.312  19.197  -9.335  0.00  0.00    +0.007 A 
ATOM     34  C   UNL     1      15.802  20.479  -8.914  0.00  0.00    -0.029 A 
ATOM     35  C   UNL     1      16.630  21.316  -9.916  0.00  0.00    +0.045 C 
ENDROOT
BRANCH  10   9
ATOM      4  C   UNL     1      18.825  23.730  -5.541  0.00  0.00    +0.077 A 
ATOM      5  C   UNL     1      19.736  22.634  -5.385  0.00  0.00    +0.048 A 
ATOM      6  C   UNL     1      19.305  21.363  -5.829  0.00  0.00    +0.116 A 
ATOM      7  N   UNL     1      18.054  21.213  -6.386  0.00  0.00    -0.223 NA
ATOM      8  C   UNL     1      17.199  22.291  -6.520  0.00  0.00    +0.220 A 
ATOM      9  N   UNL     1      15.939  22.164  -7.084  0.00  0.00    -0.283 N 
ATOM     36  H   UNL     1      15.335  22.982  -7.158  0.00  0.00    +0.155 HD
ATOM     37  N   UNL     1      17.586  23.514  -6.102  0.00  0.00    -0.214 NA
BRANCH   4   3
ATOM      1  C   UNL     1      20.638  27.159  -5.032  0.00  0.00    +0.020 A 
ATOM      2  C   UNL     1      20.387  25.802  -5.460  0.00  0.00    +0.013 A 
ATOM      3  C   UNL     1      19.136  25.134  -5.123  0.00  0.00    +0.019 A 
ATOM     38  C   UNL     1      18.152  25.873  -4.347  0.00  0.00    +0.120 A 
ATOM     39  N   UNL     1      18.422  27.178  -3.948  0.00  0.00    -0.263 NA
ATOM     40  C   UNL     1      19.623  27.831  -4.265  0.00  0.00    +0.111 A 
ENDBRANCH   4   3
ENDBRANCH  10   9
BRANCH  12  13
ATOM     13  N   UNL     1      13.426  17.944  -6.289  0.00  0.00    -0.281 N 
ATOM     14  C   UNL     1      12.071  18.032  -6.014  0.00  0.00    +0.248 C 
ATOM     30  O   UNL     1      11.375  19.002  -6.273  0.00  0.00    -0.270 OA
ATOM     31  H   UNL     1      13.923  17.169  -5.849  0.00  0.00    +0.155 HD
BRANCH  14  15
ATOM     15  C   UNL     1      11.394  16.881  -5.342  0.00  0.00    +0.037 A 
ATOM     16  C   UNL     1      10.414  17.095  -4.274  0.00  0.00    +0.013 A 
ATOM     17  C   UNL     1       9.789  15.967  -3.630  0.00  0.00    +0.005 A 
ATOM     18  C   UNL     1      10.141  14.614  -4.054  0.00  0.00    -0.033 A 
ATOM     28  C   UNL     1      11.113  14.431  -5.119  0.00  0.00    +0.005 A 
ATOM     29  C   UNL     1      11.729  15.534  -5.752  0.00  0.00    +0.013 A 
BRANCH  18  19
ATOM     19  C   UNL     1       9.540  13.352  -3.409  0.00  0.00    +0.119 C 
BRANCH  19  20
ATOM     20  N   UNL     1       9.029  13.476  -2.011  0.00  0.00    -0.302 NA
ATOM     21  C   UNL     1       9.603  12.394  -1.092  0.00  0.00    +0.066 C 
ATOM     22  C   UNL     1       9.077  12.552   0.372  0.00  0.00    -0.064 C 
ATOM     23  N   UNL     1       7.548  12.504   0.369  0.00  0.00    +0.379 N 
ATOM     24  C   UNL     1       7.051  12.594   1.750  0.00  0.00    -0.096 C 
ATOM     25  H   UNL     1       7.242  11.512  -0.037  0.00  0.00    -0.082 HD
ATOM     26  C   UNL     1       6.969  13.575  -0.545  0.00  0.00    -0.064 C 
ATOM     27  C   UNL     1       7.521  13.427  -1.990  0.00  0.00    +0.066 C 
ENDBRANCH  19  20
ENDBRANCH  18  19
ENDBRANCH  14  15
ENDBRANCH  12  13
TORSDOF 6
ENDMDL
