MODEL 1
REMARK VINA RESULT:      -9.5      0.000      0.000
REMARK  Name = C:\Users\Docking\Desktop\test protocol\1iep_ligandH.pdb
REMARK  8 active torsions:
REMARK  status: ('A' for Active; 'I' for Inactive)
REMARK    1  A    between atoms: _5  and  _11
REMARK    2  A    between atoms: _19  and  _21
REMARK    3  A    between atoms: _22  and  _66
REMARK    4  A    between atoms: _27  and  _30
REMARK    5  A    between atoms: _32  and  _33
REMARK    6  A    between atoms: _38  and  _43
REMARK    7  A    between atoms: _43  and  _46
REMARK    8  A    between atoms: _53  and  _55
REMARK                            x       y       z     vdW  Elec       q    Type
REMARK                         _______ _______ _______ _____ _____    ______ ____
ROOT
ATOM     10  C   UNL     1      29.857  29.490  11.383  0.00  0.00    +0.038 A 
ATOM     11  C   UNL     1      28.645  29.036  11.962  0.00  0.00    +0.047 A 
ATOM     12  C   UNL     1      27.748  29.953  12.648  0.00  0.00    +0.035 A 
ATOM     32  C   UNL     1      28.115  31.328  12.722  0.00  0.00    +0.024 A 
ATOM     33  C   UNL     1      29.344  31.807  12.139  0.00  0.00    +0.007 A 
ATOM     34  C   UNL     1      30.234  30.907  11.464  0.00  0.00    -0.029 A 
ATOM     35  C   UNL     1      31.541  31.475  10.863  0.00  0.00    +0.045 C 
ENDROOT
BRANCH  10   9
ATOM      4  C   UNL     1      31.065  26.838   7.569  0.00  0.00    +0.077 A 
ATOM      5  C   UNL     1      29.945  27.314   6.809  0.00  0.00    +0.048 A 
ATOM      6  C   UNL     1      29.078  28.235   7.439  0.00  0.00    +0.116 A 
ATOM      7  N   UNL     1      29.323  28.643   8.732  0.00  0.00    -0.223 NA
ATOM      8  C   UNL     1      30.411  28.163   9.437  0.00  0.00    +0.220 A 
ATOM      9  N   UNL     1      30.681  28.566  10.736  0.00  0.00    -0.283 N 
ATOM     36  H   UNL     1      31.489  28.183  11.225  0.00  0.00    +0.155 HD
ATOM     37  N   UNL     1      31.253  27.282   8.859  0.00  0.00    -0.214 NA
BRANCH   4   3
ATOM      1  C   UNL     1      34.134  25.282   5.709  0.00  0.00    +0.020 A 
ATOM      2  C   UNL     1      33.188  26.262   6.192  0.00  0.00    +0.013 A 
ATOM      3  C   UNL     1      32.073  25.864   7.041  0.00  0.00    +0.019 A 
ATOM     38  C   UNL     1      31.941  24.457   7.387  0.00  0.00    +0.120 A 
ATOM     39  N   UNL     1      32.866  23.536   6.906  0.00  0.00    -0.263 NA
ATOM     40  C   UNL     1      33.943  23.906   6.086  0.00  0.00    +0.111 A 
ENDBRANCH   4   3
ENDBRANCH  10   9
BRANCH  12  13
ATOM     13  N   UNL     1      26.508  29.548  13.262  0.00  0.00    -0.281 N 
ATOM     14  C   UNL     1      25.376  29.043  12.644  0.00  0.00    +0.248 C 
ATOM     30  O   UNL     1      25.180  29.063  11.438  0.00  0.00    -0.270 OA
ATOM     31  H   UNL     1      26.459  29.645  14.276  0.00  0.00    +0.155 HD
BRANCH  14  15
ATOM     15  C   UNL     1      24.300  28.441  13.488  0.00  0.00    +0.037 A 
ATOM     16  C   UNL     1      23.179  29.248  13.979  0.00  0.00    +0.013 A 
ATOM     17  C   UNL     1      22.163  28.646  14.806  0.00  0.00    +0.005 A 
ATOM     18  C   UNL     1      22.263  27.229  15.146  0.00  0.00    -0.033 A 
ATOM     28  C   UNL     1      23.382  26.451  14.641  0.00  0.00    +0.005 A 
ATOM     29  C   UNL     1      24.380  27.037  13.831  0.00  0.00    +0.013 A 
BRANCH  18  19
ATOM     19  C   UNL     1      21.235  26.509  16.040  0.00  0.00    +0.119 C 
BRANCH  19  20
ATOM     20  N   UNL     1      21.448  25.052  16.289  0.00  0.00    -0.302 NA
ATOM     21  C   UNL     1      20.506  24.183  15.450  0.00  0.00    +0.066 C 
ATOM     22  C   UNL     1      20.757  22.661  15.705  0.00  0.00    -0.064 C 
ATOM     23  N   UNL     1      20.586  22.362  17.196  0.00  0.00    +0.379 N 
ATOM     24  C   UNL     1      20.764  20.922  17.431  0.00  0.00    -0.096 C 
ATOM     25  H   UNL     1      19.538  22.624  17.474  0.00  0.00    -0.082 HD
ATOM     26  C   UNL     1      21.516  23.224  18.038  0.00  0.00    -0.064 C 
ATOM     27  C   UNL     1      21.279  24.734  17.754  0.00  0.00    +0.066 C 
ENDBRANCH  19  20
ENDBRANCH  18  19
ENDBRANCH  14  15
ENDBRANCH  12  13
TORSDOF 6
ENDMDL
MODEL 2
REMARK VINA RESULT:      -9.1     20.828     23.064
REMARK  Name = C:\Users\Docking\Desktop\test protocol\1iep_ligandH.pdb
REMARK  8 active torsions:
REMARK  status: ('A' for Active; 'I' for Inactive)
REMARK    1  A    between atoms: _5  and  _11
REMARK    2  A    between atoms: _19  and  _21
REMARK    3  A    between atoms: _22  and  _66
REMARK    4  A    between atoms: _27  and  _30
REMARK    5  A    between atoms: _32  and  _33
REMARK    6  A    between atoms: _38  and  _43
REMARK    7  A    between atoms: _43  and  _46
REMARK    8  A    between atoms: _53  and  _55
REMARK                            x       y       z     vdW  Elec       q    Type
REMARK                         _______ _______ _______ _____ _____    ______ ____
ROOT
ATOM     10  C   UNL     1      19.791  19.608  -6.046  0.00  0.00    +0.038 A 
ATOM     11  C   UNL     1      18.509  19.033  -5.850  0.00  0.00    +0.047 A 
ATOM     12  C   UNL     1      18.219  17.675  -6.283  0.00  0.00    +0.035 A 
ATOM     32  C   UNL     1      19.259  16.929  -6.910  0.00  0.00    +0.024 A 
ATOM     33  C   UNL     1      20.567  17.498  -7.119  0.00  0.00    +0.007 A 
ATOM     34  C   UNL     1      20.859  18.838  -6.696  0.00  0.00    -0.029 A 
ATOM     35  C   UNL     1      22.277  19.399  -6.951  0.00  0.00    +0.045 C 
ENDROOT
BRANCH  10   9
ATOM      4  C   UNL     1      18.544  24.231  -5.717  0.00  0.00    +0.077 A 
ATOM      5  C   UNL     1      17.360  24.029  -6.503  0.00  0.00    +0.048 A 
ATOM      6  C   UNL     1      17.113  22.721  -6.978  0.00  0.00    +0.116 A 
ATOM      7  N   UNL     1      17.990  21.700  -6.684  0.00  0.00    -0.223 NA
ATOM      8  C   UNL     1      19.123  21.930  -5.925  0.00  0.00    +0.220 A 
ATOM      9  N   UNL     1      20.014  20.916  -5.610  0.00  0.00    -0.283 N 
ATOM     36  H   UNL     1      20.843  21.127  -5.054  0.00  0.00    +0.155 HD
ATOM     37  N   UNL     1      19.382  23.170  -5.460  0.00  0.00    -0.214 NA
BRANCH   4   3
ATOM      1  C   UNL     1      18.463  27.656  -3.829  0.00  0.00    +0.020 A 
ATOM      2  C   UNL     1      18.030  26.385  -4.364  0.00  0.00    +0.013 A 
ATOM      3  C   UNL     1      18.941  25.554  -5.141  0.00  0.00    +0.019 A 
ATOM     38  C   UNL     1      20.294  26.041  -5.360  0.00  0.00    +0.120 A 
ATOM     39  N   UNL     1      20.683  27.269  -4.833  0.00  0.00    -0.263 NA
ATOM     40  C   UNL     1      19.815  28.078  -4.086  0.00  0.00    +0.111 A 
ENDBRANCH   4   3
ENDBRANCH  10   9
BRANCH  12  13
ATOM     13  N   UNL     1      16.934  17.042  -6.117  0.00  0.00    -0.281 N 
ATOM     14  C   UNL     1      16.107  16.525  -7.101  0.00  0.00    +0.248 C 
ATOM     30  O   UNL     1      16.250  16.723  -8.298  0.00  0.00    -0.270 OA
ATOM     31  H   UNL     1      16.594  16.965  -5.159  0.00  0.00    +0.155 HD
BRANCH  14  15
ATOM     15  C   UNL     1      14.943  15.679  -6.695  0.00  0.00    +0.037 A 
ATOM     16  C   UNL     1      15.054  14.220  -6.622  0.00  0.00    +0.013 A 
ATOM     17  C   UNL     1      13.911  13.426  -6.244  0.00  0.00    +0.005 A 
ATOM     18  C   UNL     1      12.648  14.092  -5.934  0.00  0.00    -0.033 A 
ATOM     28  C   UNL     1      12.568  15.541  -6.009  0.00  0.00    +0.005 A 
ATOM     29  C   UNL     1      13.685  16.322  -6.380  0.00  0.00    +0.013 A 
BRANCH  18  19
ATOM     19  C   UNL     1      11.372  13.323  -5.542  0.00  0.00    +0.119 C 
BRANCH  19  20
ATOM     20  N   UNL     1      11.012  13.289  -4.093  0.00  0.00    -0.302 NA
ATOM     21  C   UNL     1      10.552  11.898  -3.648  0.00  0.00    +0.066 C 
ATOM     22  C   UNL     1      10.201  11.875  -2.125  0.00  0.00    -0.064 C 
ATOM     23  N   UNL     1       9.122  12.920  -1.837  0.00  0.00    +0.379 N 
ATOM     24  C   UNL     1       8.748  12.861  -0.416  0.00  0.00    -0.096 C 
ATOM     25  H   UNL     1       8.221  12.649  -2.436  0.00  0.00    -0.082 HD
ATOM     26  C   UNL     1       9.570  14.306  -2.279  0.00  0.00    -0.064 C 
ATOM     27  C   UNL     1       9.945  14.311  -3.788  0.00  0.00    +0.066 C 
ENDBRANCH  19  20
ENDBRANCH  18  19
ENDBRANCH  14  15
ENDBRANCH  12  13
TORSDOF 6
ENDMDL
MODEL 3
REMARK VINA RESULT:      -9.1     18.896     22.830
REMARK  Name = C:\Users\Docking\Desktop\test protocol\1iep_ligandH.pdb
REMARK  8 active torsions:
REMARK  status: ('A' for Active; 'I' for Inactive)
REMARK    1  A    between atoms: _5  and  _11
REMARK    2  A    between atoms: _19  and  _21
REMARK    3  A    between atoms: _22  and  _66
REMARK    4  A    between atoms: _27  and  _30
REMARK    5  A    between atoms: _32  and  _33
REMARK    6  A    between atoms: _38  and  _43
REMARK    7  A    between atoms: _43  and  _46
REMARK    8  A    between atoms: _53  and  _55
REMARK                            x       y       z     vdW  Elec       q    Type
REMARK                         _______ _______ _______ _____ _____    ______ ____
ROOT
ATOM     10  C   UNL     1      24.851  17.706 -10.274  0.00  0.00    +0.038 A 
ATOM     11  C   UNL     1      24.020  18.759  -9.814  0.00  0.00    +0.047 A 
ATOM     12  C   UNL     1      23.093  18.559  -8.711  0.00  0.00    +0.035 A 
ATOM     32  C   UNL     1      23.040  17.273  -8.098  0.00  0.00    +0.024 A 
ATOM     33  C   UNL     1      23.876  16.191  -8.555  0.00  0.00    +0.007 A 
ATOM     34  C   UNL     1      24.791  16.382  -9.644  0.00  0.00    -0.029 A 
ATOM     35  C   UNL     1      25.659  15.185 -10.095  0.00  0.00    +0.045 C 
ENDROOT
BRANCH  10   9
ATOM      4  C   UNL     1      29.029  19.271 -12.044  0.00  0.00    +0.077 A 
ATOM      5  C   UNL     1      29.505  19.651 -10.745  0.00  0.00    +0.048 A 
ATOM      6  C   UNL     1      28.640  19.433  -9.648  0.00  0.00    +0.116 A 
ATOM      7  N   UNL     1      27.396  18.877  -9.848  0.00  0.00    -0.223 NA
ATOM      8  C   UNL     1      26.967  18.523 -11.114  0.00  0.00    +0.220 A 
ATOM      9  N   UNL     1      25.723  17.954 -11.337  0.00  0.00    -0.283 N 
ATOM     36  H   UNL     1      25.441  17.714 -12.287  0.00  0.00    +0.155 HD
ATOM     37  N   UNL     1      27.773  18.722 -12.178  0.00  0.00    -0.214 NA
BRANCH   4   3
ATOM      1  C   UNL     1      31.026  20.836 -15.021  0.00  0.00    +0.020 A 
ATOM      2  C   UNL     1      30.256  20.733 -13.802  0.00  0.00    +0.013 A 
ATOM      3  C   UNL     1      29.827  19.434 -13.300  0.00  0.00    +0.019 A 
ATOM     38  C   UNL     1      30.197  18.250 -14.060  0.00  0.00    +0.120 A 
ATOM     39  N   UNL     1      30.937  18.380 -15.230  0.00  0.00    -0.263 NA
ATOM     40  C   UNL     1      31.354  19.625 -15.725  0.00  0.00    +0.111 A 
ENDBRANCH   4   3
ENDBRANCH  10   9
BRANCH  12  13
ATOM     13  N   UNL     1      22.219  19.588  -8.205  0.00  0.00    -0.281 N 
ATOM     14  C   UNL     1      20.834  19.612  -8.218  0.00  0.00    +0.248 C 
ATOM     30  O   UNL     1      20.136  18.843  -8.862  0.00  0.00    -0.270 OA
ATOM     31  H   UNL     1      22.677  20.398  -7.787  0.00  0.00    +0.155 HD
BRANCH  14  15
ATOM     15  C   UNL     1      20.122  20.648  -7.409  0.00  0.00    +0.037 A 
ATOM     16  C   UNL     1      18.984  21.390  -7.957  0.00  0.00    +0.013 A 
ATOM     17  C   UNL     1      18.325  22.396  -7.162  0.00  0.00    +0.005 A 
ATOM     18  C   UNL     1      18.804  22.664  -5.808  0.00  0.00    -0.033 A 
ATOM     28  C   UNL     1      19.932  21.910  -5.287  0.00  0.00    +0.005 A 
ATOM     29  C   UNL     1      20.580  20.924  -6.064  0.00  0.00    +0.013 A 
BRANCH  18  19
ATOM     19  C   UNL     1      18.175  23.735  -4.896  0.00  0.00    +0.119 C 
BRANCH  19  20
ATOM     20  N   UNL     1      18.640  25.143  -5.073  0.00  0.00    -0.302 NA
ATOM     21  C   UNL     1      20.147  25.221  -5.338  0.00  0.00    +0.066 C 
ATOM     22  C   UNL     1      20.612  26.700  -5.543  0.00  0.00    -0.064 C 
ATOM     23  N   UNL     1      20.234  27.526  -4.313  0.00  0.00    +0.379 N 
ATOM     24  C   UNL     1      20.722  28.903  -4.478  0.00  0.00    -0.096 C 
ATOM     25  H   UNL     1      20.760  27.084  -3.435  0.00  0.00    -0.082 HD
ATOM     26  C   UNL     1      18.739  27.451  -4.041  0.00  0.00    -0.064 C 
ATOM     27  C   UNL     1      18.281  25.976  -3.867  0.00  0.00    +0.066 C 
ENDBRANCH  19  20
ENDBRANCH  18  19
ENDBRANCH  14  15
ENDBRANCH  12  13
TORSDOF 6
ENDMDL
MODEL 4
REMARK VINA RESULT:      -9.0      2.451     11.633
REMARK  Name = C:\Users\Docking\Desktop\test protocol\1iep_ligandH.pdb
REMARK  8 active torsions:
REMARK  status: ('A' for Active; 'I' for Inactive)
REMARK    1  A    between atoms: _5  and  _11
REMARK    2  A    between atoms: _19  and  _21
REMARK    3  A    between atoms: _22  and  _66
REMARK    4  A    between atoms: _27  and  _30
REMARK    5  A    between atoms: _32  and  _33
REMARK    6  A    between atoms: _38  and  _43
REMARK    7  A    between atoms: _43  and  _46
REMARK    8  A    between atoms: _53  and  _55
REMARK                            x       y       z     vdW  Elec       q    Type
REMARK                         _______ _______ _______ _____ _____    ______ ____
ROOT
ATOM     10  C   UNL     1      23.871  30.596  13.823  0.00  0.00    +0.038 A 
ATOM     11  C   UNL     1      25.124  30.337  13.212  0.00  0.00    +0.047 A 
ATOM     12  C   UNL     1      25.946  31.418  12.691  0.00  0.00    +0.035 A 
ATOM     32  C   UNL     1      25.461  32.753  12.812  0.00  0.00    +0.024 A 
ATOM     33  C   UNL     1      24.189  33.035  13.429  0.00  0.00    +0.007 A 
ATOM     34  C   UNL     1      23.373  31.972  13.943  0.00  0.00    -0.029 A 
ATOM     35  C   UNL     1      22.015  32.332  14.589  0.00  0.00    +0.045 C 
ENDROOT
BRANCH  10   9
ATOM      4  C   UNL     1      23.236  25.908  14.631  0.00  0.00    +0.077 A 
ATOM      5  C   UNL     1      24.487  25.572  14.014  0.00  0.00    +0.048 A 
ATOM      6  C   UNL     1      25.261  26.634  13.495  0.00  0.00    +0.116 A 
ATOM      7  N   UNL     1      24.808  27.932  13.592  0.00  0.00    -0.223 NA
ATOM      8  C   UNL     1      23.596  28.222  14.191  0.00  0.00    +0.220 A 
ATOM      9  N   UNL     1      23.124  29.520  14.307  0.00  0.00    -0.283 N 
ATOM     36  H   UNL     1      22.221  29.691  14.749  0.00  0.00    +0.155 HD
ATOM     37  N   UNL     1      22.838  27.225  14.694  0.00  0.00    -0.214 NA
BRANCH   4   3
ATOM      1  C   UNL     1      21.653  22.531  15.810  0.00  0.00    +0.020 A 
ATOM      2  C   UNL     1      22.582  23.466  15.218  0.00  0.00    +0.013 A 
ATOM      3  C   UNL     1      22.308  24.897  15.229  0.00  0.00    +0.019 A 
ATOM     38  C   UNL     1      21.075  25.354  15.853  0.00  0.00    +0.120 A 
ATOM     39  N   UNL     1      20.198  24.430  16.413  0.00  0.00    -0.263 NA
ATOM     40  C   UNL     1      20.451  23.050  16.407  0.00  0.00    +0.111 A 
ENDBRANCH   4   3
ENDBRANCH  10   9
BRANCH  12  13
ATOM     13  N   UNL     1      27.223  31.215  12.053  0.00  0.00    -0.281 N 
ATOM     14  C   UNL     1      28.393  30.741  12.622  0.00  0.00    +0.248 C 
ATOM     30  O   UNL     1      28.578  30.620  13.824  0.00  0.00    -0.270 OA
ATOM     31  H   UNL     1      27.270  31.450  11.061  0.00  0.00    +0.155 HD
BRANCH  14  15
ATOM     15  C   UNL     1      29.528  30.359  11.728  0.00  0.00    +0.037 A 
ATOM     16  C   UNL     1      29.741  28.967  11.322  0.00  0.00    +0.013 A 
ATOM     17  C   UNL     1      30.853  28.624  10.472  0.00  0.00    +0.005 A 
ATOM     18  C   UNL     1      31.762  29.675  10.021  0.00  0.00    -0.033 A 
ATOM     28  C   UNL     1      31.524  31.048  10.434  0.00  0.00    +0.005 A 
ATOM     29  C   UNL     1      30.435  31.389  11.268  0.00  0.00    +0.013 A 
BRANCH  18  19
ATOM     19  C   UNL     1      32.987  29.397   9.130  0.00  0.00    +0.119 C 
BRANCH  19  20
ATOM     20  N   UNL     1      32.793  29.490   7.652  0.00  0.00    -0.302 NA
ATOM     21  C   UNL     1      32.261  28.183   7.059  0.00  0.00    +0.066 C 
ATOM     22  C   UNL     1      32.042  28.306   5.515  0.00  0.00    -0.064 C 
ATOM     23  N   UNL     1      33.358  28.708   4.847  0.00  0.00    +0.379 N 
ATOM     24  C   UNL     1      33.170  28.768   3.390  0.00  0.00    -0.096 C 
ATOM     25  H   UNL     1      34.104  27.907   5.060  0.00  0.00    -0.082 HD
ATOM     26  C   UNL     1      33.895  30.006   5.433  0.00  0.00    -0.064 C 
ATOM     27  C   UNL     1      34.081  29.883   6.972  0.00  0.00    +0.066 C 
ENDBRANCH  19  20
ENDBRANCH  18  19
ENDBRANCH  14  15
ENDBRANCH  12  13
TORSDOF 6
ENDMDL
MODEL 5
REMARK VINA RESULT:      -8.9     18.050     21.757
REMARK  Name = C:\Users\Docking\Desktop\test protocol\1iep_ligandH.pdb
REMARK  8 active torsions:
REMARK  status: ('A' for Active; 'I' for Inactive)
REMARK    1  A    between atoms: _5  and  _11
REMARK    2  A    between atoms: _19  and  _21
REMARK    3  A    between atoms: _22  and  _66
REMARK    4  A    between atoms: _27  and  _30
REMARK    5  A    between atoms: _32  and  _33
REMARK    6  A    between atoms: _38  and  _43
REMARK    7  A    between atoms: _43  and  _46
REMARK    8  A    between atoms: _53  and  _55
REMARK                            x       y       z     vdW  Elec       q    Type
REMARK                         _______ _______ _______ _____ _____    ______ ____
ROOT
ATOM     10  C   UNL     1      37.533  10.067  13.321  0.00  0.00    +0.038 A 
ATOM     11  C   UNL     1      36.815   9.327  12.348  0.00  0.00    +0.047 A 
ATOM     12  C   UNL     1      35.653   8.532  12.713  0.00  0.00    +0.035 A 
ATOM     32  C   UNL     1      35.248   8.516  14.080  0.00  0.00    +0.024 A 
ATOM     33  C   UNL     1      35.967   9.262  15.083  0.00  0.00    +0.007 A 
ATOM     34  C   UNL     1      37.115  10.045  14.729  0.00  0.00    -0.029 A 
ATOM     35  C   UNL     1      37.852  10.819  15.847  0.00  0.00    +0.045 C 
ENDROOT
BRANCH  10   9
ATOM      4  C   UNL     1      39.519  13.971  11.357  0.00  0.00    +0.077 A 
ATOM      5  C   UNL     1      38.238  14.562  11.094  0.00  0.00    +0.048 A 
ATOM      6  C   UNL     1      37.093  13.826  11.473  0.00  0.00    +0.116 A 
ATOM      7  N   UNL     1      37.230  12.592  12.071  0.00  0.00    -0.223 NA
ATOM      8  C   UNL     1      38.480  12.049  12.309  0.00  0.00    +0.220 A 
ATOM      9  N   UNL     1      38.642  10.813  12.915  0.00  0.00    -0.283 N 
ATOM     36  H   UNL     1      39.580  10.445  13.067  0.00  0.00    +0.155 HD
ATOM     37  N   UNL     1      39.589  12.732  11.955  0.00  0.00    -0.214 NA
BRANCH   4   3
ATOM      1  C   UNL     1      42.788  15.036   9.492  0.00  0.00    +0.020 A 
ATOM      2  C   UNL     1      41.533  14.376   9.772  0.00  0.00    +0.013 A 
ATOM      3  C   UNL     1      40.821  14.627  11.018  0.00  0.00    +0.019 A 
ATOM     38  C   UNL     1      41.409  15.559  11.968  0.00  0.00    +0.120 A 
ATOM     39  N   UNL     1      42.620  16.178  11.673  0.00  0.00    -0.263 NA
ATOM     40  C   UNL     1      43.315  15.944  10.477  0.00  0.00    +0.111 A 
ENDBRANCH   4   3
ENDBRANCH  10   9
BRANCH  12  13
ATOM     13  N   UNL     1      34.889   7.754  11.769  0.00  0.00    -0.281 N 
ATOM     14  C   UNL     1      34.831   7.901  10.393  0.00  0.00    +0.248 C 
ATOM     30  O   UNL     1      35.266   8.867   9.783  0.00  0.00    -0.270 OA
ATOM     31  H   UNL     1      34.321   7.004  12.164  0.00  0.00    +0.155 HD
BRANCH  14  15
ATOM     15  C   UNL     1      34.186   6.827   9.579  0.00  0.00    +0.037 A 
ATOM     16  C   UNL     1      32.744   6.579   9.655  0.00  0.00    +0.013 A 
ATOM     17  C   UNL     1      32.149   5.525   8.872  0.00  0.00    +0.005 A 
ATOM     18  C   UNL     1      32.997   4.713   8.003  0.00  0.00    -0.033 A 
ATOM     28  C   UNL     1      34.423   4.985   7.941  0.00  0.00    +0.005 A 
ATOM     29  C   UNL     1      35.010   6.016   8.709  0.00  0.00    +0.013 A 
BRANCH  18  19
ATOM     19  C   UNL     1      32.451   3.555   7.147  0.00  0.00    +0.119 C 
BRANCH  19  20
ATOM     20  N   UNL     1      31.725   3.914   5.892  0.00  0.00    -0.302 NA
ATOM     21  C   UNL     1      30.863   2.758   5.376  0.00  0.00    +0.066 C 
ATOM     22  C   UNL     1      30.093   3.159   4.076  0.00  0.00    -0.064 C 
ATOM     23  N   UNL     1      31.096   3.605   3.010  0.00  0.00    +0.379 N 
ATOM     24  C   UNL     1      30.380   3.928   1.767  0.00  0.00    -0.096 C 
ATOM     25  H   UNL     1      31.770   2.743   2.798  0.00  0.00    -0.082 HD
ATOM     26  C   UNL     1      31.959   4.752   3.516  0.00  0.00    -0.064 C 
ATOM     27  C   UNL     1      32.696   4.354   4.825  0.00  0.00    +0.066 C 
ENDBRANCH  19  20
ENDBRANCH  18  19
ENDBRANCH  14  15
ENDBRANCH  12  13
TORSDOF 6
ENDMDL
