MODEL 1
REMARK VINA RESULT:     -10.0      0.000      0.000
REMARK  Name = C:\Users\Docking\Desktop\test protocol\1iep_ligandH.pdb
REMARK  8 active torsions:
REMARK  status: ('A' for Active; 'I' for Inactive)
REMARK    1  A    between atoms: _5  and  _11
REMARK    2  A    between atoms: _19  and  _21
REMARK    3  A    between atoms: _22  and  _66
REMARK    4  A    between atoms: _27  and  _30
REMARK    5  A    between atoms: _32  and  _33
REMARK    6  A    between atoms: _38  and  _43
REMARK    7  A    between atoms: _43  and  _46
REMARK    8  A    between atoms: _53  and  _55
REMARK                            x       y       z     vdW  Elec       q    Type
REMARK                         _______ _______ _______ _____ _____    ______ ____
ROOT
ATOM     10  C   UNL     1      28.540  28.381  11.664  0.00  0.00    +0.038 A 
ATOM     11  C   UNL     1      27.436  27.655  12.178  0.00  0.00    +0.047 A 
ATOM     12  C   UNL     1      26.351  28.327  12.875  0.00  0.00    +0.035 A 
ATOM     32  C   UNL     1      26.421  29.743  13.028  0.00  0.00    +0.024 A 
ATOM     33  C   UNL     1      27.536  30.497  12.512  0.00  0.00    +0.007 A 
ATOM     34  C   UNL     1      28.611  29.839  11.826  0.00  0.00    -0.029 A 
ATOM     35  C   UNL     1      29.785  30.697  11.299  0.00  0.00    +0.045 C 
ENDROOT
BRANCH  10   9
ATOM      4  C   UNL     1      30.547  26.585   7.691  0.00  0.00    +0.077 A 
ATOM      5  C   UNL     1      29.470  27.051   6.865  0.00  0.00    +0.048 A 
ATOM      6  C   UNL     1      28.416  27.742   7.503  0.00  0.00    +0.116 A 
ATOM      7  N   UNL     1      28.446  27.947   8.865  0.00  0.00    -0.223 NA
ATOM      8  C   UNL     1      29.499  27.483   9.633  0.00  0.00    +0.220 A 
ATOM      9  N   UNL     1      29.554  27.685  11.003  0.00  0.00    -0.283 N 
ATOM     36  H   UNL     1      30.345  27.320  11.535  0.00  0.00    +0.155 HD
ATOM     37  N   UNL     1      30.517  26.818   9.048  0.00  0.00    -0.214 NA
BRANCH   4   3
ATOM      1  C   UNL     1      33.907  25.713   5.889  0.00  0.00    +0.020 A 
ATOM      2  C   UNL     1      32.781  26.477   6.374  0.00  0.00    +0.013 A 
ATOM      3  C   UNL     1      31.734  25.841   7.164  0.00  0.00    +0.019 A 
ATOM     38  C   UNL     1      31.859  24.419   7.450  0.00  0.00    +0.120 A 
ATOM     39  N   UNL     1      32.955  23.709   6.968  0.00  0.00    -0.263 NA
ATOM     40  C   UNL     1      33.967  24.310   6.205  0.00  0.00    +0.111 A 
ENDBRANCH   4   3
ENDBRANCH  10   9
BRANCH  12  13
ATOM     13  N   UNL     1      25.209  27.641  13.426  0.00  0.00    -0.281 N 
ATOM     14  C   UNL     1      24.980  26.276  13.480  0.00  0.00    +0.248 C 
ATOM     30  O   UNL     1      25.630  25.441  12.867  0.00  0.00    -0.270 OA
ATOM     31  H   UNL     1      24.481  28.233  13.824  0.00  0.00    +0.155 HD
BRANCH  14  15
ATOM     15  C   UNL     1      23.859  25.764  14.326  0.00  0.00    +0.037 A 
ATOM     16  C   UNL     1      23.750  24.343  14.664  0.00  0.00    +0.013 A 
ATOM     17  C   UNL     1      22.649  23.873  15.467  0.00  0.00    +0.005 A 
ATOM     18  C   UNL     1      21.648  24.828  15.939  0.00  0.00    -0.033 A 
ATOM     28  C   UNL     1      21.784  26.233  15.593  0.00  0.00    +0.005 A 
ATOM     29  C   UNL     1      22.861  26.697  14.805  0.00  0.00    +0.013 A 
BRANCH  18  19
ATOM     19  C   UNL     1      20.429  24.413  16.783  0.00  0.00    +0.119 C 
BRANCH  19  20
ATOM     20  N   UNL     1      20.565  24.497  18.268  0.00  0.00    -0.302 NA
ATOM     21  C   UNL     1      20.772  25.937  18.745  0.00  0.00    +0.066 C 
ATOM     22  C   UNL     1      20.889  26.010  20.303  0.00  0.00    -0.064 C 
ATOM     23  N   UNL     1      22.040  25.115  20.767  0.00  0.00    +0.379 N 
ATOM     24  C   UNL     1      22.190  25.225  22.225  0.00  0.00    -0.096 C 
ATOM     25  H   UNL     1      22.976  25.499  20.300  0.00  0.00    -0.082 HD
ATOM     26  C   UNL     1      21.843  23.681  20.294  0.00  0.00    -0.064 C 
ATOM     27  C   UNL     1      21.698  23.624  18.748  0.00  0.00    +0.066 C 
ENDBRANCH  19  20
ENDBRANCH  18  19
ENDBRANCH  14  15
ENDBRANCH  12  13
TORSDOF 6
ENDMDL
MODEL 2
REMARK VINA RESULT:      -9.6      1.911      2.664
REMARK  Name = C:\Users\Docking\Desktop\test protocol\1iep_ligandH.pdb
REMARK  8 active torsions:
REMARK  status: ('A' for Active; 'I' for Inactive)
REMARK    1  A    between atoms: _5  and  _11
REMARK    2  A    between atoms: _19  and  _21
REMARK    3  A    between atoms: _22  and  _66
REMARK    4  A    between atoms: _27  and  _30
REMARK    5  A    between atoms: _32  and  _33
REMARK    6  A    between atoms: _38  and  _43
REMARK    7  A    between atoms: _43  and  _46
REMARK    8  A    between atoms: _53  and  _55
REMARK                            x       y       z     vdW  Elec       q    Type
REMARK                         _______ _______ _______ _____ _____    ______ ____
ROOT
ATOM     10  C   UNL     1      29.713  29.372  11.526  0.00  0.00    +0.038 A 
ATOM     11  C   UNL     1      28.537  28.927  12.183  0.00  0.00    +0.047 A 
ATOM     12  C   UNL     1      27.660  29.861  12.871  0.00  0.00    +0.035 A 
ATOM     32  C   UNL     1      28.010  31.243  12.869  0.00  0.00    +0.024 A 
ATOM     33  C   UNL     1      29.202  31.713  12.208  0.00  0.00    +0.007 A 
ATOM     34  C   UNL     1      30.072  30.795  11.529  0.00  0.00    -0.029 A 
ATOM     35  C   UNL     1      31.340  31.354  10.842  0.00  0.00    +0.045 C 
ENDROOT
BRANCH  10   9
ATOM      4  C   UNL     1      30.979  26.825   7.660  0.00  0.00    +0.077 A 
ATOM      5  C   UNL     1      29.929  27.398   6.866  0.00  0.00    +0.048 A 
ATOM      6  C   UNL     1      29.081  28.338   7.493  0.00  0.00    +0.116 A 
ATOM      7  N   UNL     1      29.277  28.674   8.815  0.00  0.00    -0.223 NA
ATOM      8  C   UNL     1      30.298  28.102   9.552  0.00  0.00    +0.220 A 
ATOM      9  N   UNL     1      30.518  28.431  10.881  0.00  0.00    -0.283 N 
ATOM     36  H   UNL     1      31.277  27.981  11.392  0.00  0.00    +0.155 HD
ATOM     37  N   UNL     1      31.120  27.200   8.977  0.00  0.00    -0.214 NA
BRANCH   4   3
ATOM      1  C   UNL     1      32.864  23.474   6.945  0.00  0.00    +0.020 A 
ATOM      2  C   UNL     1      31.893  24.403   7.475  0.00  0.00    +0.013 A 
ATOM      3  C   UNL     1      31.958  25.820   7.139  0.00  0.00    +0.019 A 
ATOM     38  C   UNL     1      33.026  26.267   6.257  0.00  0.00    +0.120 A 
ATOM     39  N   UNL     1      33.947  25.349   5.763  0.00  0.00    -0.263 NA
ATOM     40  C   UNL     1      33.896  23.984   6.081  0.00  0.00    +0.111 A 
ENDBRANCH   4   3
ENDBRANCH  10   9
BRANCH  12  13
ATOM     13  N   UNL     1      26.457  29.467  13.562  0.00  0.00    -0.281 N 
ATOM     14  C   UNL     1      25.149  29.794  13.248  0.00  0.00    +0.248 C 
ATOM     30  O   UNL     1      24.826  30.657  12.445  0.00  0.00    -0.270 OA
ATOM     31  H   UNL     1      26.587  28.874  14.382  0.00  0.00    +0.155 HD
BRANCH  14  15
ATOM     15  C   UNL     1      24.038  29.069  13.936  0.00  0.00    +0.037 A 
ATOM     16  C   UNL     1      24.015  27.606  14.008  0.00  0.00    +0.013 A 
ATOM     17  C   UNL     1      22.923  26.931  14.663  0.00  0.00    +0.005 A 
ATOM     18  C   UNL     1      21.844  27.719  15.253  0.00  0.00    -0.033 A 
ATOM     28  C   UNL     1      21.894  29.170  15.172  0.00  0.00    +0.005 A 
ATOM     29  C   UNL     1      22.963  29.835  14.530  0.00  0.00    +0.013 A 
BRANCH  18  19
ATOM     19  C   UNL     1      20.629  27.083  15.953  0.00  0.00    +0.119 C 
BRANCH  19  20
ATOM     20  N   UNL     1      20.733  25.640  16.326  0.00  0.00    -0.302 NA
ATOM     21  C   UNL     1      19.406  24.900  16.132  0.00  0.00    +0.066 C 
ATOM     22  C   UNL     1      19.539  23.387  16.505  0.00  0.00    -0.064 C 
ATOM     23  N   UNL     1      20.023  23.262  17.951  0.00  0.00    +0.379 N 
ATOM     24  C   UNL     1      20.093  21.842  18.323  0.00  0.00    -0.096 C 
ATOM     25  H   UNL     1      19.262  23.747  18.605  0.00  0.00    -0.082 HD
ATOM     26  C   UNL     1      21.340  23.998  18.153  0.00  0.00    -0.064 C 
ATOM     27  C   UNL     1      21.205  25.493  17.751  0.00  0.00    +0.066 C 
ENDBRANCH  19  20
ENDBRANCH  18  19
ENDBRANCH  14  15
ENDBRANCH  12  13
TORSDOF 6
ENDMDL
MODEL 3
REMARK VINA RESULT:      -9.4     20.786     23.200
REMARK  Name = C:\Users\Docking\Desktop\test protocol\1iep_ligandH.pdb
REMARK  8 active torsions:
REMARK  status: ('A' for Active; 'I' for Inactive)
REMARK    1  A    between atoms: _5  and  _11
REMARK    2  A    between atoms: _19  and  _21
REMARK    3  A    between atoms: _22  and  _66
REMARK    4  A    between atoms: _27  and  _30
REMARK    5  A    between atoms: _32  and  _33
REMARK    6  A    between atoms: _38  and  _43
REMARK    7  A    between atoms: _43  and  _46
REMARK    8  A    between atoms: _53  and  _55
REMARK                            x       y       z     vdW  Elec       q    Type
REMARK                         _______ _______ _______ _____ _____    ______ ____
ROOT
ATOM     10  C   UNL     1      19.897  19.945  -6.217  0.00  0.00    +0.038 A 
ATOM     11  C   UNL     1      18.595  19.434  -5.987  0.00  0.00    +0.047 A 
ATOM     12  C   UNL     1      18.240  18.076  -6.371  0.00  0.00    +0.035 A 
ATOM     32  C   UNL     1      19.238  17.266  -6.986  0.00  0.00    +0.024 A 
ATOM     33  C   UNL     1      20.567  17.770  -7.229  0.00  0.00    +0.007 A 
ATOM     34  C   UNL     1      20.922  19.109  -6.854  0.00  0.00    -0.029 A 
ATOM     35  C   UNL     1      22.360  19.598  -7.144  0.00  0.00    +0.045 C 
ENDROOT
BRANCH  10   9
ATOM      4  C   UNL     1      18.634  24.521  -5.508  0.00  0.00    +0.077 A 
ATOM      5  C   UNL     1      17.299  24.287  -5.978  0.00  0.00    +0.048 A 
ATOM      6  C   UNL     1      16.979  22.976  -6.399  0.00  0.00    +0.116 A 
ATOM      7  N   UNL     1      17.932  21.982  -6.350  0.00  0.00    -0.223 NA
ATOM      8  C   UNL     1      19.211  22.242  -5.894  0.00  0.00    +0.220 A 
ATOM      9  N   UNL     1      20.183  21.256  -5.828  0.00  0.00    -0.283 N 
ATOM     36  H   UNL     1      21.117  21.489  -5.492  0.00  0.00    +0.155 HD
ATOM     37  N   UNL     1      19.541  23.485  -5.487  0.00  0.00    -0.214 NA
BRANCH   4   3
ATOM      1  C   UNL     1      18.856  27.989  -3.713  0.00  0.00    +0.020 A 
ATOM      2  C   UNL     1      18.338  26.714  -4.151  0.00  0.00    +0.013 A 
ATOM      3  C   UNL     1      19.122  25.851  -5.026  0.00  0.00    +0.019 A 
ATOM     38  C   UNL     1      20.438  26.312  -5.442  0.00  0.00    +0.120 A 
ATOM     39  N   UNL     1      20.910  27.546  -5.005  0.00  0.00    -0.263 NA
ATOM     40  C   UNL     1      20.164  28.385  -4.165  0.00  0.00    +0.111 A 
ENDBRANCH   4   3
ENDBRANCH  10   9
BRANCH  12  13
ATOM     13  N   UNL     1      16.931  17.506  -6.170  0.00  0.00    -0.281 N 
ATOM     14  C   UNL     1      15.831  17.583  -7.007  0.00  0.00    +0.248 C 
ATOM     30  O   UNL     1      15.741  18.339  -7.963  0.00  0.00    -0.270 OA
ATOM     31  H   UNL     1      16.801  16.981  -5.305  0.00  0.00    +0.155 HD
BRANCH  14  15
ATOM     15  C   UNL     1      14.654  16.702  -6.735  0.00  0.00    +0.037 A 
ATOM     16  C   UNL     1      13.293  17.244  -6.697  0.00  0.00    +0.013 A 
ATOM     17  C   UNL     1      12.177  16.376  -6.415  0.00  0.00    +0.005 A 
ATOM     18  C   UNL     1      12.418  14.956  -6.171  0.00  0.00    -0.033 A 
ATOM     28  C   UNL     1      13.777  14.444  -6.221  0.00  0.00    +0.005 A 
ATOM     29  C   UNL     1      14.874  15.292  -6.495  0.00  0.00    +0.013 A 
BRANCH  18  19
ATOM     19  C   UNL     1      11.289  13.960  -5.843  0.00  0.00    +0.119 C 
BRANCH  19  20
ATOM     20  N   UNL     1      11.031  13.671  -4.401  0.00  0.00    -0.302 NA
ATOM     21  C   UNL     1      10.445  12.272  -4.191  0.00  0.00    +0.066 C 
ATOM     22  C   UNL     1      10.202  11.978  -2.675  0.00  0.00    -0.064 C 
ATOM     23  N   UNL     1       9.274  13.046  -2.093  0.00  0.00    +0.379 N 
ATOM     24  C   UNL     1       8.997  12.740  -0.682  0.00  0.00    -0.096 C 
ATOM     25  H   UNL     1       8.308  12.993  -2.647  0.00  0.00    -0.082 HD
ATOM     26  C   UNL     1       9.848  14.441  -2.300  0.00  0.00    -0.064 C 
ATOM     27  C   UNL     1      10.113  14.712  -3.807  0.00  0.00    +0.066 C 
ENDBRANCH  19  20
ENDBRANCH  18  19
ENDBRANCH  14  15
ENDBRANCH  12  13
TORSDOF 6
ENDMDL
MODEL 4
REMARK VINA RESULT:      -8.9      5.695      8.406
REMARK  Name = C:\Users\Docking\Desktop\test protocol\1iep_ligandH.pdb
REMARK  8 active torsions:
REMARK  status: ('A' for Active; 'I' for Inactive)
REMARK    1  A    between atoms: _5  and  _11
REMARK    2  A    between atoms: _19  and  _21
REMARK    3  A    between atoms: _22  and  _66
REMARK    4  A    between atoms: _27  and  _30
REMARK    5  A    between atoms: _32  and  _33
REMARK    6  A    between atoms: _38  and  _43
REMARK    7  A    between atoms: _43  and  _46
REMARK    8  A    between atoms: _53  and  _55
REMARK                            x       y       z     vdW  Elec       q    Type
REMARK                         _______ _______ _______ _____ _____    ______ ____
ROOT
ATOM     10  C   UNL     1      28.645  28.773  12.387  0.00  0.00    +0.038 A 
ATOM     11  C   UNL     1      27.705  29.834  12.400  0.00  0.00    +0.047 A 
ATOM     12  C   UNL     1      27.108  30.296  13.644  0.00  0.00    +0.035 A 
ATOM     32  C   UNL     1      27.495  29.655  14.858  0.00  0.00    +0.024 A 
ATOM     33  C   UNL     1      28.450  28.574  14.862  0.00  0.00    +0.007 A 
ATOM     34  C   UNL     1      29.039  28.113  13.638  0.00  0.00    -0.029 A 
ATOM     35  C   UNL     1      30.052  26.946  13.702  0.00  0.00    +0.045 C 
ENDROOT
BRANCH  10   9
ATOM      4  C   UNL     1      31.787  29.240   8.789  0.00  0.00    +0.077 A 
ATOM      5  C   UNL     1      32.384  30.402   9.383  0.00  0.00    +0.048 A 
ATOM      6  C   UNL     1      31.849  30.851  10.611  0.00  0.00    +0.116 A 
ATOM      7  N   UNL     1      30.795  30.180  11.193  0.00  0.00    -0.223 NA
ATOM      8  C   UNL     1      30.241  29.064  10.593  0.00  0.00    +0.220 A 
ATOM      9  N   UNL     1      29.186  28.370  11.164  0.00  0.00    -0.283 N 
ATOM     36  H   UNL     1      28.801  27.555  10.687  0.00  0.00    +0.155 HD
ATOM     37  N   UNL     1      30.734  28.616   9.419  0.00  0.00    -0.214 NA
BRANCH   4   3
ATOM      1  C   UNL     1      33.046  28.820   5.110  0.00  0.00    +0.020 A 
ATOM      2  C   UNL     1      32.611  29.447   6.336  0.00  0.00    +0.013 A 
ATOM      3  C   UNL     1      32.244  28.643   7.495  0.00  0.00    +0.019 A 
ATOM     38  C   UNL     1      32.331  27.195   7.379  0.00  0.00    +0.120 A 
ATOM     39  N   UNL     1      32.752  26.619   6.184  0.00  0.00    -0.263 NA
ATOM     40  C   UNL     1      33.106  27.383   5.062  0.00  0.00    +0.111 A 
ENDBRANCH   4   3
ENDBRANCH  10   9
BRANCH  12  13
ATOM     13  N   UNL     1      26.142  31.363  13.719  0.00  0.00    -0.281 N 
ATOM     14  C   UNL     1      26.373  32.728  13.654  0.00  0.00    +0.248 C 
ATOM     30  O   UNL     1      27.477  33.246  13.737  0.00  0.00    -0.270 OA
ATOM     31  H   UNL     1      25.169  31.079  13.832  0.00  0.00    +0.155 HD
BRANCH  14  15
ATOM     15  C   UNL     1      25.210  33.650  13.488  0.00  0.00    +0.037 A 
ATOM     16  C   UNL     1      23.840  33.138  13.401  0.00  0.00    +0.013 A 
ATOM     17  C   UNL     1      22.737  34.048  13.223  0.00  0.00    +0.005 A 
ATOM     18  C   UNL     1      23.000  35.483  13.132  0.00  0.00    -0.033 A 
ATOM     28  C   UNL     1      24.368  35.964  13.227  0.00  0.00    +0.005 A 
ATOM     29  C   UNL     1      25.451  35.075  13.400  0.00  0.00    +0.013 A 
BRANCH  18  19
ATOM     19  C   UNL     1      21.886  36.525  12.922  0.00  0.00    +0.119 C 
BRANCH  19  20
ATOM     20  N   UNL     1      20.779  36.164  11.986  0.00  0.00    -0.302 NA
ATOM     21  C   UNL     1      20.613  37.197  10.868  0.00  0.00    +0.066 C 
ATOM     22  C   UNL     1      19.466  36.792   9.885  0.00  0.00    -0.064 C 
ATOM     23  N   UNL     1      18.162  36.627  10.668  0.00  0.00    +0.379 N 
ATOM     24  C   UNL     1      17.070  36.302   9.739  0.00  0.00    -0.096 C 
ATOM     25  H   UNL     1      17.925  37.608  11.140  0.00  0.00    -0.082 HD
ATOM     26  C   UNL     1      18.320  35.604  11.784  0.00  0.00    -0.064 C 
ATOM     27  C   UNL     1      19.481  36.000  12.738  0.00  0.00    +0.066 C 
ENDBRANCH  19  20
ENDBRANCH  18  19
ENDBRANCH  14  15
ENDBRANCH  12  13
TORSDOF 6
ENDMDL
MODEL 5
REMARK VINA RESULT:      -8.9     18.578     22.913
REMARK  Name = C:\Users\Docking\Desktop\test protocol\1iep_ligandH.pdb
REMARK  8 active torsions:
REMARK  status: ('A' for Active; 'I' for Inactive)
REMARK    1  A    between atoms: _5  and  _11
REMARK    2  A    between atoms: _19  and  _21
REMARK    3  A    between atoms: _22  and  _66
REMARK    4  A    between atoms: _27  and  _30
REMARK    5  A    between atoms: _32  and  _33
REMARK    6  A    between atoms: _38  and  _43
REMARK    7  A    between atoms: _43  and  _46
REMARK    8  A    between atoms: _53  and  _55
REMARK                            x       y       z     vdW  Elec       q    Type
REMARK                         _______ _______ _______ _____ _____    ______ ____
ROOT
ATOM     10  C   UNL     1      34.232   6.453  10.442  0.00  0.00    +0.038 A 
ATOM     11  C   UNL     1      34.892   7.708  10.414  0.00  0.00    +0.047 A 
ATOM     12  C   UNL     1      35.789   8.110  11.486  0.00  0.00    +0.035 A 
ATOM     32  C   UNL     1      35.992   7.209  12.571  0.00  0.00    +0.024 A 
ATOM     33  C   UNL     1      35.328   5.930  12.617  0.00  0.00    +0.007 A 
ATOM     34  C   UNL     1      34.441   5.528  11.563  0.00  0.00    -0.029 A 
ATOM     35  C   UNL     1      33.751   4.148  11.667  0.00  0.00    +0.045 C 
ENDROOT
BRANCH  10   9
ATOM      4  C   UNL     1      33.358   4.358   6.214  0.00  0.00    +0.077 A 
ATOM      5  C   UNL     1      34.717   3.917   6.084  0.00  0.00    +0.048 A 
ATOM      6  C   UNL     1      35.611   4.256   7.125  0.00  0.00    +0.116 A 
ATOM      7  N   UNL     1      35.168   4.982   8.209  0.00  0.00    -0.223 NA
ATOM      8  C   UNL     1      33.851   5.393   8.301  0.00  0.00    +0.220 A 
ATOM      9  N   UNL     1      33.381   6.118   9.386  0.00  0.00    -0.283 N 
ATOM     36  H   UNL     1      32.404   6.409   9.414  0.00  0.00    +0.155 HD
ATOM     37  N   UNL     1      32.978   5.083   7.320  0.00  0.00    -0.214 NA
BRANCH   4   3
ATOM      1  C   UNL     1      31.209   4.405   2.946  0.00  0.00    +0.020 A 
ATOM      2  C   UNL     1      32.258   4.713   3.889  0.00  0.00    +0.013 A 
ATOM      3  C   UNL     1      32.294   4.075   5.199  0.00  0.00    +0.019 A 
ATOM     38  C   UNL     1      31.245   3.121   5.525  0.00  0.00    +0.120 A 
ATOM     39  N   UNL     1      30.246   2.844   4.596  0.00  0.00    -0.263 NA
ATOM     40  C   UNL     1      30.201   3.454   3.334  0.00  0.00    +0.111 A 
ENDBRANCH   4   3
ENDBRANCH  10   9
BRANCH  12  13
ATOM     13  N   UNL     1      36.481   9.375  11.516  0.00  0.00    -0.281 N 
ATOM     14  C   UNL     1      36.564  10.276  12.565  0.00  0.00    +0.248 C 
ATOM     30  O   UNL     1      35.874  10.229  13.573  0.00  0.00    -0.270 OA
ATOM     31  H   UNL     1      36.968   9.639  10.660  0.00  0.00    +0.155 HD
BRANCH  14  15
ATOM     15  C   UNL     1      37.545  11.400  12.476  0.00  0.00    +0.037 A 
ATOM     16  C   UNL     1      38.942  11.223  12.882  0.00  0.00    +0.013 A 
ATOM     17  C   UNL     1      39.864  12.328  12.802  0.00  0.00    +0.005 A 
ATOM     18  C   UNL     1      39.391  13.621  12.312  0.00  0.00    -0.033 A 
ATOM     28  C   UNL     1      38.002  13.767  11.911  0.00  0.00    +0.005 A 
ATOM     29  C   UNL     1      37.095  12.686  11.989  0.00  0.00    +0.013 A 
BRANCH  18  19
ATOM     19  C   UNL     1      40.300  14.861  12.213  0.00  0.00    +0.119 C 
BRANCH  19  20
ATOM     20  N   UNL     1      41.601  14.699  11.499  0.00  0.00    -0.302 NA
ATOM     21  C   UNL     1      42.514  15.914  11.687  0.00  0.00    +0.066 C 
ATOM     22  C   UNL     1      43.880  15.718  10.952  0.00  0.00    -0.064 C 
ATOM     23  N   UNL     1      43.624  15.458   9.466  0.00  0.00    +0.379 N 
ATOM     24  C   UNL     1      44.908  15.332   8.762  0.00  0.00    -0.096 C 
ATOM     25  H   UNL     1      43.098  16.350   9.053  0.00  0.00    -0.082 HD
ATOM     26  C   UNL     1      42.715  14.254   9.270  0.00  0.00    -0.064 C 
ATOM     27  C   UNL     1      41.372  14.446  10.029  0.00  0.00    +0.066 C 
ENDBRANCH  19  20
ENDBRANCH  18  19
ENDBRANCH  14  15
ENDBRANCH  12  13
TORSDOF 6
ENDMDL
