MODEL 1
REMARK VINA RESULT:      -7.9      0.000      0.000
REMARK  Name = C:\Users\Docking\Desktop\test protocol\1iep_ligandH.pdb
REMARK  8 active torsions:
REMARK  status: ('A' for Active; 'I' for Inactive)
REMARK    1  A    between atoms: _5  and  _11
REMARK    2  A    between atoms: _19  and  _21
REMARK    3  A    between atoms: _22  and  _66
REMARK    4  A    between atoms: _27  and  _30
REMARK    5  A    between atoms: _32  and  _33
REMARK    6  A    between atoms: _38  and  _43
REMARK    7  A    between atoms: _43  and  _46
REMARK    8  A    between atoms: _53  and  _55
REMARK                            x       y       z     vdW  Elec       q    Type
REMARK                         _______ _______ _______ _____ _____    ______ ____
ROOT
ATOM     10  C   UNL     1     -15.790  -2.193  -1.639  0.00  0.00    +0.038 A 
ATOM     11  C   UNL     1     -14.973  -2.299  -0.484  0.00  0.00    +0.047 A 
ATOM     12  C   UNL     1     -14.210  -1.161   0.004  0.00  0.00    +0.035 A 
ATOM     32  C   UNL     1     -14.304   0.071  -0.706  0.00  0.00    +0.024 A 
ATOM     33  C   UNL     1     -15.129   0.196  -1.882  0.00  0.00    +0.007 A 
ATOM     34  C   UNL     1     -15.882  -0.923  -2.370  0.00  0.00    -0.029 A 
ATOM     35  C   UNL     1     -16.745  -0.734  -3.640  0.00  0.00    +0.045 C 
ENDROOT
BRANCH  10   9
ATOM      4  C   UNL     1     -16.186  -6.230  -4.204  0.00  0.00    +0.077 A 
ATOM      5  C   UNL     1     -14.876  -6.072  -4.766  0.00  0.00    +0.048 A 
ATOM      6  C   UNL     1     -14.135  -4.934  -4.375  0.00  0.00    +0.116 A 
ATOM      7  N   UNL     1     -14.674  -4.029  -3.486  0.00  0.00    -0.223 NA
ATOM      8  C   UNL     1     -15.942  -4.211  -2.965  0.00  0.00    +0.220 A 
ATOM      9  N   UNL     1     -16.501  -3.317  -2.064  0.00  0.00    -0.283 N 
ATOM     36  H   UNL     1     -17.442  -3.483  -1.707  0.00  0.00    +0.155 HD
ATOM     37  N   UNL     1     -16.670  -5.288  -3.324  0.00  0.00    -0.214 NA
BRANCH   4   3
ATOM      1  C   UNL     1     -17.560  -9.845  -4.791  0.00  0.00    +0.020 A 
ATOM      2  C   UNL     1     -16.646  -8.770  -4.480  0.00  0.00    +0.013 A 
ATOM      3  C   UNL     1     -17.090  -7.382  -4.518  0.00  0.00    +0.019 A 
ATOM     38  C   UNL     1     -18.475  -7.114  -4.876  0.00  0.00    +0.120 A 
ATOM     39  N   UNL     1     -19.331  -8.171  -5.172  0.00  0.00    -0.263 NA
ATOM     40  C   UNL     1     -18.915  -9.510  -5.140  0.00  0.00    +0.111 A 
ENDBRANCH   4   3
ENDBRANCH  10   9
BRANCH  12  13
ATOM     13  N   UNL     1     -13.357  -1.211   1.166  0.00  0.00    -0.281 N 
ATOM     14  C   UNL     1     -13.728  -1.136   2.498  0.00  0.00    +0.248 C 
ATOM     30  O   UNL     1     -14.835  -0.798   2.890  0.00  0.00    -0.270 OA
ATOM     31  H   UNL     1     -12.358  -1.314   0.984  0.00  0.00    +0.155 HD
BRANCH  14  15
ATOM     15  C   UNL     1     -12.719  -1.470   3.549  0.00  0.00    +0.037 A 
ATOM     16  C   UNL     1     -13.128  -1.952   4.870  0.00  0.00    +0.013 A 
ATOM     17  C   UNL     1     -12.135  -2.251   5.871  0.00  0.00    +0.005 A 
ATOM     18  C   UNL     1     -10.721  -2.071   5.553  0.00  0.00    -0.033 A 
ATOM     28  C   UNL     1     -10.342  -1.597   4.232  0.00  0.00    +0.005 A 
ATOM     29  C   UNL     1     -11.313  -1.301   3.249  0.00  0.00    +0.013 A 
BRANCH  18  19
ATOM     19  C   UNL     1      -9.594  -2.345   6.566  0.00  0.00    +0.119 C 
BRANCH  19  20
ATOM     20  N   UNL     1      -8.770  -3.574   6.357  0.00  0.00    -0.302 NA
ATOM     21  C   UNL     1      -9.569  -4.853   6.621  0.00  0.00    +0.066 C 
ATOM     22  C   UNL     1      -8.699  -6.128   6.375  0.00  0.00    -0.064 C 
ATOM     23  N   UNL     1      -7.456  -6.073   7.265  0.00  0.00    +0.379 N 
ATOM     24  C   UNL     1      -6.665  -7.298   7.079  0.00  0.00    -0.096 C 
ATOM     25  H   UNL     1      -7.799  -6.050   8.325  0.00  0.00    -0.082 HD
ATOM     26  C   UNL     1      -6.657  -4.803   7.010  0.00  0.00    -0.064 C 
ATOM     27  C   UNL     1      -7.539  -3.542   7.228  0.00  0.00    +0.066 C 
ENDBRANCH  19  20
ENDBRANCH  18  19
ENDBRANCH  14  15
ENDBRANCH  12  13
TORSDOF 6
ENDMDL
MODEL 2
REMARK VINA RESULT:      -7.8      4.537     12.710
REMARK  Name = C:\Users\Docking\Desktop\test protocol\1iep_ligandH.pdb
REMARK  8 active torsions:
REMARK  status: ('A' for Active; 'I' for Inactive)
REMARK    1  A    between atoms: _5  and  _11
REMARK    2  A    between atoms: _19  and  _21
REMARK    3  A    between atoms: _22  and  _66
REMARK    4  A    between atoms: _27  and  _30
REMARK    5  A    between atoms: _32  and  _33
REMARK    6  A    between atoms: _38  and  _43
REMARK    7  A    between atoms: _43  and  _46
REMARK    8  A    between atoms: _53  and  _55
REMARK                            x       y       z     vdW  Elec       q    Type
REMARK                         _______ _______ _______ _____ _____    ______ ____
ROOT
ATOM     10  C   UNL     1     -18.472  -5.050  -2.239  0.00  0.00    +0.038 A 
ATOM     11  C   UNL     1     -17.956  -6.307  -2.646  0.00  0.00    +0.047 A 
ATOM     12  C   UNL     1     -18.503  -7.007  -3.797  0.00  0.00    +0.035 A 
ATOM     32  C   UNL     1     -19.574  -6.397  -4.513  0.00  0.00    +0.024 A 
ATOM     33  C   UNL     1     -20.111  -5.120  -4.113  0.00  0.00    +0.007 A 
ATOM     34  C   UNL     1     -19.577  -4.426  -2.977  0.00  0.00    -0.029 A 
ATOM     35  C   UNL     1     -20.196  -3.062  -2.589  0.00  0.00    +0.045 C 
ENDROOT
BRANCH  10   9
ATOM      4  C   UNL     1     -15.258  -2.121  -0.207  0.00  0.00    +0.077 A 
ATOM      5  C   UNL     1     -14.630  -1.839  -1.466  0.00  0.00    +0.048 A 
ATOM      6  C   UNL     1     -15.160  -2.474  -2.611  0.00  0.00    +0.116 A 
ATOM      7  N   UNL     1     -16.238  -3.325  -2.495  0.00  0.00    -0.223 NA
ATOM      8  C   UNL     1     -16.819  -3.576  -1.265  0.00  0.00    +0.220 A 
ATOM      9  N   UNL     1     -17.909  -4.421  -1.126  0.00  0.00    -0.283 N 
ATOM     36  H   UNL     1     -18.304  -4.586  -0.200  0.00  0.00    +0.155 HD
ATOM     37  N   UNL     1     -16.330  -2.983  -0.156  0.00  0.00    -0.214 NA
BRANCH   4   3
ATOM      1  C   UNL     1     -13.570  -1.613   3.285  0.00  0.00    +0.020 A 
ATOM      2  C   UNL     1     -13.970  -2.235   2.044  0.00  0.00    +0.013 A 
ATOM      3  C   UNL     1     -14.815  -1.524   1.093  0.00  0.00    +0.019 A 
ATOM     38  C   UNL     1     -15.239  -0.173   1.429  0.00  0.00    +0.120 A 
ATOM     39  N   UNL     1     -14.839   0.399   2.633  0.00  0.00    -0.263 NA
ATOM     40  C   UNL     1     -14.028  -0.276   3.557  0.00  0.00    +0.111 A 
ENDBRANCH   4   3
ENDBRANCH  10   9
BRANCH  12  13
ATOM     13  N   UNL     1     -18.026  -8.290  -4.252  0.00  0.00    -0.281 N 
ATOM     14  C   UNL     1     -16.777  -8.600  -4.765  0.00  0.00    +0.248 C 
ATOM     30  O   UNL     1     -15.947  -7.773  -5.111  0.00  0.00    -0.270 OA
ATOM     31  H   UNL     1     -18.689  -9.062  -4.189  0.00  0.00    +0.155 HD
BRANCH  14  15
ATOM     15  C   UNL     1     -16.402 -10.038  -4.932  0.00  0.00    +0.037 A 
ATOM     16  C   UNL     1     -15.450 -10.460  -5.962  0.00  0.00    +0.013 A 
ATOM     17  C   UNL     1     -15.119 -11.855  -6.112  0.00  0.00    +0.005 A 
ATOM     18  C   UNL     1     -15.740 -12.838  -5.227  0.00  0.00    -0.033 A 
ATOM     28  C   UNL     1     -16.677 -12.390  -4.210  0.00  0.00    +0.005 A 
ATOM     29  C   UNL     1     -17.005 -11.024  -4.061  0.00  0.00    +0.013 A 
BRANCH  18  19
ATOM     19  C   UNL     1     -15.461 -14.349  -5.330  0.00  0.00    +0.119 C 
BRANCH  19  20
ATOM     20  N   UNL     1     -16.029 -15.071  -6.507  0.00  0.00    -0.302 NA
ATOM     21  C   UNL     1     -17.535 -15.306  -6.365  0.00  0.00    +0.066 C 
ATOM     22  C   UNL     1     -18.117 -16.042  -7.615  0.00  0.00    -0.064 C 
ATOM     23  N   UNL     1     -17.379 -17.367  -7.813  0.00  0.00    +0.379 N 
ATOM     24  C   UNL     1     -17.962 -18.089  -8.953  0.00  0.00    -0.096 C 
ATOM     25  H   UNL     1     -17.544 -17.986  -6.900  0.00  0.00    -0.082 HD
ATOM     26  C   UNL     1     -15.880 -17.143  -7.953  0.00  0.00    -0.064 C 
ATOM     27  C   UNL     1     -15.317 -16.385  -6.718  0.00  0.00    +0.066 C 
ENDBRANCH  19  20
ENDBRANCH  18  19
ENDBRANCH  14  15
ENDBRANCH  12  13
TORSDOF 6
ENDMDL
MODEL 3
REMARK VINA RESULT:      -7.8     15.218     20.794
REMARK  Name = C:\Users\Docking\Desktop\test protocol\1iep_ligandH.pdb
REMARK  8 active torsions:
REMARK  status: ('A' for Active; 'I' for Inactive)
REMARK    1  A    between atoms: _5  and  _11
REMARK    2  A    between atoms: _19  and  _21
REMARK    3  A    between atoms: _22  and  _66
REMARK    4  A    between atoms: _27  and  _30
REMARK    5  A    between atoms: _32  and  _33
REMARK    6  A    between atoms: _38  and  _43
REMARK    7  A    between atoms: _43  and  _46
REMARK    8  A    between atoms: _53  and  _55
REMARK                            x       y       z     vdW  Elec       q    Type
REMARK                         _______ _______ _______ _____ _____    ______ ____
ROOT
ATOM     10  C   UNL     1       5.809  -4.090   2.816  0.00  0.00    +0.038 A 
ATOM     11  C   UNL     1       4.680  -3.859   1.990  0.00  0.00    +0.047 A 
ATOM     12  C   UNL     1       4.764  -2.989   0.827  0.00  0.00    +0.035 A 
ATOM     32  C   UNL     1       6.014  -2.371   0.534  0.00  0.00    +0.024 A 
ATOM     33  C   UNL     1       7.172  -2.594   1.364  0.00  0.00    +0.007 A 
ATOM     34  C   UNL     1       7.095  -3.450   2.513  0.00  0.00    -0.029 A 
ATOM     35  C   UNL     1       8.366  -3.647   3.371  0.00  0.00    +0.045 C 
ENDROOT
BRANCH  10   9
ATOM      4  C   UNL     1       6.056  -8.408   4.897  0.00  0.00    +0.077 A 
ATOM      5  C   UNL     1       6.467  -9.038   3.676  0.00  0.00    +0.048 A 
ATOM      6  C   UNL     1       6.596  -8.217   2.533  0.00  0.00    +0.116 A 
ATOM      7  N   UNL     1       6.332  -6.868   2.617  0.00  0.00    -0.223 NA
ATOM      8  C   UNL     1       5.936  -6.291   3.810  0.00  0.00    +0.220 A 
ATOM      9  N   UNL     1       5.672  -4.935   3.920  0.00  0.00    -0.283 N 
ATOM     36  H   UNL     1       5.376  -4.549   4.816  0.00  0.00    +0.155 HD
ATOM     37  N   UNL     1       5.804  -7.054   4.916  0.00  0.00    -0.214 NA
BRANCH   4   3
ATOM      1  C   UNL     1       6.761 -10.445   8.161  0.00  0.00    +0.020 A 
ATOM      2  C   UNL     1       6.987  -9.749   6.916  0.00  0.00    +0.013 A 
ATOM      3  C   UNL     1       5.879  -9.141   6.191  0.00  0.00    +0.019 A 
ATOM     38  C   UNL     1       4.544  -9.256   6.758  0.00  0.00    +0.120 A 
ATOM     39  N   UNL     1       4.356  -9.934   7.959  0.00  0.00    -0.263 NA
ATOM     40  C   UNL     1       5.415 -10.524   8.664  0.00  0.00    +0.111 A 
ENDBRANCH   4   3
ENDBRANCH  10   9
BRANCH  12  13
ATOM     13  N   UNL     1       3.649  -2.711  -0.044  0.00  0.00    -0.281 N 
ATOM     14  C   UNL     1       2.922  -1.536  -0.149  0.00  0.00    +0.248 C 
ATOM     30  O   UNL     1       2.986  -0.611   0.647  0.00  0.00    -0.270 OA
ATOM     31  H   UNL     1       3.360  -3.472  -0.658  0.00  0.00    +0.155 HD
BRANCH  14  15
ATOM     15  C   UNL     1       1.978  -1.370  -1.296  0.00  0.00    +0.037 A 
ATOM     16  C   UNL     1       1.049  -0.239  -1.358  0.00  0.00    +0.013 A 
ATOM     17  C   UNL     1       0.137  -0.112  -2.467  0.00  0.00    +0.005 A 
ATOM     18  C   UNL     1       0.151  -1.121  -3.524  0.00  0.00    -0.033 A 
ATOM     28  C   UNL     1       1.086  -2.230  -3.440  0.00  0.00    +0.005 A 
ATOM     29  C   UNL     1       1.981  -2.358  -2.354  0.00  0.00    +0.013 A 
BRANCH  18  19
ATOM     19  C   UNL     1      -0.801  -1.077  -4.734  0.00  0.00    +0.119 C 
BRANCH  19  20
ATOM     20  N   UNL     1      -0.199  -1.277  -6.086  0.00  0.00    -0.302 NA
ATOM     21  C   UNL     1       0.342   0.030  -6.673  0.00  0.00    +0.066 C 
ATOM     22  C   UNL     1       0.989  -0.202  -8.077  0.00  0.00    -0.064 C 
ATOM     23  N   UNL     1      -0.045  -0.830  -9.014  0.00  0.00    +0.379 N 
ATOM     24  C   UNL     1       0.543  -0.995 -10.352  0.00  0.00    -0.096 C 
ATOM     25  H   UNL     1      -0.896  -0.116  -9.105  0.00  0.00    -0.082 HD
ATOM     26  C   UNL     1      -0.590  -2.128  -8.437  0.00  0.00    -0.064 C 
ATOM     27  C   UNL     1      -1.204  -1.892  -7.029  0.00  0.00    +0.066 C 
ENDBRANCH  19  20
ENDBRANCH  18  19
ENDBRANCH  14  15
ENDBRANCH  12  13
TORSDOF 6
ENDMDL
MODEL 4
REMARK VINA RESULT:      -7.8      3.462      4.754
REMARK  Name = C:\Users\Docking\Desktop\test protocol\1iep_ligandH.pdb
REMARK  8 active torsions:
REMARK  status: ('A' for Active; 'I' for Inactive)
REMARK    1  A    between atoms: _5  and  _11
REMARK    2  A    between atoms: _19  and  _21
REMARK    3  A    between atoms: _22  and  _66
REMARK    4  A    between atoms: _27  and  _30
REMARK    5  A    between atoms: _32  and  _33
REMARK    6  A    between atoms: _38  and  _43
REMARK    7  A    between atoms: _43  and  _46
REMARK    8  A    between atoms: _53  and  _55
REMARK                            x       y       z     vdW  Elec       q    Type
REMARK                         _______ _______ _______ _____ _____    ______ ____
ROOT
ATOM     10  C   UNL     1     -18.129  -4.817  -2.255  0.00  0.00    +0.038 A 
ATOM     11  C   UNL     1     -17.075  -4.303  -1.459  0.00  0.00    +0.047 A 
ATOM     12  C   UNL     1     -16.997  -2.887  -1.135  0.00  0.00    +0.035 A 
ATOM     32  C   UNL     1     -18.013  -2.022  -1.638  0.00  0.00    +0.024 A 
ATOM     33  C   UNL     1     -19.091  -2.528  -2.451  0.00  0.00    +0.007 A 
ATOM     34  C   UNL     1     -19.172  -3.923  -2.775  0.00  0.00    -0.029 A 
ATOM     35  C   UNL     1     -20.347  -4.409  -3.655  0.00  0.00    +0.045 C 
ENDROOT
BRANCH  10   9
ATOM      4  C   UNL     1     -16.473  -8.703  -4.534  0.00  0.00    +0.077 A 
ATOM      5  C   UNL     1     -15.492  -7.938  -5.249  0.00  0.00    +0.048 A 
ATOM      6  C   UNL     1     -15.451  -6.547  -5.007  0.00  0.00    +0.116 A 
ATOM      7  N   UNL     1     -16.331  -5.974  -4.114  0.00  0.00    -0.223 NA
ATOM      8  C   UNL     1     -17.266  -6.740  -3.443  0.00  0.00    +0.220 A 
ATOM      9  N   UNL     1     -18.155  -6.185  -2.535  0.00  0.00    -0.283 N 
ATOM     36  H   UNL     1     -18.835  -6.783  -2.066  0.00  0.00    +0.155 HD
ATOM     37  N   UNL     1     -17.326  -8.070  -3.658  0.00  0.00    -0.214 NA
BRANCH   4   3
ATOM      1  C   UNL     1     -15.734 -12.508  -5.061  0.00  0.00    +0.020 A 
ATOM      2  C   UNL     1     -15.521 -11.085  -4.929  0.00  0.00    +0.013 A 
ATOM      3  C   UNL     1     -16.639 -10.184  -4.680  0.00  0.00    +0.019 A 
ATOM     38  C   UNL     1     -17.971 -10.759  -4.569  0.00  0.00    +0.120 A 
ATOM     39  N   UNL     1     -18.146 -12.133  -4.702  0.00  0.00    -0.263 NA
ATOM     40  C   UNL     1     -17.078 -13.010  -4.943  0.00  0.00    +0.111 A 
ENDBRANCH   4   3
ENDBRANCH  10   9
BRANCH  12  13
ATOM     13  N   UNL     1     -15.945  -2.306  -0.338  0.00  0.00    -0.281 N 
ATOM     14  C   UNL     1     -15.734  -2.446   1.024  0.00  0.00    +0.248 C 
ATOM     30  O   UNL     1     -16.545  -2.921   1.805  0.00  0.00    -0.270 OA
ATOM     31  H   UNL     1     -15.276  -1.722  -0.838  0.00  0.00    +0.155 HD
BRANCH  14  15
ATOM     15  C   UNL     1     -14.439  -1.976   1.606  0.00  0.00    +0.037 A 
ATOM     16  C   UNL     1     -14.089  -2.251   3.001  0.00  0.00    +0.013 A 
ATOM     17  C   UNL     1     -12.842  -1.772   3.542  0.00  0.00    +0.005 A 
ATOM     18  C   UNL     1     -11.934  -1.013   2.684  0.00  0.00    -0.033 A 
ATOM     28  C   UNL     1     -12.304  -0.759   1.302  0.00  0.00    +0.005 A 
ATOM     29  C   UNL     1     -13.527  -1.226   0.769  0.00  0.00    +0.013 A 
BRANCH  18  19
ATOM     19  C   UNL     1     -10.592  -0.445   3.183  0.00  0.00    +0.119 C 
BRANCH  19  20
ATOM     20  N   UNL     1      -9.592  -0.047   2.148  0.00  0.00    -0.302 NA
ATOM     21  C   UNL     1      -8.185  -0.549   2.486  0.00  0.00    +0.066 C 
ATOM     22  C   UNL     1      -7.155  -0.143   1.382  0.00  0.00    -0.064 C 
ATOM     23  N   UNL     1      -7.163   1.378   1.215  0.00  0.00    +0.379 N 
ATOM     24  C   UNL     1      -6.154   1.767   0.219  0.00  0.00    -0.096 C 
ATOM     25  H   UNL     1      -6.864   1.826   2.191  0.00  0.00    -0.082 HD
ATOM     26  C   UNL     1      -8.558   1.885   0.881  0.00  0.00    -0.064 C 
ATOM     27  C   UNL     1      -9.579   1.451   1.970  0.00  0.00    +0.066 C 
ENDBRANCH  19  20
ENDBRANCH  18  19
ENDBRANCH  14  15
ENDBRANCH  12  13
TORSDOF 6
ENDMDL
MODEL 5
REMARK VINA RESULT:      -7.6      6.245     11.479
REMARK  Name = C:\Users\Docking\Desktop\test protocol\1iep_ligandH.pdb
REMARK  8 active torsions:
REMARK  status: ('A' for Active; 'I' for Inactive)
REMARK    1  A    between atoms: _5  and  _11
REMARK    2  A    between atoms: _19  and  _21
REMARK    3  A    between atoms: _22  and  _66
REMARK    4  A    between atoms: _27  and  _30
REMARK    5  A    between atoms: _32  and  _33
REMARK    6  A    between atoms: _38  and  _43
REMARK    7  A    between atoms: _43  and  _46
REMARK    8  A    between atoms: _53  and  _55
REMARK                            x       y       z     vdW  Elec       q    Type
REMARK                         _______ _______ _______ _____ _____    ______ ____
ROOT
ATOM     10  C   UNL     1     -18.189 -13.155  -4.533  0.00  0.00    +0.038 A 
ATOM     11  C   UNL     1     -17.509 -11.922  -4.708  0.00  0.00    +0.047 A 
ATOM     12  C   UNL     1     -17.476 -10.924  -3.651  0.00  0.00    +0.035 A 
ATOM     32  C   UNL     1     -18.143 -11.215  -2.426  0.00  0.00    +0.024 A 
ATOM     33  C   UNL     1     -18.840 -12.463  -2.230  0.00  0.00    +0.007 A 
ATOM     34  C   UNL     1     -18.878 -13.450  -3.271  0.00  0.00    -0.029 A 
ATOM     35  C   UNL     1     -19.645 -14.767  -3.009  0.00  0.00    +0.045 C 
ENDROOT
BRANCH  10   9
ATOM      4  C   UNL     1     -16.001 -16.386  -7.328  0.00  0.00    +0.077 A 
ATOM      5  C   UNL     1     -14.745 -16.201  -6.659  0.00  0.00    +0.048 A 
ATOM      6  C   UNL     1     -14.703 -15.260  -5.606  0.00  0.00    +0.116 A 
ATOM      7  N   UNL     1     -15.838 -14.562  -5.256  0.00  0.00    -0.223 NA
ATOM      8  C   UNL     1     -17.033 -14.762  -5.922  0.00  0.00    +0.220 A 
ATOM      9  N   UNL     1     -18.189 -14.077  -5.582  0.00  0.00    -0.283 N 
ATOM     36  H   UNL     1     -19.049 -14.248  -6.103  0.00  0.00    +0.155 HD
ATOM     37  N   UNL     1     -17.099 -15.654  -6.933  0.00  0.00    -0.214 NA
BRANCH   4   3
ATOM      1  C   UNL     1     -15.906 -19.593  -9.565  0.00  0.00    +0.020 A 
ATOM      2  C   UNL     1     -15.680 -18.705  -8.448  0.00  0.00    +0.013 A 
ATOM      3  C   UNL     1     -16.206 -17.346  -8.458  0.00  0.00    +0.019 A 
ATOM     38  C   UNL     1     -16.965 -16.914  -9.622  0.00  0.00    +0.120 A 
ATOM     39  N   UNL     1     -17.167 -17.791 -10.683  0.00  0.00    -0.263 NA
ATOM     40  C   UNL     1     -16.663 -19.100 -10.685  0.00  0.00    +0.111 A 
ENDBRANCH   4   3
ENDBRANCH  10   9
BRANCH  12  13
ATOM     13  N   UNL     1     -16.809  -9.651  -3.775  0.00  0.00    -0.281 N 
ATOM     14  C   UNL     1     -17.257  -8.515  -4.428  0.00  0.00    +0.248 C 
ATOM     30  O   UNL     1     -18.211  -8.488  -5.192  0.00  0.00    -0.270 OA
ATOM     31  H   UNL     1     -15.896  -9.580  -3.326  0.00  0.00    +0.155 HD
BRANCH  14  15
ATOM     15  C   UNL     1     -16.532  -7.226  -4.214  0.00  0.00    +0.037 A 
ATOM     16  C   UNL     1     -15.254  -6.953  -4.876  0.00  0.00    +0.013 A 
ATOM     17  C   UNL     1     -14.567  -5.708  -4.639  0.00  0.00    +0.005 A 
ATOM     18  C   UNL     1     -15.159  -4.725  -3.734  0.00  0.00    -0.033 A 
ATOM     28  C   UNL     1     -16.430  -5.019  -3.094  0.00  0.00    +0.005 A 
ATOM     29  C   UNL     1     -17.106  -6.239  -3.324  0.00  0.00    +0.013 A 
BRANCH  18  19
ATOM     19  C   UNL     1     -14.486  -3.379  -3.406  0.00  0.00    +0.119 C 
BRANCH  19  20
ATOM     20  N   UNL     1     -15.218  -2.454  -2.491  0.00  0.00    -0.302 NA
ATOM     21  C   UNL     1     -15.907  -1.318  -3.253  0.00  0.00    +0.066 C 
ATOM     22  C   UNL     1     -16.687  -0.373  -2.283  0.00  0.00    -0.064 C 
ATOM     23  N   UNL     1     -15.723   0.186  -1.235  0.00  0.00    +0.379 N 
ATOM     24  C   UNL     1     -16.441   1.120  -0.356  0.00  0.00    -0.096 C 
ATOM     25  H   UNL     1     -14.936   0.763  -1.773  0.00  0.00    -0.082 HD
ATOM     26  C   UNL     1     -15.032  -0.937  -0.474  0.00  0.00    -0.064 C 
ATOM     27  C   UNL     1     -14.284  -1.888  -1.450  0.00  0.00    +0.066 C 
ENDBRANCH  19  20
ENDBRANCH  18  19
ENDBRANCH  14  15
ENDBRANCH  12  13
TORSDOF 6
ENDMDL
