MODEL 1
REMARK VINA RESULT:      -8.8      0.000      0.000
REMARK  Name = C:\Users\Docking\Desktop\test protocol\1iep_ligandH.pdb
REMARK  8 active torsions:
REMARK  status: ('A' for Active; 'I' for Inactive)
REMARK    1  A    between atoms: _5  and  _11
REMARK    2  A    between atoms: _19  and  _21
REMARK    3  A    between atoms: _22  and  _66
REMARK    4  A    between atoms: _27  and  _30
REMARK    5  A    between atoms: _32  and  _33
REMARK    6  A    between atoms: _38  and  _43
REMARK    7  A    between atoms: _43  and  _46
REMARK    8  A    between atoms: _53  and  _55
REMARK                            x       y       z     vdW  Elec       q    Type
REMARK                         _______ _______ _______ _____ _____    ______ ____
ROOT
ATOM     10  C   UNL     1     -13.977  -1.136  -0.790  0.00  0.00    +0.038 A 
ATOM     11  C   UNL     1     -14.425  -2.361  -1.347  0.00  0.00    +0.047 A 
ATOM     12  C   UNL     1     -15.435  -2.387  -2.393  0.00  0.00    +0.035 A 
ATOM     32  C   UNL     1     -15.966  -1.145  -2.851  0.00  0.00    +0.024 A 
ATOM     33  C   UNL     1     -15.523   0.109  -2.295  0.00  0.00    +0.007 A 
ATOM     34  C   UNL     1     -14.529   0.140  -1.261  0.00  0.00    -0.029 A 
ATOM     35  C   UNL     1     -14.096   1.514  -0.697  0.00  0.00    +0.045 C 
ENDROOT
BRANCH  10   9
ATOM      4  C   UNL     1     -12.608  -1.843   3.756  0.00  0.00    +0.077 A 
ATOM      5  C   UNL     1     -13.947  -2.144   4.174  0.00  0.00    +0.048 A 
ATOM      6  C   UNL     1     -14.960  -2.099   3.191  0.00  0.00    +0.116 A 
ATOM      7  N   UNL     1     -14.646  -1.776   1.888  0.00  0.00    -0.223 NA
ATOM      8  C   UNL     1     -13.345  -1.489   1.518  0.00  0.00    +0.220 A 
ATOM      9  N   UNL     1     -13.005  -1.170   0.213  0.00  0.00    -0.283 N 
ATOM     36  H   UNL     1     -12.035  -0.957  -0.018  0.00  0.00    +0.155 HD
ATOM     37  N   UNL     1     -12.360  -1.524   2.440  0.00  0.00    -0.214 NA
BRANCH   4   3
ATOM      1  C   UNL     1     -10.330  -2.327   6.899  0.00  0.00    +0.020 A 
ATOM      2  C   UNL     1     -11.499  -2.340   6.049  0.00  0.00    +0.013 A 
ATOM      3  C   UNL     1     -11.428  -1.851   4.678  0.00  0.00    +0.019 A 
ATOM     38  C   UNL     1     -10.150  -1.353   4.192  0.00  0.00    +0.120 A 
ATOM     39  N   UNL     1      -9.042  -1.352   5.034  0.00  0.00    -0.263 NA
ATOM     40  C   UNL     1      -9.098  -1.817   6.356  0.00  0.00    +0.111 A 
ENDBRANCH   4   3
ENDBRANCH  10   9
BRANCH  12  13
ATOM     13  N   UNL     1     -15.935  -3.600  -2.991  0.00  0.00    -0.281 N 
ATOM     14  C   UNL     1     -15.223  -4.560  -3.692  0.00  0.00    +0.248 C 
ATOM     30  O   UNL     1     -14.079  -4.413  -4.097  0.00  0.00    -0.270 OA
ATOM     31  H   UNL     1     -16.934  -3.772  -2.885  0.00  0.00    +0.155 HD
BRANCH  14  15
ATOM     15  C   UNL     1     -15.881  -5.866  -4.000  0.00  0.00    +0.037 A 
ATOM     16  C   UNL     1     -17.198  -6.201  -3.452  0.00  0.00    +0.013 A 
ATOM     17  C   UNL     1     -17.803  -7.474  -3.751  0.00  0.00    +0.005 A 
ATOM     18  C   UNL     1     -17.092  -8.422  -4.605  0.00  0.00    -0.033 A 
ATOM     28  C   UNL     1     -15.789  -8.062  -5.139  0.00  0.00    +0.005 A 
ATOM     29  C   UNL     1     -15.192  -6.815  -4.848  0.00  0.00    +0.013 A 
BRANCH  18  19
ATOM     19  C   UNL     1     -17.652  -9.813  -4.959  0.00  0.00    +0.119 C 
BRANCH  19  20
ATOM     20  N   UNL     1     -16.705 -10.966  -4.906  0.00  0.00    -0.302 NA
ATOM     21  C   UNL     1     -15.696 -10.934  -6.058  0.00  0.00    +0.066 C 
ATOM     22  C   UNL     1     -14.698 -12.135  -5.974  0.00  0.00    -0.064 C 
ATOM     23  N   UNL     1     -15.484 -13.448  -5.978  0.00  0.00    +0.379 N 
ATOM     24  C   UNL     1     -14.546 -14.580  -5.958  0.00  0.00    -0.096 C 
ATOM     25  H   UNL     1     -16.054 -13.497  -6.935  0.00  0.00    -0.082 HD
ATOM     26  C   UNL     1     -16.491 -13.486  -4.838  0.00  0.00    -0.064 C 
ATOM     27  C   UNL     1     -17.459 -12.273  -4.913  0.00  0.00    +0.066 C 
ENDBRANCH  19  20
ENDBRANCH  18  19
ENDBRANCH  14  15
ENDBRANCH  12  13
TORSDOF 6
ENDMDL
MODEL 2
REMARK VINA RESULT:      -8.4      2.503     11.497
REMARK  Name = C:\Users\Docking\Desktop\test protocol\1iep_ligandH.pdb
REMARK  8 active torsions:
REMARK  status: ('A' for Active; 'I' for Inactive)
REMARK    1  A    between atoms: _5  and  _11
REMARK    2  A    between atoms: _19  and  _21
REMARK    3  A    between atoms: _22  and  _66
REMARK    4  A    between atoms: _27  and  _30
REMARK    5  A    between atoms: _32  and  _33
REMARK    6  A    between atoms: _38  and  _43
REMARK    7  A    between atoms: _43  and  _46
REMARK    8  A    between atoms: _53  and  _55
REMARK                            x       y       z     vdW  Elec       q    Type
REMARK                         _______ _______ _______ _____ _____    ______ ____
ROOT
ATOM     10  C   UNL     1     -15.793  -2.215  -1.626  0.00  0.00    +0.038 A 
ATOM     11  C   UNL     1     -15.004  -2.329  -0.453  0.00  0.00    +0.047 A 
ATOM     12  C   UNL     1     -14.238  -1.200   0.052  0.00  0.00    +0.035 A 
ATOM     32  C   UNL     1     -14.300   0.031  -0.663  0.00  0.00    +0.024 A 
ATOM     33  C   UNL     1     -15.096   0.165  -1.858  0.00  0.00    +0.007 A 
ATOM     34  C   UNL     1     -15.852  -0.946  -2.361  0.00  0.00    -0.029 A 
ATOM     35  C   UNL     1     -16.683  -0.748  -3.650  0.00  0.00    +0.045 C 
ENDROOT
BRANCH  10   9
ATOM      4  C   UNL     1     -16.196  -6.233  -4.220  0.00  0.00    +0.077 A 
ATOM      5  C   UNL     1     -14.878  -6.082  -4.768  0.00  0.00    +0.048 A 
ATOM      6  C   UNL     1     -14.133  -4.952  -4.362  0.00  0.00    +0.116 A 
ATOM      7  N   UNL     1     -14.674  -4.048  -3.474  0.00  0.00    -0.223 NA
ATOM      8  C   UNL     1     -15.948  -4.224  -2.966  0.00  0.00    +0.220 A 
ATOM      9  N   UNL     1     -16.509  -3.332  -2.065  0.00  0.00    -0.283 N 
ATOM     36  H   UNL     1     -17.455  -3.492  -1.719  0.00  0.00    +0.155 HD
ATOM     37  N   UNL     1     -16.681  -5.293  -3.339  0.00  0.00    -0.214 NA
BRANCH   4   3
ATOM      1  C   UNL     1     -17.600  -9.835  -4.814  0.00  0.00    +0.020 A 
ATOM      2  C   UNL     1     -16.682  -8.769  -4.485  0.00  0.00    +0.013 A 
ATOM      3  C   UNL     1     -17.105  -7.376  -4.550  0.00  0.00    +0.019 A 
ATOM     38  C   UNL     1     -18.474  -7.093  -4.954  0.00  0.00    +0.120 A 
ATOM     39  N   UNL     1     -19.335  -8.141  -5.265  0.00  0.00    -0.263 NA
ATOM     40  C   UNL     1     -18.939  -9.485  -5.208  0.00  0.00    +0.111 A 
ENDBRANCH   4   3
ENDBRANCH  10   9
BRANCH  12  13
ATOM     13  N   UNL     1     -13.413  -1.259   1.233  0.00  0.00    -0.281 N 
ATOM     14  C   UNL     1     -13.816  -1.202   2.557  0.00  0.00    +0.248 C 
ATOM     30  O   UNL     1     -14.935  -0.875   2.925  0.00  0.00    -0.270 OA
ATOM     31  H   UNL     1     -12.410  -1.354   1.073  0.00  0.00    +0.155 HD
BRANCH  14  15
ATOM     15  C   UNL     1     -12.830  -1.543   3.627  0.00  0.00    +0.037 A 
ATOM     16  C   UNL     1     -13.270  -1.971   4.957  0.00  0.00    +0.013 A 
ATOM     17  C   UNL     1     -12.298  -2.278   5.977  0.00  0.00    +0.005 A 
ATOM     18  C   UNL     1     -10.875  -2.158   5.669  0.00  0.00    -0.033 A 
ATOM     28  C   UNL     1     -10.466  -1.735   4.339  0.00  0.00    +0.005 A 
ATOM     29  C   UNL     1     -11.416  -1.433   3.338  0.00  0.00    +0.013 A 
BRANCH  18  19
ATOM     19  C   UNL     1      -9.769  -2.444   6.701  0.00  0.00    +0.119 C 
BRANCH  19  20
ATOM     20  N   UNL     1      -8.866  -3.602   6.432  0.00  0.00    -0.302 NA
ATOM     21  C   UNL     1      -9.549  -4.942   6.718  0.00  0.00    +0.066 C 
ATOM     22  C   UNL     1      -8.598  -6.144   6.410  0.00  0.00    -0.064 C 
ATOM     23  N   UNL     1      -7.318  -6.002   7.235  0.00  0.00    +0.379 N 
ATOM     24  C   UNL     1      -6.446  -7.160   6.992  0.00  0.00    -0.096 C 
ATOM     25  H   UNL     1      -7.607  -6.017   8.312  0.00  0.00    -0.082 HD
ATOM     26  C   UNL     1      -6.633  -4.671   6.959  0.00  0.00    -0.064 C 
ATOM     27  C   UNL     1      -7.597  -3.485   7.241  0.00  0.00    +0.066 C 
ENDBRANCH  19  20
ENDBRANCH  18  19
ENDBRANCH  14  15
ENDBRANCH  12  13
TORSDOF 6
ENDMDL
MODEL 3
REMARK VINA RESULT:      -8.3      2.895     11.745
REMARK  Name = C:\Users\Docking\Desktop\test protocol\1iep_ligandH.pdb
REMARK  8 active torsions:
REMARK  status: ('A' for Active; 'I' for Inactive)
REMARK    1  A    between atoms: _5  and  _11
REMARK    2  A    between atoms: _19  and  _21
REMARK    3  A    between atoms: _22  and  _66
REMARK    4  A    between atoms: _27  and  _30
REMARK    5  A    between atoms: _32  and  _33
REMARK    6  A    between atoms: _38  and  _43
REMARK    7  A    between atoms: _43  and  _46
REMARK    8  A    between atoms: _53  and  _55
REMARK                            x       y       z     vdW  Elec       q    Type
REMARK                         _______ _______ _______ _____ _____    ______ ____
ROOT
ATOM     10  C   UNL     1     -18.114  -4.715  -2.261  0.00  0.00    +0.038 A 
ATOM     11  C   UNL     1     -17.068  -4.140  -1.496  0.00  0.00    +0.047 A 
ATOM     12  C   UNL     1     -17.076  -2.726  -1.154  0.00  0.00    +0.035 A 
ATOM     32  C   UNL     1     -18.167  -1.927  -1.607  0.00  0.00    +0.024 A 
ATOM     33  C   UNL     1     -19.238  -2.496  -2.387  0.00  0.00    +0.007 A 
ATOM     34  C   UNL     1     -19.234  -3.890  -2.729  0.00  0.00    -0.029 A 
ATOM     35  C   UNL     1     -20.405  -4.444  -3.573  0.00  0.00    +0.045 C 
ENDROOT
BRANCH  10   9
ATOM      4  C   UNL     1     -16.152  -8.476  -4.508  0.00  0.00    +0.077 A 
ATOM      5  C   UNL     1     -15.178  -7.652  -5.162  0.00  0.00    +0.048 A 
ATOM      6  C   UNL     1     -15.220  -6.264  -4.900  0.00  0.00    +0.116 A 
ATOM      7  N   UNL     1     -16.170  -5.750  -4.044  0.00  0.00    -0.223 NA
ATOM      8  C   UNL     1     -17.097  -6.573  -3.430  0.00  0.00    +0.220 A 
ATOM      9  N   UNL     1     -18.056  -6.078  -2.560  0.00  0.00    -0.283 N 
ATOM     36  H   UNL     1     -18.726  -6.717  -2.133  0.00  0.00    +0.155 HD
ATOM     37  N   UNL     1     -17.078  -7.901  -3.666  0.00  0.00    -0.214 NA
BRANCH   4   3
ATOM      1  C   UNL     1     -15.634 -12.111  -5.856  0.00  0.00    +0.020 A 
ATOM      2  C   UNL     1     -15.521 -10.676  -5.732  0.00  0.00    +0.013 A 
ATOM      3  C   UNL     1     -16.234  -9.961  -4.681  0.00  0.00    +0.019 A 
ATOM     38  C   UNL     1     -17.059 -10.733  -3.765  0.00  0.00    +0.120 A 
ATOM     39  N   UNL     1     -17.150 -12.114  -3.909  0.00  0.00    -0.263 NA
ATOM     40  C   UNL     1     -16.470 -12.813  -4.917  0.00  0.00    +0.111 A 
ENDBRANCH   4   3
ENDBRANCH  10   9
BRANCH  12  13
ATOM     13  N   UNL     1     -16.038  -2.084  -0.387  0.00  0.00    -0.281 N 
ATOM     14  C   UNL     1     -15.704  -2.297   0.940  0.00  0.00    +0.248 C 
ATOM     30  O   UNL     1     -16.391  -2.923   1.734  0.00  0.00    -0.270 OA
ATOM     31  H   UNL     1     -15.481  -1.387  -0.883  0.00  0.00    +0.155 HD
BRANCH  14  15
ATOM     15  C   UNL     1     -14.430  -1.720   1.467  0.00  0.00    +0.037 A 
ATOM     16  C   UNL     1     -13.857  -2.174   2.736  0.00  0.00    +0.013 A 
ATOM     17  C   UNL     1     -12.636  -1.588   3.229  0.00  0.00    +0.005 A 
ATOM     18  C   UNL     1     -11.978  -0.542   2.451  0.00  0.00    -0.033 A 
ATOM     28  C   UNL     1     -12.565  -0.114   1.192  0.00  0.00    +0.005 A 
ATOM     29  C   UNL     1     -13.763  -0.685   0.706  0.00  0.00    +0.013 A 
BRANCH  18  19
ATOM     19  C   UNL     1     -10.683   0.154   2.910  0.00  0.00    +0.119 C 
BRANCH  19  20
ATOM     20  N   UNL     1      -9.510   0.095   1.988  0.00  0.00    -0.302 NA
ATOM     21  C   UNL     1      -8.251  -0.419   2.691  0.00  0.00    +0.066 C 
ATOM     22  C   UNL     1      -7.040  -0.495   1.706  0.00  0.00    -0.064 C 
ATOM     23  N   UNL     1      -6.794   0.886   1.096  0.00  0.00    +0.379 N 
ATOM     24  C   UNL     1      -5.620   0.830   0.213  0.00  0.00    -0.096 C 
ATOM     25  H   UNL     1      -6.557   1.586   1.930  0.00  0.00    -0.082 HD
ATOM     26  C   UNL     1      -8.042   1.405   0.396  0.00  0.00    -0.064 C 
ATOM     27  C   UNL     1      -9.247   1.450   1.377  0.00  0.00    +0.066 C 
ENDBRANCH  19  20
ENDBRANCH  18  19
ENDBRANCH  14  15
ENDBRANCH  12  13
TORSDOF 6
ENDMDL
MODEL 4
REMARK VINA RESULT:      -8.2      2.471      5.195
REMARK  Name = C:\Users\Docking\Desktop\test protocol\1iep_ligandH.pdb
REMARK  8 active torsions:
REMARK  status: ('A' for Active; 'I' for Inactive)
REMARK    1  A    between atoms: _5  and  _11
REMARK    2  A    between atoms: _19  and  _21
REMARK    3  A    between atoms: _22  and  _66
REMARK    4  A    between atoms: _27  and  _30
REMARK    5  A    between atoms: _32  and  _33
REMARK    6  A    between atoms: _38  and  _43
REMARK    7  A    between atoms: _43  and  _46
REMARK    8  A    between atoms: _53  and  _55
REMARK                            x       y       z     vdW  Elec       q    Type
REMARK                         _______ _______ _______ _____ _____    ______ ____
ROOT
ATOM     10  C   UNL     1     -18.395  -4.798  -2.017  0.00  0.00    +0.038 A 
ATOM     11  C   UNL     1     -17.908  -6.064  -2.432  0.00  0.00    +0.047 A 
ATOM     12  C   UNL     1     -18.490  -6.757  -3.571  0.00  0.00    +0.035 A 
ATOM     32  C   UNL     1     -19.565  -6.130  -4.266  0.00  0.00    +0.024 A 
ATOM     33  C   UNL     1     -20.073  -4.844  -3.857  0.00  0.00    +0.007 A 
ATOM     34  C   UNL     1     -19.504  -4.157  -2.733  0.00  0.00    -0.029 A 
ATOM     35  C   UNL     1     -20.093  -2.783  -2.335  0.00  0.00    +0.045 C 
ENDROOT
BRANCH  10   9
ATOM      4  C   UNL     1     -15.053  -1.968  -0.050  0.00  0.00    +0.077 A 
ATOM      5  C   UNL     1     -14.426  -1.728  -1.318  0.00  0.00    +0.048 A 
ATOM      6  C   UNL     1     -14.990  -2.357  -2.451  0.00  0.00    +0.116 A 
ATOM      7  N   UNL     1     -16.099  -3.164  -2.314  0.00  0.00    -0.223 NA
ATOM      8  C   UNL     1     -16.678  -3.376  -1.076  0.00  0.00    +0.220 A 
ATOM      9  N   UNL     1     -17.799  -4.177  -0.917  0.00  0.00    -0.283 N 
ATOM     36  H   UNL     1     -18.192  -4.314   0.014  0.00  0.00    +0.155 HD
ATOM     37  N   UNL     1     -16.158  -2.788   0.021  0.00  0.00    -0.214 NA
BRANCH   4   3
ATOM      1  C   UNL     1     -13.343  -1.491   3.435  0.00  0.00    +0.020 A 
ATOM      2  C   UNL     1     -13.779  -2.113   2.206  0.00  0.00    +0.013 A 
ATOM      3  C   UNL     1     -14.576  -1.372   1.238  0.00  0.00    +0.019 A 
ATOM     38  C   UNL     1     -14.918   0.009   1.545  0.00  0.00    +0.120 A 
ATOM     39  N   UNL     1     -14.486   0.581   2.737  0.00  0.00    -0.263 NA
ATOM     40  C   UNL     1     -13.719  -0.123   3.677  0.00  0.00    +0.111 A 
ENDBRANCH   4   3
ENDBRANCH  10   9
BRANCH  12  13
ATOM     13  N   UNL     1     -18.044  -8.048  -4.033  0.00  0.00    -0.281 N 
ATOM     14  C   UNL     1     -16.863  -8.355  -4.690  0.00  0.00    +0.248 C 
ATOM     30  O   UNL     1     -16.104  -7.527  -5.171  0.00  0.00    -0.270 OA
ATOM     31  H   UNL     1     -18.674  -8.829  -3.855  0.00  0.00    +0.155 HD
BRANCH  14  15
ATOM     15  C   UNL     1     -16.478  -9.791  -4.847  0.00  0.00    +0.037 A 
ATOM     16  C   UNL     1     -15.502 -10.209  -5.857  0.00  0.00    +0.013 A 
ATOM     17  C   UNL     1     -15.160 -11.602  -5.999  0.00  0.00    +0.005 A 
ATOM     18  C   UNL     1     -15.794 -12.588  -5.126  0.00  0.00    -0.033 A 
ATOM     28  C   UNL     1     -16.755 -12.144  -4.129  0.00  0.00    +0.005 A 
ATOM     29  C   UNL     1     -17.093 -10.780  -3.988  0.00  0.00    +0.013 A 
BRANCH  18  19
ATOM     19  C   UNL     1     -15.506 -14.097  -5.221  0.00  0.00    +0.119 C 
BRANCH  19  20
ATOM     20  N   UNL     1     -16.092 -14.834  -6.381  0.00  0.00    -0.302 NA
ATOM     21  C   UNL     1     -17.591 -15.091  -6.200  0.00  0.00    +0.066 C 
ATOM     22  C   UNL     1     -18.192 -15.843  -7.432  0.00  0.00    -0.064 C 
ATOM     23  N   UNL     1     -17.438 -17.157  -7.641  0.00  0.00    +0.379 N 
ATOM     24  C   UNL     1     -18.039 -17.893  -8.763  0.00  0.00    -0.096 C 
ATOM     25  H   UNL     1     -17.572 -17.774  -6.722  0.00  0.00    -0.082 HD
ATOM     26  C   UNL     1     -15.947 -16.911  -7.820  0.00  0.00    -0.064 C 
ATOM     27  C   UNL     1     -15.365 -16.138  -6.603  0.00  0.00    +0.066 C 
ENDBRANCH  19  20
ENDBRANCH  18  19
ENDBRANCH  14  15
ENDBRANCH  12  13
TORSDOF 6
ENDMDL
MODEL 5
REMARK VINA RESULT:      -8.2      4.128     14.341
REMARK  Name = C:\Users\Docking\Desktop\test protocol\1iep_ligandH.pdb
REMARK  8 active torsions:
REMARK  status: ('A' for Active; 'I' for Inactive)
REMARK    1  A    between atoms: _5  and  _11
REMARK    2  A    between atoms: _19  and  _21
REMARK    3  A    between atoms: _22  and  _66
REMARK    4  A    between atoms: _27  and  _30
REMARK    5  A    between atoms: _32  and  _33
REMARK    6  A    between atoms: _38  and  _43
REMARK    7  A    between atoms: _43  and  _46
REMARK    8  A    between atoms: _53  and  _55
REMARK                            x       y       z     vdW  Elec       q    Type
REMARK                         _______ _______ _______ _____ _____    ______ ____
ROOT
ATOM     10  C   UNL     1     -18.115 -13.032  -4.538  0.00  0.00    +0.038 A 
ATOM     11  C   UNL     1     -17.452 -11.787  -4.684  0.00  0.00    +0.047 A 
ATOM     12  C   UNL     1     -17.452 -10.803  -3.613  0.00  0.00    +0.035 A 
ATOM     32  C   UNL     1     -18.136 -11.122  -2.403  0.00  0.00    +0.024 A 
ATOM     33  C   UNL     1     -18.816 -12.382  -2.238  0.00  0.00    +0.007 A 
ATOM     34  C   UNL     1     -18.821 -13.356  -3.292  0.00  0.00    -0.029 A 
ATOM     35  C   UNL     1     -19.572 -14.688  -3.062  0.00  0.00    +0.045 C 
ENDROOT
BRANCH  10   9
ATOM      4  C   UNL     1     -15.926 -16.410  -7.152  0.00  0.00    +0.077 A 
ATOM      5  C   UNL     1     -14.737 -16.342  -6.353  0.00  0.00    +0.048 A 
ATOM      6  C   UNL     1     -14.726 -15.419  -5.283  0.00  0.00    +0.116 A 
ATOM      7  N   UNL     1     -15.829 -14.629  -5.039  0.00  0.00    -0.223 NA
ATOM      8  C   UNL     1     -16.959 -14.719  -5.830  0.00  0.00    +0.220 A 
ATOM      9  N   UNL     1     -18.082 -13.939  -5.599  0.00  0.00    -0.283 N 
ATOM     36  H   UNL     1     -18.893 -14.030  -6.210  0.00  0.00    +0.155 HD
ATOM     37  N   UNL     1     -16.993 -15.591  -6.859  0.00  0.00    -0.214 NA
BRANCH   4   3
ATOM      1  C   UNL     1     -16.871 -17.872 -10.655  0.00  0.00    +0.020 A 
ATOM      2  C   UNL     1     -16.737 -16.938  -9.561  0.00  0.00    +0.013 A 
ATOM      3  C   UNL     1     -16.091 -17.337  -8.316  0.00  0.00    +0.019 A 
ATOM     38  C   UNL     1     -15.587 -18.697  -8.211  0.00  0.00    +0.120 A 
ATOM     39  N   UNL     1     -15.731 -19.575  -9.281  0.00  0.00    -0.263 NA
ATOM     40  C   UNL     1     -16.352 -19.204 -10.482  0.00  0.00    +0.111 A 
ENDBRANCH   4   3
ENDBRANCH  10   9
BRANCH  12  13
ATOM     13  N   UNL     1     -16.804  -9.519  -3.707  0.00  0.00    -0.281 N 
ATOM     14  C   UNL     1     -17.239  -8.392  -4.386  0.00  0.00    +0.248 C 
ATOM     30  O   UNL     1     -18.154  -8.384  -5.196  0.00  0.00    -0.270 OA
ATOM     31  H   UNL     1     -15.915  -9.429  -3.214  0.00  0.00    +0.155 HD
BRANCH  14  15
ATOM     15  C   UNL     1     -16.549  -7.089  -4.140  0.00  0.00    +0.037 A 
ATOM     16  C   UNL     1     -15.280  -6.766  -4.796  0.00  0.00    +0.013 A 
ATOM     17  C   UNL     1     -14.627  -5.509  -4.528  0.00  0.00    +0.005 A 
ATOM     18  C   UNL     1     -15.244  -4.565  -3.599  0.00  0.00    -0.033 A 
ATOM     28  C   UNL     1     -16.507  -4.909  -2.966  0.00  0.00    +0.005 A 
ATOM     29  C   UNL     1     -17.149  -6.141  -3.226  0.00  0.00    +0.013 A 
BRANCH  18  19
ATOM     19  C   UNL     1     -14.608  -3.210  -3.238  0.00  0.00    +0.119 C 
BRANCH  19  20
ATOM     20  N   UNL     1     -15.420  -2.273  -2.406  0.00  0.00    -0.302 NA
ATOM     21  C   UNL     1     -16.029  -1.143  -3.242  0.00  0.00    +0.066 C 
ATOM     22  C   UNL     1     -16.894  -0.185  -2.360  0.00  0.00    -0.064 C 
ATOM     23  N   UNL     1     -16.032   0.381  -1.230  0.00  0.00    +0.379 N 
ATOM     24  C   UNL     1     -16.827   1.327  -0.433  0.00  0.00    -0.096 C 
ATOM     25  H   UNL     1     -15.195   0.951  -1.696  0.00  0.00    -0.082 HD
ATOM     26  C   UNL     1     -15.421  -0.736  -0.396  0.00  0.00    -0.064 C 
ATOM     27  C   UNL     1     -14.588  -1.699  -1.287  0.00  0.00    +0.066 C 
ENDBRANCH  19  20
ENDBRANCH  18  19
ENDBRANCH  14  15
ENDBRANCH  12  13
TORSDOF 6
ENDMDL
