MODEL 1
REMARK VINA RESULT:      -8.4      0.000      0.000
REMARK  Name = C:\Users\Docking\Desktop\test protocol\1iep_ligandH.pdb
REMARK  8 active torsions:
REMARK  status: ('A' for Active; 'I' for Inactive)
REMARK    1  A    between atoms: _5  and  _11
REMARK    2  A    between atoms: _19  and  _21
REMARK    3  A    between atoms: _22  and  _66
REMARK    4  A    between atoms: _27  and  _30
REMARK    5  A    between atoms: _32  and  _33
REMARK    6  A    between atoms: _38  and  _43
REMARK    7  A    between atoms: _43  and  _46
REMARK    8  A    between atoms: _53  and  _55
REMARK                            x       y       z     vdW  Elec       q    Type
REMARK                         _______ _______ _______ _____ _____    ______ ____
ROOT
ATOM     10  C   UNL     1     -13.948  -1.093  -0.397  0.00  0.00    +0.038 A 
ATOM     11  C   UNL     1     -14.382  -2.275  -1.048  0.00  0.00    +0.047 A 
ATOM     12  C   UNL     1     -15.430  -2.238  -2.057  0.00  0.00    +0.035 A 
ATOM     32  C   UNL     1     -16.012  -0.978  -2.380  0.00  0.00    +0.024 A 
ATOM     33  C   UNL     1     -15.583   0.234  -1.727  0.00  0.00    +0.007 A 
ATOM     34  C   UNL     1     -14.552   0.203  -0.730  0.00  0.00    -0.029 A 
ATOM     35  C   UNL     1     -14.137   1.533  -0.058  0.00  0.00    +0.045 C 
ENDROOT
BRANCH  10   9
ATOM      4  C   UNL     1     -12.432  -1.888   4.087  0.00  0.00    +0.077 A 
ATOM      5  C   UNL     1     -13.768  -2.109   4.562  0.00  0.00    +0.048 A 
ATOM      6  C   UNL     1     -14.817  -2.002   3.622  0.00  0.00    +0.116 A 
ATOM      7  N   UNL     1     -14.540  -1.696   2.307  0.00  0.00    -0.223 NA
ATOM      8  C   UNL     1     -13.241  -1.487   1.882  0.00  0.00    +0.220 A 
ATOM      9  N   UNL     1     -12.938  -1.186   0.563  0.00  0.00    -0.283 N 
ATOM     36  H   UNL     1     -11.968  -1.032   0.291  0.00  0.00    +0.155 HD
ATOM     37  N   UNL     1     -12.221  -1.583   2.761  0.00  0.00    -0.214 NA
BRANCH   4   3
ATOM      1  C   UNL     1     -10.039  -2.597   7.099  0.00  0.00    +0.020 A 
ATOM      2  C   UNL     1     -11.241  -2.542   6.298  0.00  0.00    +0.013 A 
ATOM      3  C   UNL     1     -11.217  -1.970   4.958  0.00  0.00    +0.019 A 
ATOM     38  C   UNL     1      -9.952  -1.458   4.453  0.00  0.00    +0.120 A 
ATOM     39  N   UNL     1      -8.811  -1.523   5.247  0.00  0.00    -0.263 NA
ATOM     40  C   UNL     1      -8.822  -2.070   6.539  0.00  0.00    +0.111 A 
ENDBRANCH   4   3
ENDBRANCH  10   9
BRANCH  12  13
ATOM     13  N   UNL     1     -15.917  -3.407  -2.745  0.00  0.00    -0.281 N 
ATOM     14  C   UNL     1     -15.193  -4.314  -3.502  0.00  0.00    +0.248 C 
ATOM     30  O   UNL     1     -14.045  -4.136  -3.881  0.00  0.00    -0.270 OA
ATOM     31  H   UNL     1     -16.918  -3.589  -2.665  0.00  0.00    +0.155 HD
BRANCH  14  15
ATOM     15  C   UNL     1     -15.844  -5.596  -3.910  0.00  0.00    +0.037 A 
ATOM     16  C   UNL     1     -17.145  -5.995  -3.367  0.00  0.00    +0.013 A 
ATOM     17  C   UNL     1     -17.742  -7.245  -3.765  0.00  0.00    +0.005 A 
ATOM     18  C   UNL     1     -17.038  -8.106  -4.713  0.00  0.00    -0.033 A 
ATOM     28  C   UNL     1     -15.751  -7.683  -5.240  0.00  0.00    +0.005 A 
ATOM     29  C   UNL     1     -15.162  -6.459  -4.852  0.00  0.00    +0.013 A 
BRANCH  18  19
ATOM     19  C   UNL     1     -17.590  -9.467  -5.176  0.00  0.00    +0.119 C 
BRANCH  19  20
ATOM     20  N   UNL     1     -16.751 -10.673  -4.907  0.00  0.00    -0.302 NA
ATOM     21  C   UNL     1     -15.680 -10.878  -5.982  0.00  0.00    +0.066 C 
ATOM     22  C   UNL     1     -14.797 -12.131  -5.673  0.00  0.00    -0.064 C 
ATOM     23  N   UNL     1     -15.692 -13.366  -5.557  0.00  0.00    +0.379 N 
ATOM     24  C   UNL     1     -14.860 -14.555  -5.324  0.00  0.00    -0.096 C 
ATOM     25  H   UNL     1     -16.210 -13.502  -6.535  0.00  0.00    -0.082 HD
ATOM     26  C   UNL     1     -16.762 -13.169  -4.492  0.00  0.00    -0.064 C 
ATOM     27  C   UNL     1     -17.615 -11.905  -4.793  0.00  0.00    +0.066 C 
ENDBRANCH  19  20
ENDBRANCH  18  19
ENDBRANCH  14  15
ENDBRANCH  12  13
TORSDOF 6
ENDMDL
MODEL 2
REMARK VINA RESULT:      -8.1      2.396     11.456
REMARK  Name = C:\Users\Docking\Desktop\test protocol\1iep_ligandH.pdb
REMARK  8 active torsions:
REMARK  status: ('A' for Active; 'I' for Inactive)
REMARK    1  A    between atoms: _5  and  _11
REMARK    2  A    between atoms: _19  and  _21
REMARK    3  A    between atoms: _22  and  _66
REMARK    4  A    between atoms: _27  and  _30
REMARK    5  A    between atoms: _32  and  _33
REMARK    6  A    between atoms: _38  and  _43
REMARK    7  A    between atoms: _43  and  _46
REMARK    8  A    between atoms: _53  and  _55
REMARK                            x       y       z     vdW  Elec       q    Type
REMARK                         _______ _______ _______ _____ _____    ______ ____
ROOT
ATOM     10  C   UNL     1     -15.761  -2.195  -1.639  0.00  0.00    +0.038 A 
ATOM     11  C   UNL     1     -14.917  -2.312  -0.505  0.00  0.00    +0.047 A 
ATOM     12  C   UNL     1     -14.145  -1.178  -0.022  0.00  0.00    +0.035 A 
ATOM     32  C   UNL     1     -14.259   0.062  -0.715  0.00  0.00    +0.024 A 
ATOM     33  C   UNL     1     -15.112   0.199  -1.869  0.00  0.00    +0.007 A 
ATOM     34  C   UNL     1     -15.874  -0.917  -2.352  0.00  0.00    -0.029 A 
ATOM     35  C   UNL     1     -16.767  -0.715  -3.598  0.00  0.00    +0.045 C 
ENDROOT
BRANCH  10   9
ATOM      4  C   UNL     1     -16.191  -6.228  -4.205  0.00  0.00    +0.077 A 
ATOM      5  C   UNL     1     -14.884  -6.074  -4.776  0.00  0.00    +0.048 A 
ATOM      6  C   UNL     1     -14.137  -4.940  -4.389  0.00  0.00    +0.116 A 
ATOM      7  N   UNL     1     -14.666  -4.033  -3.496  0.00  0.00    -0.223 NA
ATOM      8  C   UNL     1     -15.931  -4.211  -2.965  0.00  0.00    +0.220 A 
ATOM      9  N   UNL     1     -16.480  -3.316  -2.060  0.00  0.00    -0.283 N 
ATOM     36  H   UNL     1     -17.419  -3.479  -1.697  0.00  0.00    +0.155 HD
ATOM     37  N   UNL     1     -16.665  -5.285  -3.320  0.00  0.00    -0.214 NA
BRANCH   4   3
ATOM      1  C   UNL     1     -17.581  -9.837  -4.794  0.00  0.00    +0.020 A 
ATOM      2  C   UNL     1     -16.661  -8.765  -4.489  0.00  0.00    +0.013 A 
ATOM      3  C   UNL     1     -17.102  -7.376  -4.514  0.00  0.00    +0.019 A 
ATOM     38  C   UNL     1     -18.490  -7.103  -4.853  0.00  0.00    +0.120 A 
ATOM     39  N   UNL     1     -19.352  -8.156  -5.144  0.00  0.00    -0.263 NA
ATOM     40  C   UNL     1     -18.939  -9.496  -5.125  0.00  0.00    +0.111 A 
ENDBRANCH   4   3
ENDBRANCH  10   9
BRANCH  12  13
ATOM     13  N   UNL     1     -13.264  -1.240   1.119  0.00  0.00    -0.281 N 
ATOM     14  C   UNL     1     -13.587  -1.063   2.454  0.00  0.00    +0.248 C 
ATOM     30  O   UNL     1     -14.650  -0.611   2.855  0.00  0.00    -0.270 OA
ATOM     31  H   UNL     1     -12.284  -1.438   0.917  0.00  0.00    +0.155 HD
BRANCH  14  15
ATOM     15  C   UNL     1     -12.578  -1.427   3.495  0.00  0.00    +0.037 A 
ATOM     16  C   UNL     1     -12.988  -1.952   4.800  0.00  0.00    +0.013 A 
ATOM     17  C   UNL     1     -11.995  -2.279   5.793  0.00  0.00    +0.005 A 
ATOM     18  C   UNL     1     -10.581  -2.083   5.482  0.00  0.00    -0.033 A 
ATOM     28  C   UNL     1     -10.202  -1.566   4.178  0.00  0.00    +0.005 A 
ATOM     29  C   UNL     1     -11.172  -1.243   3.203  0.00  0.00    +0.013 A 
BRANCH  18  19
ATOM     19  C   UNL     1      -9.454  -2.385   6.488  0.00  0.00    +0.119 C 
BRANCH  19  20
ATOM     20  N   UNL     1      -8.716  -3.673   6.321  0.00  0.00    -0.302 NA
ATOM     21  C   UNL     1      -9.606  -4.886   6.601  0.00  0.00    +0.066 C 
ATOM     22  C   UNL     1      -8.824  -6.225   6.400  0.00  0.00    -0.064 C 
ATOM     23  N   UNL     1      -7.593  -6.235   7.309  0.00  0.00    +0.379 N 
ATOM     24  C   UNL     1      -6.887  -7.516   7.164  0.00  0.00    -0.096 C 
ATOM     25  H   UNL     1      -7.950  -6.162   8.362  0.00  0.00    -0.082 HD
ATOM     26  C   UNL     1      -6.704  -5.030   7.038  0.00  0.00    -0.064 C 
ATOM     27  C   UNL     1      -7.499  -3.706   7.213  0.00  0.00    +0.066 C 
ENDBRANCH  19  20
ENDBRANCH  18  19
ENDBRANCH  14  15
ENDBRANCH  12  13
TORSDOF 6
ENDMDL
MODEL 3
REMARK VINA RESULT:      -8.0     15.916     19.643
REMARK  Name = C:\Users\Docking\Desktop\test protocol\1iep_ligandH.pdb
REMARK  8 active torsions:
REMARK  status: ('A' for Active; 'I' for Inactive)
REMARK    1  A    between atoms: _5  and  _11
REMARK    2  A    between atoms: _19  and  _21
REMARK    3  A    between atoms: _22  and  _66
REMARK    4  A    between atoms: _27  and  _30
REMARK    5  A    between atoms: _32  and  _33
REMARK    6  A    between atoms: _38  and  _43
REMARK    7  A    between atoms: _43  and  _46
REMARK    8  A    between atoms: _53  and  _55
REMARK                            x       y       z     vdW  Elec       q    Type
REMARK                         _______ _______ _______ _____ _____    ______ ____
ROOT
ATOM     10  C   UNL     1       5.803  -4.010   2.719  0.00  0.00    +0.038 A 
ATOM     11  C   UNL     1       4.666  -3.792   1.898  0.00  0.00    +0.047 A 
ATOM     12  C   UNL     1       4.739  -2.937   0.723  0.00  0.00    +0.035 A 
ATOM     32  C   UNL     1       5.987  -2.322   0.412  0.00  0.00    +0.024 A 
ATOM     33  C   UNL     1       7.151  -2.532   1.235  0.00  0.00    +0.007 A 
ATOM     34  C   UNL     1       7.085  -3.372   2.397  0.00  0.00    -0.029 A 
ATOM     35  C   UNL     1       8.364  -3.555   3.247  0.00  0.00    +0.045 C 
ENDROOT
BRANCH  10   9
ATOM      4  C   UNL     1       6.075  -8.298   4.856  0.00  0.00    +0.077 A 
ATOM      5  C   UNL     1       6.477  -8.945   3.641  0.00  0.00    +0.048 A 
ATOM      6  C   UNL     1       6.595  -8.139   2.486  0.00  0.00    +0.116 A 
ATOM      7  N   UNL     1       6.329  -6.789   2.554  0.00  0.00    -0.223 NA
ATOM      8  C   UNL     1       5.941  -6.197   3.742  0.00  0.00    +0.220 A 
ATOM      9  N   UNL     1       5.676  -4.840   3.835  0.00  0.00    -0.283 N 
ATOM     36  H   UNL     1       5.386  -4.443   4.728  0.00  0.00    +0.155 HD
ATOM     37  N   UNL     1       5.820  -6.945   4.858  0.00  0.00    -0.214 NA
BRANCH   4   3
ATOM      1  C   UNL     1       6.769 -10.446   8.051  0.00  0.00    +0.020 A 
ATOM      2  C   UNL     1       6.981  -9.773   6.790  0.00  0.00    +0.013 A 
ATOM      3  C   UNL     1       5.908  -9.014   6.161  0.00  0.00    +0.019 A 
ATOM     38  C   UNL     1       4.622  -8.954   6.839  0.00  0.00    +0.120 A 
ATOM     39  N   UNL     1       4.447  -9.612   8.052  0.00  0.00    -0.263 NA
ATOM     40  C   UNL     1       5.471 -10.348   8.666  0.00  0.00    +0.111 A 
ENDBRANCH   4   3
ENDBRANCH  10   9
BRANCH  12  13
ATOM     13  N   UNL     1       3.617  -2.673  -0.142  0.00  0.00    -0.281 N 
ATOM     14  C   UNL     1       2.910  -1.490  -0.283  0.00  0.00    +0.248 C 
ATOM     30  O   UNL     1       3.002  -0.536   0.475  0.00  0.00    -0.270 OA
ATOM     31  H   UNL     1       3.305  -3.452  -0.722  0.00  0.00    +0.155 HD
BRANCH  14  15
ATOM     15  C   UNL     1       1.952  -1.352  -1.422  0.00  0.00    +0.037 A 
ATOM     16  C   UNL     1       1.045  -0.205  -1.517  0.00  0.00    +0.013 A 
ATOM     17  C   UNL     1       0.119  -0.105  -2.618  0.00  0.00    +0.005 A 
ATOM     18  C   UNL     1       0.098  -1.156  -3.633  0.00  0.00    -0.033 A 
ATOM     28  C   UNL     1       1.012  -2.279  -3.517  0.00  0.00    +0.005 A 
ATOM     29  C   UNL     1       1.920  -2.381  -2.439  0.00  0.00    +0.013 A 
BRANCH  18  19
ATOM     19  C   UNL     1      -0.872  -1.142  -4.830  0.00  0.00    +0.119 C 
BRANCH  19  20
ATOM     20  N   UNL     1      -0.273  -1.223  -6.196  0.00  0.00    -0.302 NA
ATOM     21  C   UNL     1       0.058   0.161  -6.762  0.00  0.00    +0.066 C 
ATOM     22  C   UNL     1       0.704   0.056  -8.181  0.00  0.00    -0.064 C 
ATOM     23  N   UNL     1      -0.243  -0.699  -9.116  0.00  0.00    +0.379 N 
ATOM     24  C   UNL     1       0.336  -0.749 -10.466  0.00  0.00    -0.096 C 
ATOM     25  H   UNL     1      -1.193  -0.118  -9.176  0.00  0.00    -0.082 HD
ATOM     26  C   UNL     1      -0.579  -2.076  -8.559  0.00  0.00    -0.064 C 
ATOM     27  C   UNL     1      -1.194  -1.961  -7.136  0.00  0.00    +0.066 C 
ENDBRANCH  19  20
ENDBRANCH  18  19
ENDBRANCH  14  15
ENDBRANCH  12  13
TORSDOF 6
ENDMDL
MODEL 4
REMARK VINA RESULT:      -7.9     15.838     20.381
REMARK  Name = C:\Users\Docking\Desktop\test protocol\1iep_ligandH.pdb
REMARK  8 active torsions:
REMARK  status: ('A' for Active; 'I' for Inactive)
REMARK    1  A    between atoms: _5  and  _11
REMARK    2  A    between atoms: _19  and  _21
REMARK    3  A    between atoms: _22  and  _66
REMARK    4  A    between atoms: _27  and  _30
REMARK    5  A    between atoms: _32  and  _33
REMARK    6  A    between atoms: _38  and  _43
REMARK    7  A    between atoms: _43  and  _46
REMARK    8  A    between atoms: _53  and  _55
REMARK                            x       y       z     vdW  Elec       q    Type
REMARK                         _______ _______ _______ _____ _____    ______ ____
ROOT
ATOM     10  C   UNL     1       4.683  -1.523  -1.573  0.00  0.00    +0.038 A 
ATOM     11  C   UNL     1       4.792  -2.636  -0.701  0.00  0.00    +0.047 A 
ATOM     12  C   UNL     1       5.544  -2.549   0.541  0.00  0.00    +0.035 A 
ATOM     32  C   UNL     1       6.170  -1.310   0.866  0.00  0.00    +0.024 A 
ATOM     33  C   UNL     1       6.070  -0.168  -0.010  0.00  0.00    +0.007 A 
ATOM     34  C   UNL     1       5.332  -0.250  -1.238  0.00  0.00    -0.029 A 
ATOM     35  C   UNL     1       5.265   1.003  -2.141  0.00  0.00    +0.045 C 
ENDROOT
BRANCH  10   9
ATOM      4  C   UNL     1       0.665  -1.002  -4.146  0.00  0.00    +0.077 A 
ATOM      5  C   UNL     1      -0.040  -0.426  -3.037  0.00  0.00    +0.048 A 
ATOM      6  C   UNL     1       0.665  -0.287  -1.821  0.00  0.00    +0.116 A 
ATOM      7  N   UNL     1       1.977  -0.698  -1.731  0.00  0.00    -0.223 NA
ATOM      8  C   UNL     1       2.627  -1.251  -2.819  0.00  0.00    +0.220 A 
ATOM      9  N   UNL     1       3.949  -1.663  -2.753  0.00  0.00    -0.283 N 
ATOM     36  H   UNL     1       4.391  -2.074  -3.576  0.00  0.00    +0.155 HD
ATOM     37  N   UNL     1       1.975  -1.395  -3.991  0.00  0.00    -0.214 NA
BRANCH   4   3
ATOM      1  C   UNL     1      -1.670  -2.208  -7.043  0.00  0.00    +0.020 A 
ATOM      2  C   UNL     1      -1.122  -2.039  -5.717  0.00  0.00    +0.013 A 
ATOM      3  C   UNL     1       0.057  -1.210  -5.498  0.00  0.00    +0.019 A 
ATOM     38  C   UNL     1       0.661  -0.560  -6.651  0.00  0.00    +0.120 A 
ATOM     39  N   UNL     1       0.112  -0.741  -7.916  0.00  0.00    -0.263 NA
ATOM     40  C   UNL     1      -1.021  -1.538  -8.140  0.00  0.00    +0.111 A 
ENDBRANCH   4   3
ENDBRANCH  10   9
BRANCH  12  13
ATOM     13  N   UNL     1       5.696  -3.648   1.462  0.00  0.00    -0.281 N 
ATOM     14  C   UNL     1       4.811  -4.065   2.443  0.00  0.00    +0.248 C 
ATOM     30  O   UNL     1       3.844  -3.421   2.821  0.00  0.00    -0.270 OA
ATOM     31  H   UNL     1       6.560  -4.183   1.380  0.00  0.00    +0.155 HD
BRANCH  14  15
ATOM     15  C   UNL     1       5.043  -5.383   3.110  0.00  0.00    +0.037 A 
ATOM     16  C   UNL     1       3.958  -6.087   3.798  0.00  0.00    +0.013 A 
ATOM     17  C   UNL     1       4.212  -7.348   4.449  0.00  0.00    +0.005 A 
ATOM     18  C   UNL     1       5.559  -7.913   4.412  0.00  0.00    -0.033 A 
ATOM     28  C   UNL     1       6.615  -7.196   3.718  0.00  0.00    +0.005 A 
ATOM     29  C   UNL     1       6.370  -5.959   3.081  0.00  0.00    +0.013 A 
BRANCH  18  19
ATOM     19  C   UNL     1       5.926  -9.243   5.097  0.00  0.00    +0.119 C 
BRANCH  19  20
ATOM     20  N   UNL     1       4.896  -9.863   5.984  0.00  0.00    -0.302 NA
ATOM     21  C   UNL     1       5.518 -10.498   7.231  0.00  0.00    +0.066 C 
ATOM     22  C   UNL     1       4.425 -11.122   8.158  0.00  0.00    -0.064 C 
ATOM     23  N   UNL     1       3.620 -12.155   7.368  0.00  0.00    +0.379 N 
ATOM     24  C   UNL     1       2.629 -12.785   8.253  0.00  0.00    -0.096 C 
ATOM     25  H   UNL     1       4.327 -12.949   7.032  0.00  0.00    -0.082 HD
ATOM     26  C   UNL     1       3.000 -11.533   6.125  0.00  0.00    -0.064 C 
ATOM     27  C   UNL     1       4.092 -10.890   5.225  0.00  0.00    +0.066 C 
ENDBRANCH  19  20
ENDBRANCH  18  19
ENDBRANCH  14  15
ENDBRANCH  12  13
TORSDOF 6
ENDMDL
MODEL 5
REMARK VINA RESULT:      -7.8     16.215     19.654
REMARK  Name = C:\Users\Docking\Desktop\test protocol\1iep_ligandH.pdb
REMARK  8 active torsions:
REMARK  status: ('A' for Active; 'I' for Inactive)
REMARK    1  A    between atoms: _5  and  _11
REMARK    2  A    between atoms: _19  and  _21
REMARK    3  A    between atoms: _22  and  _66
REMARK    4  A    between atoms: _27  and  _30
REMARK    5  A    between atoms: _32  and  _33
REMARK    6  A    between atoms: _38  and  _43
REMARK    7  A    between atoms: _43  and  _46
REMARK    8  A    between atoms: _53  and  _55
REMARK                            x       y       z     vdW  Elec       q    Type
REMARK                         _______ _______ _______ _____ _____    ______ ____
ROOT
ATOM     10  C   UNL     1       4.988  -4.262   3.818  0.00  0.00    +0.038 A 
ATOM     11  C   UNL     1       4.214  -3.867   2.697  0.00  0.00    +0.047 A 
ATOM     12  C   UNL     1       4.523  -2.651   1.961  0.00  0.00    +0.035 A 
ATOM     32  C   UNL     1       5.628  -1.862   2.393  0.00  0.00    +0.024 A 
ATOM     33  C   UNL     1       6.424  -2.247   3.531  0.00  0.00    +0.007 A 
ATOM     34  C   UNL     1       6.123  -3.445   4.263  0.00  0.00    -0.029 A 
ATOM     35  C   UNL     1       7.007  -3.806   5.480  0.00  0.00    +0.045 C 
ENDROOT
BRANCH  10   9
ATOM      4  C   UNL     1       5.211  -9.022   4.390  0.00  0.00    +0.077 A 
ATOM      5  C   UNL     1       6.055  -9.180   3.241  0.00  0.00    +0.048 A 
ATOM      6  C   UNL     1       6.404  -8.012   2.527  0.00  0.00    +0.116 A 
ATOM      7  N   UNL     1       5.936  -6.783   2.939  0.00  0.00    -0.223 NA
ATOM      8  C   UNL     1       5.122  -6.666   4.050  0.00  0.00    +0.220 A 
ATOM      9  N   UNL     1       4.647  -5.439   4.488  0.00  0.00    -0.283 N 
ATOM     36  H   UNL     1       4.043  -5.396   5.308  0.00  0.00    +0.155 HD
ATOM     37  N   UNL     1       4.774  -7.767   4.749  0.00  0.00    -0.214 NA
BRANCH   4   3
ATOM      1  C   UNL     1       4.736 -11.457   7.414  0.00  0.00    +0.020 A 
ATOM      2  C   UNL     1       5.204 -10.340   6.626  0.00  0.00    +0.013 A 
ATOM      3  C   UNL     1       4.758 -10.161   5.250  0.00  0.00    +0.019 A 
ATOM     38  C   UNL     1       3.832 -11.138   4.697  0.00  0.00    +0.120 A 
ATOM     39  N   UNL     1       3.400 -12.204   5.479  0.00  0.00    -0.263 NA
ATOM     40  C   UNL     1       3.823 -12.388   6.804  0.00  0.00    +0.111 A 
ENDBRANCH   4   3
ENDBRANCH  10   9
BRANCH  12  13
ATOM     13  N   UNL     1       3.768  -2.195   0.819  0.00  0.00    -0.281 N 
ATOM     14  C   UNL     1       4.104  -2.300  -0.521  0.00  0.00    +0.248 C 
ATOM     30  O   UNL     1       5.212  -2.612  -0.933  0.00  0.00    -0.270 OA
ATOM     31  H   UNL     1       2.878  -1.741   1.024  0.00  0.00    +0.155 HD
BRANCH  14  15
ATOM     15  C   UNL     1       3.064  -2.000  -1.551  0.00  0.00    +0.037 A 
ATOM     16  C   UNL     1       3.290  -2.300  -2.968  0.00  0.00    +0.013 A 
ATOM     17  C   UNL     1       2.277  -1.984  -3.944  0.00  0.00    +0.005 A 
ATOM     18  C   UNL     1       1.028  -1.367  -3.505  0.00  0.00    -0.033 A 
ATOM     28  C   UNL     1       0.828  -1.085  -2.093  0.00  0.00    +0.005 A 
ATOM     29  C   UNL     1       1.819  -1.391  -1.134  0.00  0.00    +0.013 A 
BRANCH  18  19
ATOM     19  C   UNL     1      -0.100  -0.977  -4.480  0.00  0.00    +0.119 C 
BRANCH  19  20
ATOM     20  N   UNL     1       0.172  -1.139  -5.939  0.00  0.00    -0.302 NA
ATOM     21  C   UNL     1       0.596   0.178  -6.594  0.00  0.00    +0.066 C 
ATOM     22  C   UNL     1       0.898  -0.014  -8.116  0.00  0.00    -0.064 C 
ATOM     23  N   UNL     1      -0.338  -0.590  -8.810  0.00  0.00    +0.379 N 
ATOM     24  C   UNL     1      -0.077  -0.718 -10.251  0.00  0.00    -0.096 C 
ATOM     25  H   UNL     1      -1.170   0.141  -8.680  0.00  0.00    -0.082 HD
ATOM     26  C   UNL     1      -0.769  -1.899  -8.163  0.00  0.00    -0.064 C 
ATOM     27  C   UNL     1      -1.037  -1.703  -6.644  0.00  0.00    +0.066 C 
ENDBRANCH  19  20
ENDBRANCH  18  19
ENDBRANCH  14  15
ENDBRANCH  12  13
TORSDOF 6
ENDMDL
