MODEL 1
REMARK VINA RESULT:      -9.2      0.000      0.000
REMARK  Name = C:\Users\Docking\Desktop\test protocol\1iep_ligandH.pdb
REMARK  8 active torsions:
REMARK  status: ('A' for Active; 'I' for Inactive)
REMARK    1  A    between atoms: _5  and  _11
REMARK    2  A    between atoms: _19  and  _21
REMARK    3  A    between atoms: _22  and  _66
REMARK    4  A    between atoms: _27  and  _30
REMARK    5  A    between atoms: _32  and  _33
REMARK    6  A    between atoms: _38  and  _43
REMARK    7  A    between atoms: _43  and  _46
REMARK    8  A    between atoms: _53  and  _55
REMARK                            x       y       z     vdW  Elec       q    Type
REMARK                         _______ _______ _______ _____ _____    ______ ____
ROOT
ATOM     10  C   UNL     1       7.838  28.749  -2.938  0.00  0.00    +0.038 A 
ATOM     11  C   UNL     1       8.921  28.987  -3.823  0.00  0.00    +0.047 A 
ATOM     12  C   UNL     1       9.300  30.339  -4.202  0.00  0.00    +0.035 A 
ATOM     32  C   UNL     1       8.556  31.427  -3.659  0.00  0.00    +0.024 A 
ATOM     33  C   UNL     1       7.451  31.203  -2.759  0.00  0.00    +0.007 A 
ATOM     34  C   UNL     1       7.071  29.871  -2.384  0.00  0.00    -0.029 A 
ATOM     35  C   UNL     1       5.875  29.690  -1.421  0.00  0.00    +0.045 C 
ENDROOT
BRANCH  10   9
ATOM      4  C   UNL     1       5.467  24.649  -3.714  0.00  0.00    +0.077 A 
ATOM      5  C   UNL     1       4.789  25.188  -4.857  0.00  0.00    +0.048 A 
ATOM      6  C   UNL     1       5.073  26.527  -5.208  0.00  0.00    +0.116 A 
ATOM      7  N   UNL     1       5.970  27.262  -4.464  0.00  0.00    -0.223 NA
ATOM      8  C   UNL     1       6.606  26.712  -3.366  0.00  0.00    +0.220 A 
ATOM      9  N   UNL     1       7.518  27.430  -2.609  0.00  0.00    -0.283 N 
ATOM     36  H   UNL     1       7.960  26.991  -1.801  0.00  0.00    +0.155 HD
ATOM     37  N   UNL     1       6.350  25.436  -3.010  0.00  0.00    -0.214 NA
BRANCH   4   3
ATOM      1  C   UNL     1       5.182  20.751  -3.559  0.00  0.00    +0.020 A 
ATOM      2  C   UNL     1       5.376  22.081  -4.086  0.00  0.00    +0.013 A 
ATOM      3  C   UNL     1       5.275  23.249  -3.219  0.00  0.00    +0.019 A 
ATOM     38  C   UNL     1       4.975  23.033  -1.812  0.00  0.00    +0.120 A 
ATOM     39  N   UNL     1       4.792  21.740  -1.332  0.00  0.00    -0.263 NA
ATOM     40  C   UNL     1       4.885  20.609  -2.157  0.00  0.00    +0.111 A 
ENDBRANCH   4   3
ENDBRANCH  10   9
BRANCH  12  13
ATOM     13  N   UNL     1      10.385  30.642  -5.102  0.00  0.00    -0.281 N 
ATOM     14  C   UNL     1      11.745  30.593  -4.843  0.00  0.00    +0.248 C 
ATOM     30  O   UNL     1      12.233  30.486  -3.728  0.00  0.00    -0.270 OA
ATOM     31  H   UNL     1      10.118  30.927  -6.044  0.00  0.00    +0.155 HD
BRANCH  14  15
ATOM     15  C   UNL     1      12.702  30.691  -5.988  0.00  0.00    +0.037 A 
ATOM     16  C   UNL     1      14.146  30.798  -5.764  0.00  0.00    +0.013 A 
ATOM     17  C   UNL     1      15.045  30.909  -6.885  0.00  0.00    +0.005 A 
ATOM     18  C   UNL     1      14.502  30.911  -8.241  0.00  0.00    -0.033 A 
ATOM     28  C   UNL     1      13.066  30.797  -8.435  0.00  0.00    +0.005 A 
ATOM     29  C   UNL     1      12.181  30.690  -7.338  0.00  0.00    +0.013 A 
BRANCH  18  19
ATOM     19  C   UNL     1      15.385  31.046  -9.496  0.00  0.00    +0.119 C 
BRANCH  19  20
ATOM     20  N   UNL     1      15.062  32.154 -10.443  0.00  0.00    -0.302 NA
ATOM     21  C   UNL     1      15.936  32.108 -11.700  0.00  0.00    +0.066 C 
ATOM     22  C   UNL     1      15.569  33.260 -12.691  0.00  0.00    -0.064 C 
ATOM     23  N   UNL     1      15.715  34.606 -11.979  0.00  0.00    +0.379 N 
ATOM     24  C   UNL     1      15.427  35.695 -12.924  0.00  0.00    -0.096 C 
ATOM     25  H   UNL     1      16.779  34.707 -11.661  0.00  0.00    -0.082 HD
ATOM     26  C   UNL     1      14.852  34.660 -10.726  0.00  0.00    -0.064 C 
ATOM     27  C   UNL     1      15.204  33.493  -9.762  0.00  0.00    +0.066 C 
ENDBRANCH  19  20
ENDBRANCH  18  19
ENDBRANCH  14  15
ENDBRANCH  12  13
TORSDOF 6
ENDMDL
MODEL 2
REMARK VINA RESULT:      -9.1      2.850     13.306
REMARK  Name = C:\Users\Docking\Desktop\test protocol\1iep_ligandH.pdb
REMARK  8 active torsions:
REMARK  status: ('A' for Active; 'I' for Inactive)
REMARK    1  A    between atoms: _5  and  _11
REMARK    2  A    between atoms: _19  and  _21
REMARK    3  A    between atoms: _22  and  _66
REMARK    4  A    between atoms: _27  and  _30
REMARK    5  A    between atoms: _32  and  _33
REMARK    6  A    between atoms: _38  and  _43
REMARK    7  A    between atoms: _43  and  _46
REMARK    8  A    between atoms: _53  and  _55
REMARK                            x       y       z     vdW  Elec       q    Type
REMARK                         _______ _______ _______ _____ _____    ______ ____
ROOT
ATOM     10  C   UNL     1       7.603  29.996  -4.473  0.00  0.00    +0.038 A 
ATOM     11  C   UNL     1       7.496  28.815  -3.694  0.00  0.00    +0.047 A 
ATOM     12  C   UNL     1       6.515  28.705  -2.626  0.00  0.00    +0.035 A 
ATOM     32  C   UNL     1       5.657  29.815  -2.379  0.00  0.00    +0.024 A 
ATOM     33  C   UNL     1       5.753  31.024  -3.160  0.00  0.00    +0.007 A 
ATOM     34  C   UNL     1       6.720  31.140  -4.213  0.00  0.00    -0.029 A 
ATOM     35  C   UNL     1       6.782  32.461  -5.014  0.00  0.00    +0.045 C 
ENDROOT
BRANCH  10   9
ATOM      4  C   UNL     1      12.091  30.703  -6.020  0.00  0.00    +0.077 A 
ATOM      5  C   UNL     1      12.558  31.023  -4.702  0.00  0.00    +0.048 A 
ATOM      6  C   UNL     1      11.610  31.001  -3.654  0.00  0.00    +0.116 A 
ATOM      7  N   UNL     1      10.296  30.681  -3.917  0.00  0.00    -0.223 NA
ATOM      8  C   UNL     1       9.878  30.380  -5.200  0.00  0.00    +0.220 A 
ATOM      9  N   UNL     1       8.563  30.048  -5.486  0.00  0.00    -0.283 N 
ATOM     36  H   UNL     1       8.293  29.839  -6.447  0.00  0.00    +0.155 HD
ATOM     37  N   UNL     1      10.764  30.395  -6.218  0.00  0.00    -0.214 NA
BRANCH   4   3
ATOM      1  C   UNL     1      15.201  30.354  -8.367  0.00  0.00    +0.020 A 
ATOM      2  C   UNL     1      14.394  30.363  -7.169  0.00  0.00    +0.013 A 
ATOM      3  C   UNL     1      12.973  30.681  -7.230  0.00  0.00    +0.019 A 
ATOM     38  C   UNL     1      12.394  30.987  -8.529  0.00  0.00    +0.120 A 
ATOM     39  N   UNL     1      13.196  30.973  -9.666  0.00  0.00    -0.263 NA
ATOM     40  C   UNL     1      14.565  30.670  -9.620  0.00  0.00    +0.111 A 
ENDBRANCH   4   3
ENDBRANCH  10   9
BRANCH  12  13
ATOM     13  N   UNL     1       6.366  27.534  -1.797  0.00  0.00    -0.281 N 
ATOM     14  C   UNL     1       5.835  26.304  -2.149  0.00  0.00    +0.248 C 
ATOM     30  O   UNL     1       5.208  26.090  -3.176  0.00  0.00    -0.270 OA
ATOM     31  H   UNL     1       6.691  27.623  -0.834  0.00  0.00    +0.155 HD
BRANCH  14  15
ATOM     15  C   UNL     1       6.013  25.148  -1.218  0.00  0.00    +0.037 A 
ATOM     16  C   UNL     1       7.070  25.145  -0.204  0.00  0.00    +0.013 A 
ATOM     17  C   UNL     1       7.231  24.009   0.669  0.00  0.00    +0.005 A 
ATOM     18  C   UNL     1       6.330  22.868   0.533  0.00  0.00    -0.033 A 
ATOM     28  C   UNL     1       5.286  22.900  -0.478  0.00  0.00    +0.005 A 
ATOM     29  C   UNL     1       5.126  24.010  -1.336  0.00  0.00    +0.013 A 
BRANCH  18  19
ATOM     19  C   UNL     1       6.441  21.605   1.408  0.00  0.00    +0.119 C 
BRANCH  19  20
ATOM     20  N   UNL     1       5.364  20.580   1.270  0.00  0.00    -0.302 NA
ATOM     21  C   UNL     1       4.757  20.199   2.623  0.00  0.00    +0.066 C 
ATOM     22  C   UNL     1       3.616  19.143   2.458  0.00  0.00    -0.064 C 
ATOM     23  N   UNL     1       4.169  17.907   1.745  0.00  0.00    +0.379 N 
ATOM     24  C   UNL     1       3.114  16.889   1.640  0.00  0.00    -0.096 C 
ATOM     25  H   UNL     1       4.983  17.486   2.380  0.00  0.00    -0.082 HD
ATOM     26  C   UNL     1       4.777  18.278   0.400  0.00  0.00    -0.064 C 
ATOM     27  C   UNL     1       5.889  19.350   0.572  0.00  0.00    +0.066 C 
ENDBRANCH  19  20
ENDBRANCH  18  19
ENDBRANCH  14  15
ENDBRANCH  12  13
TORSDOF 6
ENDMDL
MODEL 3
REMARK VINA RESULT:      -9.1      1.778      2.214
REMARK  Name = C:\Users\Docking\Desktop\test protocol\1iep_ligandH.pdb
REMARK  8 active torsions:
REMARK  status: ('A' for Active; 'I' for Inactive)
REMARK    1  A    between atoms: _5  and  _11
REMARK    2  A    between atoms: _19  and  _21
REMARK    3  A    between atoms: _22  and  _66
REMARK    4  A    between atoms: _27  and  _30
REMARK    5  A    between atoms: _32  and  _33
REMARK    6  A    between atoms: _38  and  _43
REMARK    7  A    between atoms: _43  and  _46
REMARK    8  A    between atoms: _53  and  _55
REMARK                            x       y       z     vdW  Elec       q    Type
REMARK                         _______ _______ _______ _____ _____    ______ ____
ROOT
ATOM     10  C   UNL     1       7.467  28.524  -2.666  0.00  0.00    +0.038 A 
ATOM     11  C   UNL     1       8.220  29.036  -3.753  0.00  0.00    +0.047 A 
ATOM     12  C   UNL     1       8.289  30.466  -4.013  0.00  0.00    +0.035 A 
ATOM     32  C   UNL     1       7.580  31.346  -3.144  0.00  0.00    +0.024 A 
ATOM     33  C   UNL     1       6.809  30.841  -2.035  0.00  0.00    +0.007 A 
ATOM     34  C   UNL     1       6.735  29.432  -1.775  0.00  0.00    -0.029 A 
ATOM     35  C   UNL     1       5.888  28.947  -0.575  0.00  0.00    +0.045 C 
ENDROOT
BRANCH  10   9
ATOM      4  C   UNL     1       5.730  24.147  -3.595  0.00  0.00    +0.077 A 
ATOM      5  C   UNL     1       4.786  24.659  -4.546  0.00  0.00    +0.048 A 
ATOM      6  C   UNL     1       4.775  26.055  -4.762  0.00  0.00    +0.116 A 
ATOM      7  N   UNL     1       5.647  26.869  -4.073  0.00  0.00    -0.223 NA
ATOM      8  C   UNL     1       6.544  26.343  -3.161  0.00  0.00    +0.220 A 
ATOM      9  N   UNL     1       7.436  27.142  -2.463  0.00  0.00    -0.283 N 
ATOM     36  H   UNL     1       8.077  26.717  -1.793  0.00  0.00    +0.155 HD
ATOM     37  N   UNL     1       6.573  25.013  -2.936  0.00  0.00    -0.214 NA
BRANCH   4   3
ATOM      1  C   UNL     1       4.923  20.470  -2.532  0.00  0.00    +0.020 A 
ATOM      2  C   UNL     1       4.738  21.869  -2.844  0.00  0.00    +0.013 A 
ATOM      3  C   UNL     1       5.865  22.694  -3.260  0.00  0.00    +0.019 A 
ATOM     38  C   UNL     1       7.176  22.068  -3.353  0.00  0.00    +0.120 A 
ATOM     39  N   UNL     1       7.323  20.720  -3.045  0.00  0.00    -0.263 NA
ATOM     40  C   UNL     1       6.246  19.916  -2.641  0.00  0.00    +0.111 A 
ENDBRANCH   4   3
ENDBRANCH  10   9
BRANCH  12  13
ATOM     13  N   UNL     1       9.031  31.044  -5.106  0.00  0.00    -0.281 N 
ATOM     14  C   UNL     1      10.334  31.514  -5.097  0.00  0.00    +0.248 C 
ATOM     30  O   UNL     1      10.992  31.704  -4.085  0.00  0.00    -0.270 OA
ATOM     31  H   UNL     1       8.535  31.116  -5.995  0.00  0.00    +0.155 HD
BRANCH  14  15
ATOM     15  C   UNL     1      10.996  31.831  -6.398  0.00  0.00    +0.037 A 
ATOM     16  C   UNL     1      11.517  30.770  -7.264  0.00  0.00    +0.013 A 
ATOM     17  C   UNL     1      12.167  31.104  -8.507  0.00  0.00    +0.005 A 
ATOM     18  C   UNL     1      12.298  32.507  -8.891  0.00  0.00    -0.033 A 
ATOM     28  C   UNL     1      11.768  33.539  -8.016  0.00  0.00    +0.005 A 
ATOM     29  C   UNL     1      11.131  33.216  -6.797  0.00  0.00    +0.013 A 
BRANCH  18  19
ATOM     19  C   UNL     1      12.996  32.957 -10.189  0.00  0.00    +0.119 C 
BRANCH  19  20
ATOM     20  N   UNL     1      13.083  34.426 -10.445  0.00  0.00    -0.302 NA
ATOM     21  C   UNL     1      12.050  34.892 -11.475  0.00  0.00    +0.066 C 
ATOM     22  C   UNL     1      12.139  36.434 -11.714  0.00  0.00    -0.064 C 
ATOM     23  N   UNL     1      13.555  36.796 -12.165  0.00  0.00    +0.379 N 
ATOM     24  C   UNL     1      13.627  38.237 -12.446  0.00  0.00    -0.096 C 
ATOM     25  H   UNL     1      13.755  36.255 -13.119  0.00  0.00    -0.082 HD
ATOM     26  C   UNL     1      14.589  36.334 -11.147  0.00  0.00    -0.064 C 
ATOM     27  C   UNL     1      14.472  34.805 -10.895  0.00  0.00    +0.066 C 
ENDBRANCH  19  20
ENDBRANCH  18  19
ENDBRANCH  14  15
ENDBRANCH  12  13
TORSDOF 6
ENDMDL
MODEL 4
REMARK VINA RESULT:      -9.1      3.094     12.479
REMARK  Name = C:\Users\Docking\Desktop\test protocol\1iep_ligandH.pdb
REMARK  8 active torsions:
REMARK  status: ('A' for Active; 'I' for Inactive)
REMARK    1  A    between atoms: _5  and  _11
REMARK    2  A    between atoms: _19  and  _21
REMARK    3  A    between atoms: _22  and  _66
REMARK    4  A    between atoms: _27  and  _30
REMARK    5  A    between atoms: _32  and  _33
REMARK    6  A    between atoms: _38  and  _43
REMARK    7  A    between atoms: _43  and  _46
REMARK    8  A    between atoms: _53  and  _55
REMARK                            x       y       z     vdW  Elec       q    Type
REMARK                         _______ _______ _______ _____ _____    ______ ____
ROOT
ATOM     10  C   UNL     1       7.655  30.064  -4.500  0.00  0.00    +0.038 A 
ATOM     11  C   UNL     1       7.524  28.882  -3.727  0.00  0.00    +0.047 A 
ATOM     12  C   UNL     1       6.540  28.785  -2.661  0.00  0.00    +0.035 A 
ATOM     32  C   UNL     1       5.702  29.910  -2.410  0.00  0.00    +0.024 A 
ATOM     33  C   UNL     1       5.822  31.120  -3.185  0.00  0.00    +0.007 A 
ATOM     34  C   UNL     1       6.793  31.222  -4.237  0.00  0.00    -0.029 A 
ATOM     35  C   UNL     1       6.882  32.546  -5.031  0.00  0.00    +0.045 C 
ENDROOT
BRANCH  10   9
ATOM      4  C   UNL     1      12.150  30.737  -6.044  0.00  0.00    +0.077 A 
ATOM      5  C   UNL     1      12.615  31.066  -4.727  0.00  0.00    +0.048 A 
ATOM      6  C   UNL     1      11.665  31.058  -3.682  0.00  0.00    +0.116 A 
ATOM      7  N   UNL     1      10.349  30.742  -3.945  0.00  0.00    -0.223 NA
ATOM      8  C   UNL     1       9.933  30.430  -5.226  0.00  0.00    +0.220 A 
ATOM      9  N   UNL     1       8.617  30.102  -5.512  0.00  0.00    -0.283 N 
ATOM     36  H   UNL     1       8.348  29.886  -6.471  0.00  0.00    +0.155 HD
ATOM     37  N   UNL     1      10.821  30.433  -6.242  0.00  0.00    -0.214 NA
BRANCH   4   3
ATOM      1  C   UNL     1      15.254  30.314  -8.386  0.00  0.00    +0.020 A 
ATOM      2  C   UNL     1      14.444  30.336  -7.189  0.00  0.00    +0.013 A 
ATOM      3  C   UNL     1      13.034  30.699  -7.251  0.00  0.00    +0.019 A 
ATOM     38  C   UNL     1      12.469  31.037  -8.549  0.00  0.00    +0.120 A 
ATOM     39  N   UNL     1      13.274  31.010  -9.684  0.00  0.00    -0.263 NA
ATOM     40  C   UNL     1      14.633  30.663  -9.636  0.00  0.00    +0.111 A 
ENDBRANCH   4   3
ENDBRANCH  10   9
BRANCH  12  13
ATOM     13  N   UNL     1       6.367  27.613  -1.838  0.00  0.00    -0.281 N 
ATOM     14  C   UNL     1       5.862  26.378  -2.210  0.00  0.00    +0.248 C 
ATOM     30  O   UNL     1       5.280  26.158  -3.261  0.00  0.00    -0.270 OA
ATOM     31  H   UNL     1       6.652  27.706  -0.863  0.00  0.00    +0.155 HD
BRANCH  14  15
ATOM     15  C   UNL     1       6.012  25.224  -1.271  0.00  0.00    +0.037 A 
ATOM     16  C   UNL     1       6.966  25.268  -0.160  0.00  0.00    +0.013 A 
ATOM     17  C   UNL     1       7.103  24.134   0.720  0.00  0.00    +0.005 A 
ATOM     18  C   UNL     1       6.282  22.948   0.493  0.00  0.00    -0.033 A 
ATOM     28  C   UNL     1       5.340  22.934  -0.614  0.00  0.00    +0.005 A 
ATOM     29  C   UNL     1       5.203  24.042  -1.479  0.00  0.00    +0.013 A 
BRANCH  18  19
ATOM     19  C   UNL     1       6.377  21.685   1.369  0.00  0.00    +0.119 C 
BRANCH  19  20
ATOM     20  N   UNL     1       7.219  20.561   0.860  0.00  0.00    -0.302 NA
ATOM     21  C   UNL     1       7.580  19.567   1.967  0.00  0.00    +0.066 C 
ATOM     22  C   UNL     1       8.442  18.386   1.412  0.00  0.00    -0.064 C 
ATOM     23  N   UNL     1       9.704  18.945   0.753  0.00  0.00    +0.379 N 
ATOM     24  C   UNL     1      10.545  17.835   0.282  0.00  0.00    -0.096 C 
ATOM     25  H   UNL     1      10.278  19.496   1.534  0.00  0.00    -0.082 HD
ATOM     26  C   UNL     1       9.353  19.937  -0.348  0.00  0.00    -0.064 C 
ATOM     27  C   UNL     1       8.472  21.090   0.208  0.00  0.00    +0.066 C 
ENDBRANCH  19  20
ENDBRANCH  18  19
ENDBRANCH  14  15
ENDBRANCH  12  13
TORSDOF 6
ENDMDL
MODEL 5
REMARK VINA RESULT:      -9.1      2.938     13.013
REMARK  Name = C:\Users\Docking\Desktop\test protocol\1iep_ligandH.pdb
REMARK  8 active torsions:
REMARK  status: ('A' for Active; 'I' for Inactive)
REMARK    1  A    between atoms: _5  and  _11
REMARK    2  A    between atoms: _19  and  _21
REMARK    3  A    between atoms: _22  and  _66
REMARK    4  A    between atoms: _27  and  _30
REMARK    5  A    between atoms: _32  and  _33
REMARK    6  A    between atoms: _38  and  _43
REMARK    7  A    between atoms: _43  and  _46
REMARK    8  A    between atoms: _53  and  _55
REMARK                            x       y       z     vdW  Elec       q    Type
REMARK                         _______ _______ _______ _____ _____    ______ ____
ROOT
ATOM     10  C   UNL     1      12.556  32.463  -8.229  0.00  0.00    +0.038 A 
ATOM     11  C   UNL     1      11.563  31.550  -7.791  0.00  0.00    +0.047 A 
ATOM     12  C   UNL     1      11.449  31.177  -6.390  0.00  0.00    +0.035 A 
ATOM     32  C   UNL     1      12.361  31.757  -5.460  0.00  0.00    +0.024 A 
ATOM     33  C   UNL     1      13.377  32.686  -5.888  0.00  0.00    +0.007 A 
ATOM     34  C   UNL     1      13.496  33.055  -7.270  0.00  0.00    -0.029 A 
ATOM     35  C   UNL     1      14.608  34.051  -7.673  0.00  0.00    +0.045 C 
ENDROOT
BRANCH  10   9
ATOM      4  C   UNL     1      11.207  35.064 -12.031  0.00  0.00    +0.077 A 
ATOM      5  C   UNL     1      10.276  35.828 -11.252  0.00  0.00    +0.048 A 
ATOM      6  C   UNL     1      10.169  35.515  -9.878  0.00  0.00    +0.116 A 
ATOM      7  N   UNL     1      10.941  34.512  -9.335  0.00  0.00    -0.223 NA
ATOM      8  C   UNL     1      11.828  33.793 -10.114  0.00  0.00    +0.220 A 
ATOM      9  N   UNL     1      12.621  32.785  -9.587  0.00  0.00    -0.283 N 
ATOM     36  H   UNL     1      13.258  32.273 -10.196  0.00  0.00    +0.155 HD
ATOM     37  N   UNL     1      11.948  34.071 -11.429  0.00  0.00    -0.214 NA
BRANCH   4   3
ATOM      1  C   UNL     1      10.821  34.973 -15.922  0.00  0.00    +0.020 A 
ATOM      2  C   UNL     1      10.555  34.738 -14.522  0.00  0.00    +0.013 A 
ATOM      3  C   UNL     1      11.437  35.277 -13.495  0.00  0.00    +0.019 A 
ATOM     38  C   UNL     1      12.588  36.059 -13.922  0.00  0.00    +0.120 A 
ATOM     39  N   UNL     1      12.819  36.268 -15.278  0.00  0.00    -0.263 NA
ATOM     40  C   UNL     1      11.979  35.752 -16.275  0.00  0.00    +0.111 A 
ENDBRANCH   4   3
ENDBRANCH  10   9
BRANCH  12  13
ATOM     13  N   UNL     1      10.466  30.249  -5.888  0.00  0.00    -0.281 N 
ATOM     14  C   UNL     1       9.182  30.524  -5.446  0.00  0.00    +0.248 C 
ATOM     30  O   UNL     1       8.756  31.646  -5.215  0.00  0.00    -0.270 OA
ATOM     31  H   UNL     1      10.752  29.271  -5.853  0.00  0.00    +0.155 HD
BRANCH  14  15
ATOM     15  C   UNL     1       8.240  29.388  -5.214  0.00  0.00    +0.037 A 
ATOM     16  C   UNL     1       8.542  28.336  -4.240  0.00  0.00    +0.013 A 
ATOM     17  C   UNL     1       7.623  27.242  -4.048  0.00  0.00    +0.005 A 
ATOM     18  C   UNL     1       6.392  27.195  -4.832  0.00  0.00    -0.033 A 
ATOM     28  C   UNL     1       6.114  28.255  -5.788  0.00  0.00    +0.005 A 
ATOM     29  C   UNL     1       7.012  29.328  -5.980  0.00  0.00    +0.013 A 
BRANCH  18  19
ATOM     19  C   UNL     1       5.364  26.055  -4.708  0.00  0.00    +0.119 C 
BRANCH  19  20
ATOM     20  N   UNL     1       5.596  25.039  -3.638  0.00  0.00    -0.302 NA
ATOM     21  C   UNL     1       5.129  23.643  -4.061  0.00  0.00    +0.066 C 
ATOM     22  C   UNL     1       5.400  22.589  -2.938  0.00  0.00    -0.064 C 
ATOM     23  N   UNL     1       4.699  23.027  -1.651  0.00  0.00    +0.379 N 
ATOM     24  C   UNL     1       4.903  22.009  -0.610  0.00  0.00    -0.096 C 
ATOM     25  H   UNL     1       3.606  23.081  -1.863  0.00  0.00    -0.082 HD
ATOM     26  C   UNL     1       5.155  24.416  -1.226  0.00  0.00    -0.064 C 
ATOM     27  C   UNL     1       4.909  25.450  -2.359  0.00  0.00    +0.066 C 
ENDBRANCH  19  20
ENDBRANCH  18  19
ENDBRANCH  14  15
ENDBRANCH  12  13
TORSDOF 6
ENDMDL
