MODEL 1
REMARK VINA RESULT:      -9.3      0.000      0.000
REMARK  Name = C:\Users\Docking\Desktop\test protocol\1iep_ligandH.pdb
REMARK  8 active torsions:
REMARK  status: ('A' for Active; 'I' for Inactive)
REMARK    1  A    between atoms: _5  and  _11
REMARK    2  A    between atoms: _19  and  _21
REMARK    3  A    between atoms: _22  and  _66
REMARK    4  A    between atoms: _27  and  _30
REMARK    5  A    between atoms: _32  and  _33
REMARK    6  A    between atoms: _38  and  _43
REMARK    7  A    between atoms: _43  and  _46
REMARK    8  A    between atoms: _53  and  _55
REMARK                            x       y       z     vdW  Elec       q    Type
REMARK                         _______ _______ _______ _____ _____    ______ ____
ROOT
ATOM     10  C   UNL     1      12.849  31.327  -8.197  0.00  0.00    +0.038 A 
ATOM     11  C   UNL     1      11.713  30.577  -7.799  0.00  0.00    +0.047 A 
ATOM     12  C   UNL     1      11.617  30.009  -6.463  0.00  0.00    +0.035 A 
ATOM     32  C   UNL     1      12.696  30.228  -5.557  0.00  0.00    +0.024 A 
ATOM     33  C   UNL     1      13.858  30.988  -5.946  0.00  0.00    +0.007 A 
ATOM     34  C   UNL     1      13.959  31.548  -7.263  0.00  0.00    -0.029 A 
ATOM     35  C   UNL     1      15.232  32.348  -7.627  0.00  0.00    +0.045 C 
ENDROOT
BRANCH  10   9
ATOM      4  C   UNL     1      11.739  34.683 -11.444  0.00  0.00    +0.077 A 
ATOM      5  C   UNL     1      10.995  35.449 -10.485  0.00  0.00    +0.048 A 
ATOM      6  C   UNL     1      10.916  34.940  -9.169  0.00  0.00    +0.116 A 
ATOM      7  N   UNL     1      11.539  33.754  -8.847  0.00  0.00    -0.223 NA
ATOM      8  C   UNL     1      12.247  33.040  -9.796  0.00  0.00    +0.220 A 
ATOM      9  N   UNL     1      12.888  31.849  -9.492  0.00  0.00    -0.283 N 
ATOM     36  H   UNL     1      13.395  31.348 -10.222  0.00  0.00    +0.155 HD
ATOM     37  N   UNL     1      12.336  33.504 -11.060  0.00  0.00    -0.214 NA
BRANCH   4   3
ATOM      1  C   UNL     1      11.441  34.859 -15.340  0.00  0.00    +0.020 A 
ATOM      2  C   UNL     1      11.235  34.426 -13.977  0.00  0.00    +0.013 A 
ATOM      3  C   UNL     1      11.916  35.091 -12.874  0.00  0.00    +0.019 A 
ATOM     38  C   UNL     1      12.805  36.200 -13.185  0.00  0.00    +0.120 A 
ATOM     39  N   UNL     1      12.984  36.595 -14.508  0.00  0.00    -0.263 NA
ATOM     40  C   UNL     1      12.336  35.961 -15.578  0.00  0.00    +0.111 A 
ENDBRANCH   4   3
ENDBRANCH  10   9
BRANCH  12  13
ATOM     13  N   UNL     1      10.493  29.232  -6.004  0.00  0.00    -0.281 N 
ATOM     14  C   UNL     1       9.231  29.684  -5.654  0.00  0.00    +0.248 C 
ATOM     30  O   UNL     1       8.942  30.858  -5.477  0.00  0.00    -0.270 OA
ATOM     31  H   UNL     1      10.646  28.226  -5.929  0.00  0.00    +0.155 HD
BRANCH  14  15
ATOM     15  C   UNL     1       8.136  28.686  -5.457  0.00  0.00    +0.037 A 
ATOM     16  C   UNL     1       7.014  28.595  -6.395  0.00  0.00    +0.013 A 
ATOM     17  C   UNL     1       5.961  27.636  -6.173  0.00  0.00    +0.005 A 
ATOM     18  C   UNL     1       6.027  26.757  -5.007  0.00  0.00    -0.033 A 
ATOM     28  C   UNL     1       7.154  26.865  -4.096  0.00  0.00    +0.005 A 
ATOM     29  C   UNL     1       8.187  27.806  -4.310  0.00  0.00    +0.013 A 
BRANCH  18  19
ATOM     19  C   UNL     1       4.938  25.719  -4.680  0.00  0.00    +0.119 C 
BRANCH  19  20
ATOM     20  N   UNL     1       5.225  24.751  -3.579  0.00  0.00    -0.302 NA
ATOM     21  C   UNL     1       5.286  23.307  -4.084  0.00  0.00    +0.066 C 
ATOM     22  C   UNL     1       5.609  22.311  -2.923  0.00  0.00    -0.064 C 
ATOM     23  N   UNL     1       4.556  22.456  -1.823  0.00  0.00    +0.379 N 
ATOM     24  C   UNL     1       4.824  21.480  -0.756  0.00  0.00    -0.096 C 
ATOM     25  H   UNL     1       3.565  22.207  -2.269  0.00  0.00    -0.082 HD
ATOM     26  C   UNL     1       4.487  23.890  -1.317  0.00  0.00    -0.064 C 
ATOM     27  C   UNL     1       4.195  24.874  -2.483  0.00  0.00    +0.066 C 
ENDBRANCH  19  20
ENDBRANCH  18  19
ENDBRANCH  14  15
ENDBRANCH  12  13
TORSDOF 6
ENDMDL
MODEL 2
REMARK VINA RESULT:      -9.3      2.527     13.062
REMARK  Name = C:\Users\Docking\Desktop\test protocol\1iep_ligandH.pdb
REMARK  8 active torsions:
REMARK  status: ('A' for Active; 'I' for Inactive)
REMARK    1  A    between atoms: _5  and  _11
REMARK    2  A    between atoms: _19  and  _21
REMARK    3  A    between atoms: _22  and  _66
REMARK    4  A    between atoms: _27  and  _30
REMARK    5  A    between atoms: _32  and  _33
REMARK    6  A    between atoms: _38  and  _43
REMARK    7  A    between atoms: _43  and  _46
REMARK    8  A    between atoms: _53  and  _55
REMARK                            x       y       z     vdW  Elec       q    Type
REMARK                         _______ _______ _______ _____ _____    ______ ____
ROOT
ATOM     10  C   UNL     1       7.814  28.761  -2.951  0.00  0.00    +0.038 A 
ATOM     11  C   UNL     1       8.899  29.009  -3.830  0.00  0.00    +0.047 A 
ATOM     12  C   UNL     1       9.262  30.364  -4.215  0.00  0.00    +0.035 A 
ATOM     32  C   UNL     1       8.501  31.444  -3.682  0.00  0.00    +0.024 A 
ATOM     33  C   UNL     1       7.395  31.211  -2.787  0.00  0.00    +0.007 A 
ATOM     34  C   UNL     1       7.030  29.877  -2.406  0.00  0.00    -0.029 A 
ATOM     35  C   UNL     1       5.831  29.685  -1.449  0.00  0.00    +0.045 C 
ENDROOT
BRANCH  10   9
ATOM      4  C   UNL     1       5.445  24.650  -3.672  0.00  0.00    +0.077 A 
ATOM      5  C   UNL     1       4.735  25.188  -4.797  0.00  0.00    +0.048 A 
ATOM      6  C   UNL     1       5.003  26.529  -5.152  0.00  0.00    +0.116 A 
ATOM      7  N   UNL     1       5.916  27.267  -4.431  0.00  0.00    -0.223 NA
ATOM      8  C   UNL     1       6.582  26.719  -3.350  0.00  0.00    +0.220 A 
ATOM      9  N   UNL     1       7.509  27.441  -2.615  0.00  0.00    -0.283 N 
ATOM     36  H   UNL     1       7.974  27.002  -1.820  0.00  0.00    +0.155 HD
ATOM     37  N   UNL     1       6.342  25.441  -2.989  0.00  0.00    -0.214 NA
BRANCH   4   3
ATOM      1  C   UNL     1       5.178  20.751  -3.518  0.00  0.00    +0.020 A 
ATOM      2  C   UNL     1       5.351  22.083  -4.048  0.00  0.00    +0.013 A 
ATOM      3  C   UNL     1       5.273  23.248  -3.175  0.00  0.00    +0.019 A 
ATOM     38  C   UNL     1       5.018  23.028  -1.760  0.00  0.00    +0.120 A 
ATOM     39  N   UNL     1       4.854  21.733  -1.278  0.00  0.00    -0.263 NA
ATOM     40  C   UNL     1       4.925  20.605  -2.108  0.00  0.00    +0.111 A 
ENDBRANCH   4   3
ENDBRANCH  10   9
BRANCH  12  13
ATOM     13  N   UNL     1      10.348  30.675  -5.111  0.00  0.00    -0.281 N 
ATOM     14  C   UNL     1      11.706  30.678  -4.835  0.00  0.00    +0.248 C 
ATOM     30  O   UNL     1      12.183  30.620  -3.711  0.00  0.00    -0.270 OA
ATOM     31  H   UNL     1      10.084  30.924  -6.064  0.00  0.00    +0.155 HD
BRANCH  14  15
ATOM     15  C   UNL     1      12.673  30.774  -5.970  0.00  0.00    +0.037 A 
ATOM     16  C   UNL     1      14.108  30.954  -5.733  0.00  0.00    +0.013 A 
ATOM     17  C   UNL     1      15.017  31.061  -6.847  0.00  0.00    +0.005 A 
ATOM     18  C   UNL     1      14.493  30.986  -8.208  0.00  0.00    -0.033 A 
ATOM     28  C   UNL     1      13.067  30.802  -8.415  0.00  0.00    +0.005 A 
ATOM     29  C   UNL     1      12.172  30.698  -7.326  0.00  0.00    +0.013 A 
BRANCH  18  19
ATOM     19  C   UNL     1      15.388  31.112  -9.456  0.00  0.00    +0.119 C 
BRANCH  19  20
ATOM     20  N   UNL     1      15.063  32.203 -10.423  0.00  0.00    -0.302 NA
ATOM     21  C   UNL     1      16.004  32.199 -11.631  0.00  0.00    +0.066 C 
ATOM     22  C   UNL     1      15.636  33.332 -12.643  0.00  0.00    -0.064 C 
ATOM     23  N   UNL     1      15.679  34.684 -11.928  0.00  0.00    +0.379 N 
ATOM     24  C   UNL     1      15.390  35.757 -12.891  0.00  0.00    -0.096 C 
ATOM     25  H   UNL     1      16.717  34.836 -11.554  0.00  0.00    -0.082 HD
ATOM     26  C   UNL     1      14.748  34.696 -10.724  0.00  0.00    -0.064 C 
ATOM     27  C   UNL     1      15.103  33.547  -9.739  0.00  0.00    +0.066 C 
ENDBRANCH  19  20
ENDBRANCH  18  19
ENDBRANCH  14  15
ENDBRANCH  12  13
TORSDOF 6
ENDMDL
MODEL 3
REMARK VINA RESULT:      -9.2      3.832      6.925
REMARK  Name = C:\Users\Docking\Desktop\test protocol\1iep_ligandH.pdb
REMARK  8 active torsions:
REMARK  status: ('A' for Active; 'I' for Inactive)
REMARK    1  A    between atoms: _5  and  _11
REMARK    2  A    between atoms: _19  and  _21
REMARK    3  A    between atoms: _22  and  _66
REMARK    4  A    between atoms: _27  and  _30
REMARK    5  A    between atoms: _32  and  _33
REMARK    6  A    between atoms: _38  and  _43
REMARK    7  A    between atoms: _43  and  _46
REMARK    8  A    between atoms: _53  and  _55
REMARK                            x       y       z     vdW  Elec       q    Type
REMARK                         _______ _______ _______ _____ _____    ______ ____
ROOT
ATOM     10  C   UNL     1       7.601  29.986  -4.481  0.00  0.00    +0.038 A 
ATOM     11  C   UNL     1       7.496  28.806  -3.701  0.00  0.00    +0.047 A 
ATOM     12  C   UNL     1       6.517  28.696  -2.631  0.00  0.00    +0.035 A 
ATOM     32  C   UNL     1       5.658  29.806  -2.384  0.00  0.00    +0.024 A 
ATOM     33  C   UNL     1       5.752  31.013  -3.167  0.00  0.00    +0.007 A 
ATOM     34  C   UNL     1       6.717  31.129  -4.222  0.00  0.00    -0.029 A 
ATOM     35  C   UNL     1       6.778  32.449  -5.024  0.00  0.00    +0.045 C 
ENDROOT
BRANCH  10   9
ATOM      4  C   UNL     1      12.086  30.700  -6.035  0.00  0.00    +0.077 A 
ATOM      5  C   UNL     1      12.554  31.024  -4.718  0.00  0.00    +0.048 A 
ATOM      6  C   UNL     1      11.607  31.003  -3.670  0.00  0.00    +0.116 A 
ATOM      7  N   UNL     1      10.293  30.679  -3.930  0.00  0.00    -0.223 NA
ATOM      8  C   UNL     1       9.874  30.373  -5.212  0.00  0.00    +0.220 A 
ATOM      9  N   UNL     1       8.560  30.037  -5.495  0.00  0.00    -0.283 N 
ATOM     36  H   UNL     1       8.289  29.825  -6.455  0.00  0.00    +0.155 HD
ATOM     37  N   UNL     1      10.759  30.388  -6.231  0.00  0.00    -0.214 NA
BRANCH   4   3
ATOM      1  C   UNL     1      15.193  30.348  -8.385  0.00  0.00    +0.020 A 
ATOM      2  C   UNL     1      14.387  30.357  -7.186  0.00  0.00    +0.013 A 
ATOM      3  C   UNL     1      12.966  30.676  -7.246  0.00  0.00    +0.019 A 
ATOM     38  C   UNL     1      12.387  30.982  -8.545  0.00  0.00    +0.120 A 
ATOM     39  N   UNL     1      13.187  30.966  -9.683  0.00  0.00    -0.263 NA
ATOM     40  C   UNL     1      14.556  30.663  -9.637  0.00  0.00    +0.111 A 
ENDBRANCH   4   3
ENDBRANCH  10   9
BRANCH  12  13
ATOM     13  N   UNL     1       6.370  27.526  -1.800  0.00  0.00    -0.281 N 
ATOM     14  C   UNL     1       5.819  26.302  -2.143  0.00  0.00    +0.248 C 
ATOM     30  O   UNL     1       5.172  26.095  -3.160  0.00  0.00    -0.270 OA
ATOM     31  H   UNL     1       6.713  27.611  -0.844  0.00  0.00    +0.155 HD
BRANCH  14  15
ATOM     15  C   UNL     1       6.001  25.143  -1.217  0.00  0.00    +0.037 A 
ATOM     16  C   UNL     1       7.043  25.151  -0.187  0.00  0.00    +0.013 A 
ATOM     17  C   UNL     1       7.208  24.013   0.683  0.00  0.00    +0.005 A 
ATOM     18  C   UNL     1       6.328  22.858   0.526  0.00  0.00    -0.033 A 
ATOM     28  C   UNL     1       5.299  22.879  -0.501  0.00  0.00    +0.005 A 
ATOM     29  C   UNL     1       5.135  23.992  -1.356  0.00  0.00    +0.013 A 
BRANCH  18  19
ATOM     19  C   UNL     1       6.446  21.592   1.395  0.00  0.00    +0.119 C 
BRANCH  19  20
ATOM     20  N   UNL     1       5.337  20.596   1.307  0.00  0.00    -0.302 NA
ATOM     21  C   UNL     1       4.855  20.149   2.690  0.00  0.00    +0.066 C 
ATOM     22  C   UNL     1       3.679  19.124   2.579  0.00  0.00    -0.064 C 
ATOM     23  N   UNL     1       4.131  17.922   1.748  0.00  0.00    +0.379 N 
ATOM     24  C   UNL     1       3.047  16.930   1.691  0.00  0.00    -0.096 C 
ATOM     25  H   UNL     1       4.993  17.451   2.276  0.00  0.00    -0.082 HD
ATOM     26  C   UNL     1       4.614  18.358   0.372  0.00  0.00    -0.064 C 
ATOM     27  C   UNL     1       5.762  19.398   0.494  0.00  0.00    +0.066 C 
ENDBRANCH  19  20
ENDBRANCH  18  19
ENDBRANCH  14  15
ENDBRANCH  12  13
TORSDOF 6
ENDMDL
MODEL 4
REMARK VINA RESULT:      -9.1      3.841      6.983
REMARK  Name = C:\Users\Docking\Desktop\test protocol\1iep_ligandH.pdb
REMARK  8 active torsions:
REMARK  status: ('A' for Active; 'I' for Inactive)
REMARK    1  A    between atoms: _5  and  _11
REMARK    2  A    between atoms: _19  and  _21
REMARK    3  A    between atoms: _22  and  _66
REMARK    4  A    between atoms: _27  and  _30
REMARK    5  A    between atoms: _32  and  _33
REMARK    6  A    between atoms: _38  and  _43
REMARK    7  A    between atoms: _43  and  _46
REMARK    8  A    between atoms: _53  and  _55
REMARK                            x       y       z     vdW  Elec       q    Type
REMARK                         _______ _______ _______ _____ _____    ______ ____
ROOT
ATOM     10  C   UNL     1       7.605  30.031  -4.499  0.00  0.00    +0.038 A 
ATOM     11  C   UNL     1       7.495  28.848  -3.725  0.00  0.00    +0.047 A 
ATOM     12  C   UNL     1       6.513  28.736  -2.658  0.00  0.00    +0.035 A 
ATOM     32  C   UNL     1       5.657  29.848  -2.408  0.00  0.00    +0.024 A 
ATOM     33  C   UNL     1       5.756  31.059  -3.185  0.00  0.00    +0.007 A 
ATOM     34  C   UNL     1       6.725  31.176  -4.237  0.00  0.00    -0.029 A 
ATOM     35  C   UNL     1       6.791  32.500  -5.034  0.00  0.00    +0.045 C 
ENDROOT
BRANCH  10   9
ATOM      4  C   UNL     1      12.105  30.692  -6.035  0.00  0.00    +0.077 A 
ATOM      5  C   UNL     1      12.576  30.984  -4.711  0.00  0.00    +0.048 A 
ATOM      6  C   UNL     1      11.628  30.960  -3.665  0.00  0.00    +0.116 A 
ATOM      7  N   UNL     1      10.308  30.665  -3.933  0.00  0.00    -0.223 NA
ATOM      8  C   UNL     1       9.886  30.391  -5.220  0.00  0.00    +0.220 A 
ATOM      9  N   UNL     1       8.566  30.084  -5.512  0.00  0.00    -0.283 N 
ATOM     36  H   UNL     1       8.293  29.895  -6.476  0.00  0.00    +0.155 HD
ATOM     37  N   UNL     1      10.773  30.408  -6.238  0.00  0.00    -0.214 NA
BRANCH   4   3
ATOM      1  C   UNL     1      15.213  30.349  -8.384  0.00  0.00    +0.020 A 
ATOM      2  C   UNL     1      14.406  30.352  -7.186  0.00  0.00    +0.013 A 
ATOM      3  C   UNL     1      12.986  30.675  -7.245  0.00  0.00    +0.019 A 
ATOM     38  C   UNL     1      12.409  30.992  -8.542  0.00  0.00    +0.120 A 
ATOM     39  N   UNL     1      13.211  30.983  -9.679  0.00  0.00    -0.263 NA
ATOM     40  C   UNL     1      14.579  30.675  -9.634  0.00  0.00    +0.111 A 
ENDBRANCH   4   3
ENDBRANCH  10   9
BRANCH  12  13
ATOM     13  N   UNL     1       6.360  27.563  -1.833  0.00  0.00    -0.281 N 
ATOM     14  C   UNL     1       5.859  26.325  -2.198  0.00  0.00    +0.248 C 
ATOM     30  O   UNL     1       5.264  26.100  -3.242  0.00  0.00    -0.270 OA
ATOM     31  H   UNL     1       6.658  27.658  -0.862  0.00  0.00    +0.155 HD
BRANCH  14  15
ATOM     15  C   UNL     1       6.030  25.172  -1.263  0.00  0.00    +0.037 A 
ATOM     16  C   UNL     1       6.978  25.233  -0.147  0.00  0.00    +0.013 A 
ATOM     17  C   UNL     1       7.137  24.100   0.730  0.00  0.00    +0.005 A 
ATOM     18  C   UNL     1       6.343  22.896   0.496  0.00  0.00    -0.033 A 
ATOM     28  C   UNL     1       5.406  22.865  -0.615  0.00  0.00    +0.005 A 
ATOM     29  C   UNL     1       5.249  23.973  -1.478  0.00  0.00    +0.013 A 
BRANCH  18  19
ATOM     19  C   UNL     1       6.462  21.633   1.369  0.00  0.00    +0.119 C 
BRANCH  19  20
ATOM     20  N   UNL     1       7.314  20.522   0.850  0.00  0.00    -0.302 NA
ATOM     21  C   UNL     1       7.756  19.568   1.964  0.00  0.00    +0.066 C 
ATOM     22  C   UNL     1       8.628  18.399   1.401  0.00  0.00    -0.064 C 
ATOM     23  N   UNL     1       9.841  18.978   0.671  0.00  0.00    +0.379 N 
ATOM     24  C   UNL     1      10.693  17.880   0.190  0.00  0.00    -0.096 C 
ATOM     25  H   UNL     1      10.432  19.566   1.411  0.00  0.00    -0.082 HD
ATOM     26  C   UNL     1       9.411  19.929  -0.437  0.00  0.00    -0.064 C 
ATOM     27  C   UNL     1       8.521  21.070   0.129  0.00  0.00    +0.066 C 
ENDBRANCH  19  20
ENDBRANCH  18  19
ENDBRANCH  14  15
ENDBRANCH  12  13
TORSDOF 6
ENDMDL
MODEL 5
REMARK VINA RESULT:      -9.1      2.183     13.196
REMARK  Name = C:\Users\Docking\Desktop\test protocol\1iep_ligandH.pdb
REMARK  8 active torsions:
REMARK  status: ('A' for Active; 'I' for Inactive)
REMARK    1  A    between atoms: _5  and  _11
REMARK    2  A    between atoms: _19  and  _21
REMARK    3  A    between atoms: _22  and  _66
REMARK    4  A    between atoms: _27  and  _30
REMARK    5  A    between atoms: _32  and  _33
REMARK    6  A    between atoms: _38  and  _43
REMARK    7  A    between atoms: _43  and  _46
REMARK    8  A    between atoms: _53  and  _55
REMARK                            x       y       z     vdW  Elec       q    Type
REMARK                         _______ _______ _______ _____ _____    ______ ____
ROOT
ATOM     10  C   UNL     1       7.466  28.512  -2.658  0.00  0.00    +0.038 A 
ATOM     11  C   UNL     1       8.212  29.089  -3.717  0.00  0.00    +0.047 A 
ATOM     12  C   UNL     1       8.231  30.528  -3.928  0.00  0.00    +0.035 A 
ATOM     32  C   UNL     1       7.480  31.351  -3.038  0.00  0.00    +0.024 A 
ATOM     33  C   UNL     1       6.715  30.782  -1.957  0.00  0.00    +0.007 A 
ATOM     34  C   UNL     1       6.691  29.363  -1.746  0.00  0.00    -0.029 A 
ATOM     35  C   UNL     1       5.848  28.807  -0.575  0.00  0.00    +0.045 C 
ENDROOT
BRANCH  10   9
ATOM      4  C   UNL     1       5.784  24.123  -3.627  0.00  0.00    +0.077 A 
ATOM      5  C   UNL     1       4.768  24.640  -4.498  0.00  0.00    +0.048 A 
ATOM      6  C   UNL     1       4.707  26.042  -4.663  0.00  0.00    +0.116 A 
ATOM      7  N   UNL     1       5.601  26.856  -4.003  0.00  0.00    -0.223 NA
ATOM      8  C   UNL     1       6.568  26.325  -3.169  0.00  0.00    +0.220 A 
ATOM      9  N   UNL     1       7.483  27.125  -2.502  0.00  0.00    -0.283 N 
ATOM     36  H   UNL     1       8.177  26.695  -1.890  0.00  0.00    +0.155 HD
ATOM     37  N   UNL     1       6.646  24.990  -2.994  0.00  0.00    -0.214 NA
BRANCH   4   3
ATOM      1  C   UNL     1       6.091  20.249  -4.074  0.00  0.00    +0.020 A 
ATOM      2  C   UNL     1       5.895  21.645  -4.392  0.00  0.00    +0.013 A 
ATOM      3  C   UNL     1       5.978  22.664  -3.353  0.00  0.00    +0.019 A 
ATOM     38  C   UNL     1       6.263  22.234  -1.993  0.00  0.00    +0.120 A 
ATOM     39  N   UNL     1       6.446  20.883  -1.716  0.00  0.00    -0.263 NA
ATOM     40  C   UNL     1       6.367  19.893  -2.707  0.00  0.00    +0.111 A 
ENDBRANCH   4   3
ENDBRANCH  10   9
BRANCH  12  13
ATOM     13  N   UNL     1       8.964  31.170  -4.991  0.00  0.00    -0.281 N 
ATOM     14  C   UNL     1      10.294  31.557  -4.995  0.00  0.00    +0.248 C 
ATOM     30  O   UNL     1      11.004  31.602  -4.002  0.00  0.00    -0.270 OA
ATOM     31  H   UNL     1       8.438  31.363  -5.843  0.00  0.00    +0.155 HD
BRANCH  14  15
ATOM     15  C   UNL     1      10.923  31.966  -6.288  0.00  0.00    +0.037 A 
ATOM     16  C   UNL     1      10.989  33.373  -6.689  0.00  0.00    +0.013 A 
ATOM     17  C   UNL     1      11.585  33.739  -7.950  0.00  0.00    +0.005 A 
ATOM     18  C   UNL     1      12.122  32.694  -8.818  0.00  0.00    -0.033 A 
ATOM     28  C   UNL     1      12.048  31.306  -8.393  0.00  0.00    +0.005 A 
ATOM     29  C   UNL     1      11.464  30.944  -7.159  0.00  0.00    +0.013 A 
BRANCH  18  19
ATOM     19  C   UNL     1      12.757  32.990 -10.189  0.00  0.00    +0.119 C 
BRANCH  19  20
ATOM     20  N   UNL     1      12.805  34.417 -10.627  0.00  0.00    -0.302 NA
ATOM     21  C   UNL     1      11.993  34.654 -11.904  0.00  0.00    +0.066 C 
ATOM     22  C   UNL     1      12.035  36.156 -12.335  0.00  0.00    -0.064 C 
ATOM     23  N   UNL     1      13.489  36.588 -12.530  0.00  0.00    +0.379 N 
ATOM     24  C   UNL     1      13.529  37.983 -12.991  0.00  0.00    -0.096 C 
ATOM     25  H   UNL     1      13.925  35.952 -13.335  0.00  0.00    -0.082 HD
ATOM     26  C   UNL     1      14.304  36.353 -11.265  0.00  0.00    -0.064 C 
ATOM     27  C   UNL     1      14.232  34.863 -10.829  0.00  0.00    +0.066 C 
ENDBRANCH  19  20
ENDBRANCH  18  19
ENDBRANCH  14  15
ENDBRANCH  12  13
TORSDOF 6
ENDMDL
