MODEL 1
REMARK VINA RESULT:      -9.3      0.000      0.000
REMARK  Name = C:\Users\Docking\Desktop\test protocol\1iep_ligandH.pdb
REMARK  8 active torsions:
REMARK  status: ('A' for Active; 'I' for Inactive)
REMARK    1  A    between atoms: _5  and  _11
REMARK    2  A    between atoms: _19  and  _21
REMARK    3  A    between atoms: _22  and  _66
REMARK    4  A    between atoms: _27  and  _30
REMARK    5  A    between atoms: _32  and  _33
REMARK    6  A    between atoms: _38  and  _43
REMARK    7  A    between atoms: _43  and  _46
REMARK    8  A    between atoms: _53  and  _55
REMARK                            x       y       z     vdW  Elec       q    Type
REMARK                         _______ _______ _______ _____ _____    ______ ____
ROOT
ATOM     10  C   UNL     1       7.860  28.728  -2.892  0.00  0.00    +0.038 A 
ATOM     11  C   UNL     1       8.952  28.945  -3.770  0.00  0.00    +0.047 A 
ATOM     12  C   UNL     1       9.342  30.288  -4.170  0.00  0.00    +0.035 A 
ATOM     32  C   UNL     1       8.597  31.389  -3.655  0.00  0.00    +0.024 A 
ATOM     33  C   UNL     1       7.483  31.187  -2.762  0.00  0.00    +0.007 A 
ATOM     34  C   UNL     1       7.093  29.864  -2.366  0.00  0.00    -0.029 A 
ATOM     35  C   UNL     1       5.886  29.707  -1.412  0.00  0.00    +0.045 C 
ENDROOT
BRANCH  10   9
ATOM      4  C   UNL     1       5.476  24.625  -3.615  0.00  0.00    +0.077 A 
ATOM      5  C   UNL     1       4.812  25.147  -4.775  0.00  0.00    +0.048 A 
ATOM      6  C   UNL     1       5.106  26.477  -5.148  0.00  0.00    +0.116 A 
ATOM      7  N   UNL     1       6.000  27.222  -4.409  0.00  0.00    -0.223 NA
ATOM      8  C   UNL     1       6.621  26.689  -3.295  0.00  0.00    +0.220 A 
ATOM      9  N   UNL     1       7.529  27.417  -2.541  0.00  0.00    -0.283 N 
ATOM     36  H   UNL     1       7.961  26.991  -1.722  0.00  0.00    +0.155 HD
ATOM     37  N   UNL     1       6.356  25.421  -2.917  0.00  0.00    -0.214 NA
BRANCH   4   3
ATOM      1  C   UNL     1       5.079  20.740  -3.407  0.00  0.00    +0.020 A 
ATOM      2  C   UNL     1       5.280  22.060  -3.958  0.00  0.00    +0.013 A 
ATOM      3  C   UNL     1       5.272  23.236  -3.097  0.00  0.00    +0.019 A 
ATOM     38  C   UNL     1       5.057  23.039  -1.671  0.00  0.00    +0.120 A 
ATOM     39  N   UNL     1       4.865  21.756  -1.169  0.00  0.00    -0.263 NA
ATOM     40  C   UNL     1       4.869  20.617  -1.988  0.00  0.00    +0.111 A 
ENDBRANCH   4   3
ENDBRANCH  10   9
BRANCH  12  13
ATOM     13  N   UNL     1      10.437  30.569  -5.065  0.00  0.00    -0.281 N 
ATOM     14  C   UNL     1      11.793  30.424  -4.822  0.00  0.00    +0.248 C 
ATOM     30  O   UNL     1      12.281  30.232  -3.718  0.00  0.00    -0.270 OA
ATOM     31  H   UNL     1      10.182  30.917  -5.989  0.00  0.00    +0.155 HD
BRANCH  14  15
ATOM     15  C   UNL     1      12.746  30.521  -5.969  0.00  0.00    +0.037 A 
ATOM     16  C   UNL     1      14.194  30.419  -5.766  0.00  0.00    +0.013 A 
ATOM     17  C   UNL     1      15.092  30.533  -6.887  0.00  0.00    +0.005 A 
ATOM     18  C   UNL     1      14.544  30.749  -8.224  0.00  0.00    -0.033 A 
ATOM     28  C   UNL     1      13.104  30.841  -8.399  0.00  0.00    +0.005 A 
ATOM     29  C   UNL     1      12.221  30.731  -7.301  0.00  0.00    +0.013 A 
BRANCH  18  19
ATOM     19  C   UNL     1      15.428  30.903  -9.476  0.00  0.00    +0.119 C 
BRANCH  19  20
ATOM     20  N   UNL     1      15.094  32.014 -10.417  0.00  0.00    -0.302 NA
ATOM     21  C   UNL     1      15.892  31.922 -11.720  0.00  0.00    +0.066 C 
ATOM     22  C   UNL     1      15.514  33.079 -12.702  0.00  0.00    -0.064 C 
ATOM     23  N   UNL     1      15.751  34.425 -12.015  0.00  0.00    +0.379 N 
ATOM     24  C   UNL     1      15.451  35.515 -12.955  0.00  0.00    -0.096 C 
ATOM     25  H   UNL     1      16.834  34.487 -11.759  0.00  0.00    -0.082 HD
ATOM     26  C   UNL     1      14.963  34.523 -10.716  0.00  0.00    -0.064 C 
ATOM     27  C   UNL     1      15.325  33.353  -9.760  0.00  0.00    +0.066 C 
ENDBRANCH  19  20
ENDBRANCH  18  19
ENDBRANCH  14  15
ENDBRANCH  12  13
TORSDOF 6
ENDMDL
MODEL 2
REMARK VINA RESULT:      -9.3      2.508     13.009
REMARK  Name = C:\Users\Docking\Desktop\test protocol\1iep_ligandH.pdb
REMARK  8 active torsions:
REMARK  status: ('A' for Active; 'I' for Inactive)
REMARK    1  A    between atoms: _5  and  _11
REMARK    2  A    between atoms: _19  and  _21
REMARK    3  A    between atoms: _22  and  _66
REMARK    4  A    between atoms: _27  and  _30
REMARK    5  A    between atoms: _32  and  _33
REMARK    6  A    between atoms: _38  and  _43
REMARK    7  A    between atoms: _43  and  _46
REMARK    8  A    between atoms: _53  and  _55
REMARK                            x       y       z     vdW  Elec       q    Type
REMARK                         _______ _______ _______ _____ _____    ______ ____
ROOT
ATOM     10  C   UNL     1      12.893  31.157  -8.051  0.00  0.00    +0.038 A 
ATOM     11  C   UNL     1      11.732  30.448  -7.648  0.00  0.00    +0.047 A 
ATOM     12  C   UNL     1      11.621  29.885  -6.311  0.00  0.00    +0.035 A 
ATOM     32  C   UNL     1      12.711  30.063  -5.410  0.00  0.00    +0.024 A 
ATOM     33  C   UNL     1      13.899  30.780  -5.804  0.00  0.00    +0.007 A 
ATOM     34  C   UNL     1      14.015  31.336  -7.122  0.00  0.00    -0.029 A 
ATOM     35  C   UNL     1      15.314  32.088  -7.492  0.00  0.00    +0.045 C 
ENDROOT
BRANCH  10   9
ATOM      4  C   UNL     1      11.801  34.500 -11.317  0.00  0.00    +0.077 A 
ATOM      5  C   UNL     1      11.038  35.261 -10.370  0.00  0.00    +0.048 A 
ATOM      6  C   UNL     1      10.946  34.754  -9.054  0.00  0.00    +0.116 A 
ATOM      7  N   UNL     1      11.573  33.573  -8.722  0.00  0.00    -0.223 NA
ATOM      8  C   UNL     1      12.300  32.863  -9.660  0.00  0.00    +0.220 A 
ATOM      9  N   UNL     1      12.946  31.677  -9.346  0.00  0.00    -0.283 N 
ATOM     36  H   UNL     1      13.465  31.179 -10.069  0.00  0.00    +0.155 HD
ATOM     37  N   UNL     1      12.402  33.325 -10.924  0.00  0.00    -0.214 NA
BRANCH   4   3
ATOM      1  C   UNL     1      11.206  35.140 -15.130  0.00  0.00    +0.020 A 
ATOM      2  C   UNL     1      10.969  34.729 -13.765  0.00  0.00    +0.013 A 
ATOM      3  C   UNL     1      11.994  34.907 -12.745  0.00  0.00    +0.019 A 
ATOM     38  C   UNL     1      13.258  35.509 -13.141  0.00  0.00    +0.120 A 
ATOM     39  N   UNL     1      13.459  35.894 -14.463  0.00  0.00    -0.263 NA
ATOM     40  C   UNL     1      12.480  35.726 -15.454  0.00  0.00    +0.111 A 
ENDBRANCH   4   3
ENDBRANCH  10   9
BRANCH  12  13
ATOM     13  N   UNL     1      10.471  29.149  -5.848  0.00  0.00    -0.281 N 
ATOM     14  C   UNL     1       9.197  29.631  -5.594  0.00  0.00    +0.248 C 
ATOM     30  O   UNL     1       8.909  30.817  -5.522  0.00  0.00    -0.270 OA
ATOM     31  H   UNL     1      10.613  28.152  -5.688  0.00  0.00    +0.155 HD
BRANCH  14  15
ATOM     15  C   UNL     1       8.087  28.656  -5.373  0.00  0.00    +0.037 A 
ATOM     16  C   UNL     1       6.945  28.585  -6.288  0.00  0.00    +0.013 A 
ATOM     17  C   UNL     1       5.878  27.646  -6.042  0.00  0.00    +0.005 A 
ATOM     18  C   UNL     1       5.950  26.770  -4.876  0.00  0.00    -0.033 A 
ATOM     28  C   UNL     1       7.097  26.858  -3.987  0.00  0.00    +0.005 A 
ATOM     29  C   UNL     1       8.144  27.777  -4.224  0.00  0.00    +0.013 A 
BRANCH  18  19
ATOM     19  C   UNL     1       4.848  25.753  -4.524  0.00  0.00    +0.119 C 
BRANCH  19  20
ATOM     20  N   UNL     1       5.179  24.710  -3.508  0.00  0.00    -0.302 NA
ATOM     21  C   UNL     1       5.181  23.302  -4.110  0.00  0.00    +0.066 C 
ATOM     22  C   UNL     1       5.551  22.225  -3.039  0.00  0.00    -0.064 C 
ATOM     23  N   UNL     1       4.567  22.313  -1.870  0.00  0.00    +0.379 N 
ATOM     24  C   UNL     1       4.877  21.264  -0.888  0.00  0.00    -0.096 C 
ATOM     25  H   UNL     1       3.547  22.111  -2.272  0.00  0.00    -0.082 HD
ATOM     26  C   UNL     1       4.557  23.711  -1.268  0.00  0.00    -0.064 C 
ATOM     27  C   UNL     1       4.217  24.776  -2.347  0.00  0.00    +0.066 C 
ENDBRANCH  19  20
ENDBRANCH  18  19
ENDBRANCH  14  15
ENDBRANCH  12  13
TORSDOF 6
ENDMDL
MODEL 3
REMARK VINA RESULT:      -9.2      1.777      2.190
REMARK  Name = C:\Users\Docking\Desktop\test protocol\1iep_ligandH.pdb
REMARK  8 active torsions:
REMARK  status: ('A' for Active; 'I' for Inactive)
REMARK    1  A    between atoms: _5  and  _11
REMARK    2  A    between atoms: _19  and  _21
REMARK    3  A    between atoms: _22  and  _66
REMARK    4  A    between atoms: _27  and  _30
REMARK    5  A    between atoms: _32  and  _33
REMARK    6  A    between atoms: _38  and  _43
REMARK    7  A    between atoms: _43  and  _46
REMARK    8  A    between atoms: _53  and  _55
REMARK                            x       y       z     vdW  Elec       q    Type
REMARK                         _______ _______ _______ _____ _____    ______ ____
ROOT
ATOM     10  C   UNL     1       7.471  28.558  -2.709  0.00  0.00    +0.038 A 
ATOM     11  C   UNL     1       8.229  29.067  -3.794  0.00  0.00    +0.047 A 
ATOM     12  C   UNL     1       8.289  30.494  -4.067  0.00  0.00    +0.035 A 
ATOM     32  C   UNL     1       7.566  31.376  -3.212  0.00  0.00    +0.024 A 
ATOM     33  C   UNL     1       6.790  30.876  -2.104  0.00  0.00    +0.007 A 
ATOM     34  C   UNL     1       6.725  29.469  -1.832  0.00  0.00    -0.029 A 
ATOM     35  C   UNL     1       5.872  28.988  -0.635  0.00  0.00    +0.045 C 
ENDROOT
BRANCH  10   9
ATOM      4  C   UNL     1       5.752  24.163  -3.585  0.00  0.00    +0.077 A 
ATOM      5  C   UNL     1       4.797  24.662  -4.533  0.00  0.00    +0.048 A 
ATOM      6  C   UNL     1       4.777  26.056  -4.762  0.00  0.00    +0.116 A 
ATOM      7  N   UNL     1       5.650  26.881  -4.087  0.00  0.00    -0.223 NA
ATOM      8  C   UNL     1       6.557  26.368  -3.177  0.00  0.00    +0.220 A 
ATOM      9  N   UNL     1       7.450  27.178  -2.493  0.00  0.00    -0.283 N 
ATOM     36  H   UNL     1       8.098  26.762  -1.824  0.00  0.00    +0.155 HD
ATOM     37  N   UNL     1       6.595  25.040  -2.940  0.00  0.00    -0.214 NA
BRANCH   4   3
ATOM      1  C   UNL     1       5.600  20.257  -3.726  0.00  0.00    +0.020 A 
ATOM      2  C   UNL     1       5.434  21.641  -4.108  0.00  0.00    +0.013 A 
ATOM      3  C   UNL     1       5.898  22.714  -3.238  0.00  0.00    +0.019 A 
ATOM     38  C   UNL     1       6.531  22.351  -1.979  0.00  0.00    +0.120 A 
ATOM     39  N   UNL     1       6.675  21.010  -1.637  0.00  0.00    -0.263 NA
ATOM     40  C   UNL     1       6.231  19.969  -2.465  0.00  0.00    +0.111 A 
ENDBRANCH   4   3
ENDBRANCH  10   9
BRANCH  12  13
ATOM     13  N   UNL     1       9.035  31.068  -5.159  0.00  0.00    -0.281 N 
ATOM     14  C   UNL     1      10.313  31.600  -5.131  0.00  0.00    +0.248 C 
ATOM     30  O   UNL     1      10.932  31.858  -4.109  0.00  0.00    -0.270 OA
ATOM     31  H   UNL     1       8.563  31.084  -6.064  0.00  0.00    +0.155 HD
BRANCH  14  15
ATOM     15  C   UNL     1      10.999  31.902  -6.424  0.00  0.00    +0.037 A 
ATOM     16  C   UNL     1      11.514  30.830  -7.280  0.00  0.00    +0.013 A 
ATOM     17  C   UNL     1      12.186  31.150  -8.514  0.00  0.00    +0.005 A 
ATOM     18  C   UNL     1      12.346  32.549  -8.901  0.00  0.00    -0.033 A 
ATOM     28  C   UNL     1      11.821  33.593  -8.035  0.00  0.00    +0.005 A 
ATOM     29  C   UNL     1      11.163  33.283  -6.824  0.00  0.00    +0.013 A 
BRANCH  18  19
ATOM     19  C   UNL     1      13.069  32.984 -10.190  0.00  0.00    +0.119 C 
BRANCH  19  20
ATOM     20  N   UNL     1      13.109  34.446 -10.491  0.00  0.00    -0.302 NA
ATOM     21  C   UNL     1      12.073  34.844 -11.546  0.00  0.00    +0.066 C 
ATOM     22  C   UNL     1      12.114  36.380 -11.833  0.00  0.00    -0.064 C 
ATOM     23  N   UNL     1      13.522  36.775 -12.281  0.00  0.00    +0.379 N 
ATOM     24  C   UNL     1      13.549  38.208 -12.608  0.00  0.00    -0.096 C 
ATOM     25  H   UNL     1      13.750  36.211 -13.215  0.00  0.00    -0.082 HD
ATOM     26  C   UNL     1      14.559  36.380 -11.239  0.00  0.00    -0.064 C 
ATOM     27  C   UNL     1      14.490  34.857 -10.940  0.00  0.00    +0.066 C 
ENDBRANCH  19  20
ENDBRANCH  18  19
ENDBRANCH  14  15
ENDBRANCH  12  13
TORSDOF 6
ENDMDL
MODEL 4
REMARK VINA RESULT:      -9.2      2.779     13.272
REMARK  Name = C:\Users\Docking\Desktop\test protocol\1iep_ligandH.pdb
REMARK  8 active torsions:
REMARK  status: ('A' for Active; 'I' for Inactive)
REMARK    1  A    between atoms: _5  and  _11
REMARK    2  A    between atoms: _19  and  _21
REMARK    3  A    between atoms: _22  and  _66
REMARK    4  A    between atoms: _27  and  _30
REMARK    5  A    between atoms: _32  and  _33
REMARK    6  A    between atoms: _38  and  _43
REMARK    7  A    between atoms: _43  and  _46
REMARK    8  A    between atoms: _53  and  _55
REMARK                            x       y       z     vdW  Elec       q    Type
REMARK                         _______ _______ _______ _____ _____    ______ ____
ROOT
ATOM     10  C   UNL     1       7.594  30.007  -4.481  0.00  0.00    +0.038 A 
ATOM     11  C   UNL     1       7.484  28.827  -3.703  0.00  0.00    +0.047 A 
ATOM     12  C   UNL     1       6.503  28.718  -2.635  0.00  0.00    +0.035 A 
ATOM     32  C   UNL     1       5.647  29.831  -2.388  0.00  0.00    +0.024 A 
ATOM     33  C   UNL     1       5.746  31.039  -3.168  0.00  0.00    +0.007 A 
ATOM     34  C   UNL     1       6.714  31.153  -4.222  0.00  0.00    -0.029 A 
ATOM     35  C   UNL     1       6.780  32.475  -5.022  0.00  0.00    +0.045 C 
ENDROOT
BRANCH  10   9
ATOM      4  C   UNL     1      12.082  30.719  -6.029  0.00  0.00    +0.077 A 
ATOM      5  C   UNL     1      12.547  31.046  -4.712  0.00  0.00    +0.048 A 
ATOM      6  C   UNL     1      11.598  31.026  -3.665  0.00  0.00    +0.116 A 
ATOM      7  N   UNL     1      10.285  30.702  -3.927  0.00  0.00    -0.223 NA
ATOM      8  C   UNL     1       9.869  30.394  -5.209  0.00  0.00    +0.220 A 
ATOM      9  N   UNL     1       8.554  30.057  -5.494  0.00  0.00    -0.283 N 
ATOM     36  H   UNL     1       8.286  29.843  -6.454  0.00  0.00    +0.155 HD
ATOM     37  N   UNL     1      10.755  30.407  -6.226  0.00  0.00    -0.214 NA
BRANCH   4   3
ATOM      1  C   UNL     1      15.191  30.356  -8.374  0.00  0.00    +0.020 A 
ATOM      2  C   UNL     1      14.383  30.367  -7.176  0.00  0.00    +0.013 A 
ATOM      3  C   UNL     1      12.964  30.694  -7.238  0.00  0.00    +0.019 A 
ATOM     38  C   UNL     1      12.388  31.006  -8.537  0.00  0.00    +0.120 A 
ATOM     39  N   UNL     1      13.191  30.988  -9.674  0.00  0.00    -0.263 NA
ATOM     40  C   UNL     1      14.559  30.677  -9.626  0.00  0.00    +0.111 A 
ENDBRANCH   4   3
ENDBRANCH  10   9
BRANCH  12  13
ATOM     13  N   UNL     1       6.350  27.548  -1.806  0.00  0.00    -0.281 N 
ATOM     14  C   UNL     1       5.846  26.309  -2.167  0.00  0.00    +0.248 C 
ATOM     30  O   UNL     1       5.247  26.083  -3.208  0.00  0.00    -0.270 OA
ATOM     31  H   UNL     1       6.651  27.644  -0.836  0.00  0.00    +0.155 HD
BRANCH  14  15
ATOM     15  C   UNL     1       6.018  25.158  -1.229  0.00  0.00    +0.037 A 
ATOM     16  C   UNL     1       7.063  25.164  -0.203  0.00  0.00    +0.013 A 
ATOM     17  C   UNL     1       7.219  24.034   0.678  0.00  0.00    +0.005 A 
ATOM     18  C   UNL     1       6.324  22.888   0.537  0.00  0.00    -0.033 A 
ATOM     28  C   UNL     1       5.292  22.910  -0.487  0.00  0.00    +0.005 A 
ATOM     29  C   UNL     1       5.138  24.016  -1.352  0.00  0.00    +0.013 A 
BRANCH  18  19
ATOM     19  C   UNL     1       6.431  21.630   1.419  0.00  0.00    +0.119 C 
BRANCH  19  20
ATOM     20  N   UNL     1       5.351  20.607   1.284  0.00  0.00    -0.302 NA
ATOM     21  C   UNL     1       4.785  20.187   2.644  0.00  0.00    +0.066 C 
ATOM     22  C   UNL     1       3.641  19.133   2.483  0.00  0.00    -0.064 C 
ATOM     23  N   UNL     1       4.174  17.919   1.720  0.00  0.00    +0.379 N 
ATOM     24  C   UNL     1       3.118  16.901   1.618  0.00  0.00    -0.096 C 
ATOM     25  H   UNL     1       5.008  17.483   2.319  0.00  0.00    -0.082 HD
ATOM     26  C   UNL     1       4.743  18.327   0.368  0.00  0.00    -0.064 C 
ATOM     27  C   UNL     1       5.858  19.397   0.538  0.00  0.00    +0.066 C 
ENDBRANCH  19  20
ENDBRANCH  18  19
ENDBRANCH  14  15
ENDBRANCH  12  13
TORSDOF 6
ENDMDL
MODEL 5
REMARK VINA RESULT:      -9.2      1.586      1.810
REMARK  Name = C:\Users\Docking\Desktop\test protocol\1iep_ligandH.pdb
REMARK  8 active torsions:
REMARK  status: ('A' for Active; 'I' for Inactive)
REMARK    1  A    between atoms: _5  and  _11
REMARK    2  A    between atoms: _19  and  _21
REMARK    3  A    between atoms: _22  and  _66
REMARK    4  A    between atoms: _27  and  _30
REMARK    5  A    between atoms: _32  and  _33
REMARK    6  A    between atoms: _38  and  _43
REMARK    7  A    between atoms: _43  and  _46
REMARK    8  A    between atoms: _53  and  _55
REMARK                            x       y       z     vdW  Elec       q    Type
REMARK                         _______ _______ _______ _____ _____    ______ ____
ROOT
ATOM     10  C   UNL     1       7.784  29.695  -3.213  0.00  0.00    +0.038 A 
ATOM     11  C   UNL     1       9.024  29.757  -3.898  0.00  0.00    +0.047 A 
ATOM     12  C   UNL     1       9.323  30.845  -4.816  0.00  0.00    +0.035 A 
ATOM     32  C   UNL     1       8.336  31.855  -5.011  0.00  0.00    +0.024 A 
ATOM     33  C   UNL     1       7.070  31.807  -4.324  0.00  0.00    +0.007 A 
ATOM     34  C   UNL     1       6.768  30.735  -3.419  0.00  0.00    -0.029 A 
ATOM     35  C   UNL     1       5.392  30.731  -2.714  0.00  0.00    +0.045 C 
ENDROOT
BRANCH  10   9
ATOM      4  C   UNL     1       5.995  25.352  -2.226  0.00  0.00    +0.077 A 
ATOM      5  C   UNL     1       5.458  25.208  -3.548  0.00  0.00    +0.048 A 
ATOM      6  C   UNL     1       5.658  26.277  -4.450  0.00  0.00    +0.116 A 
ATOM      7  N   UNL     1       6.345  27.402  -4.049  0.00  0.00    -0.223 NA
ATOM      8  C   UNL     1       6.849  27.509  -2.765  0.00  0.00    +0.220 A 
ATOM      9  N   UNL     1       7.550  28.628  -2.342  0.00  0.00    -0.283 N 
ATOM     36  H   UNL     1       7.899  28.672  -1.385  0.00  0.00    +0.155 HD
ATOM     37  N   UNL     1       6.670  26.503  -1.885  0.00  0.00    -0.214 NA
BRANCH   4   3
ATOM      1  C   UNL     1       4.835  22.225  -0.182  0.00  0.00    +0.020 A 
ATOM      2  C   UNL     1       4.916  23.207  -1.238  0.00  0.00    +0.013 A 
ATOM      3  C   UNL     1       5.869  24.307  -1.161  0.00  0.00    +0.019 A 
ATOM     38  C   UNL     1       6.733  24.384   0.008  0.00  0.00    +0.120 A 
ATOM     39  N   UNL     1       6.632  23.424   1.010  0.00  0.00    -0.263 NA
ATOM     40  C   UNL     1       5.717  22.362   0.947  0.00  0.00    +0.111 A 
ENDBRANCH   4   3
ENDBRANCH  10   9
BRANCH  12  13
ATOM     13  N   UNL     1      10.562  30.957  -5.546  0.00  0.00    -0.281 N 
ATOM     14  C   UNL     1      10.998  30.181  -6.608  0.00  0.00    +0.248 C 
ATOM     30  O   UNL     1      10.478  29.130  -6.955  0.00  0.00    -0.270 OA
ATOM     31  H   UNL     1      11.194  31.697  -5.243  0.00  0.00    +0.155 HD
BRANCH  14  15
ATOM     15  C   UNL     1      12.191  30.629  -7.387  0.00  0.00    +0.037 A 
ATOM     16  C   UNL     1      13.530  30.636  -6.791  0.00  0.00    +0.013 A 
ATOM     17  C   UNL     1      14.661  31.090  -7.560  0.00  0.00    +0.005 A 
ATOM     18  C   UNL     1      14.459  31.539  -8.935  0.00  0.00    -0.033 A 
ATOM     28  C   UNL     1      13.122  31.516  -9.504  0.00  0.00    +0.005 A 
ATOM     29  C   UNL     1      12.010  31.073  -8.753  0.00  0.00    +0.013 A 
BRANCH  18  19
ATOM     19  C   UNL     1      15.606  32.059  -9.822  0.00  0.00    +0.119 C 
BRANCH  19  20
ATOM     20  N   UNL     1      15.258  33.067 -10.868  0.00  0.00    -0.302 NA
ATOM     21  C   UNL     1      16.322  33.145 -11.967  0.00  0.00    +0.066 C 
ATOM     22  C   UNL     1      15.931  34.188 -13.064  0.00  0.00    -0.064 C 
ATOM     23  N   UNL     1      15.724  35.556 -12.413  0.00  0.00    +0.379 N 
ATOM     24  C   UNL     1      15.414  36.551 -13.450  0.00  0.00    -0.096 C 
ATOM     25  H   UNL     1      16.688  35.853 -11.937  0.00  0.00    -0.082 HD
ATOM     26  C   UNL     1      14.670  35.487 -11.317  0.00  0.00    -0.064 C 
ATOM     27  C   UNL     1      15.054  34.427 -10.247  0.00  0.00    +0.066 C 
ENDBRANCH  19  20
ENDBRANCH  18  19
ENDBRANCH  14  15
ENDBRANCH  12  13
TORSDOF 6
ENDMDL
