MODEL 1
REMARK VINA RESULT:      -8.9      0.000      0.000
REMARK  Name = C:\Users\Docking\Desktop\test protocol\1iep_ligandH.pdb
REMARK  8 active torsions:
REMARK  status: ('A' for Active; 'I' for Inactive)
REMARK    1  A    between atoms: _5  and  _11
REMARK    2  A    between atoms: _19  and  _21
REMARK    3  A    between atoms: _22  and  _66
REMARK    4  A    between atoms: _27  and  _30
REMARK    5  A    between atoms: _32  and  _33
REMARK    6  A    between atoms: _38  and  _43
REMARK    7  A    between atoms: _43  and  _46
REMARK    8  A    between atoms: _53  and  _55
REMARK                            x       y       z     vdW  Elec       q    Type
REMARK                         _______ _______ _______ _____ _____    ______ ____
ROOT
ATOM     10  C   UNL     1      38.983  17.960  10.039  0.00  0.00    +0.038 A 
ATOM     11  C   UNL     1      38.670  16.616   9.711  0.00  0.00    +0.047 A 
ATOM     12  C   UNL     1      39.421  15.894   8.696  0.00  0.00    +0.035 A 
ATOM     32  C   UNL     1      40.487  16.572   8.035  0.00  0.00    +0.024 A 
ATOM     33  C   UNL     1      40.818  17.938   8.355  0.00  0.00    +0.007 A 
ATOM     34  C   UNL     1      40.079  18.656   9.354  0.00  0.00    -0.029 A 
ATOM     35  C   UNL     1      40.474  20.121   9.652  0.00  0.00    +0.045 C 
ENDROOT
BRANCH  10   9
ATOM      4  C   UNL     1      34.906  19.924  11.638  0.00  0.00    +0.077 A 
ATOM      5  C   UNL     1      34.228  19.668  10.400  0.00  0.00    +0.048 A 
ATOM      6  C   UNL     1      34.966  19.036   9.374  0.00  0.00    +0.116 A 
ATOM      7  N   UNL     1      36.284  18.689   9.583  0.00  0.00    -0.223 NA
ATOM      8  C   UNL     1      36.908  18.952  10.788  0.00  0.00    +0.220 A 
ATOM      9  N   UNL     1      38.230  18.605  11.022  0.00  0.00    -0.283 N 
ATOM     36  H   UNL     1      38.656  18.822  11.923  0.00  0.00    +0.155 HD
ATOM     37  N   UNL     1      36.225  19.556  11.783  0.00  0.00    -0.214 NA
BRANCH   4   3
ATOM      1  C   UNL     1      34.348  21.851  14.995  0.00  0.00    +0.020 A 
ATOM      2  C   UNL     1      35.021  21.230  13.878  0.00  0.00    +0.013 A 
ATOM      3  C   UNL     1      34.260  20.582  12.817  0.00  0.00    +0.019 A 
ATOM     38  C   UNL     1      32.808  20.582  12.917  0.00  0.00    +0.120 A 
ATOM     39  N   UNL     1      32.188  21.187  14.005  0.00  0.00    -0.263 NA
ATOM     40  C   UNL     1      32.909  21.812  15.033  0.00  0.00    +0.111 A 
ENDBRANCH   4   3
ENDBRANCH  10   9
BRANCH  12  13
ATOM     13  N   UNL     1      39.144  14.532   8.315  0.00  0.00    -0.281 N 
ATOM     14  C   UNL     1      38.561  14.076   7.144  0.00  0.00    +0.248 C 
ATOM     30  O   UNL     1      37.991  14.791   6.332  0.00  0.00    -0.270 OA
ATOM     31  H   UNL     1      39.409  13.815   8.991  0.00  0.00    +0.155 HD
BRANCH  14  15
ATOM     15  C   UNL     1      38.604  12.614   6.837  0.00  0.00    +0.037 A 
ATOM     16  C   UNL     1      39.670  12.042   6.011  0.00  0.00    +0.013 A 
ATOM     17  C   UNL     1      39.678  10.631   5.716  0.00  0.00    +0.005 A 
ATOM     18  C   UNL     1      38.616   9.782   6.249  0.00  0.00    -0.033 A 
ATOM     28  C   UNL     1      37.573  10.375   7.070  0.00  0.00    +0.005 A 
ATOM     29  C   UNL     1      37.561  11.757   7.361  0.00  0.00    +0.013 A 
BRANCH  18  19
ATOM     19  C   UNL     1      38.534   8.270   5.968  0.00  0.00    +0.119 C 
BRANCH  19  20
ATOM     20  N   UNL     1      38.304   7.849   4.554  0.00  0.00    -0.302 NA
ATOM     21  C   UNL     1      39.615   7.720   3.773  0.00  0.00    +0.066 C 
ATOM     22  C   UNL     1      39.358   7.257   2.302  0.00  0.00    -0.064 C 
ATOM     23  N   UNL     1      38.415   8.246   1.616  0.00  0.00    +0.379 N 
ATOM     24  C   UNL     1      38.218   7.846   0.215  0.00  0.00    -0.096 C 
ATOM     25  H   UNL     1      38.913   9.244   1.616  0.00  0.00    -0.082 HD
ATOM     26  C   UNL     1      37.110   8.383   2.387  0.00  0.00    -0.064 C 
ATOM     27  C   UNL     1      37.378   8.815   3.856  0.00  0.00    +0.066 C 
ENDBRANCH  19  20
ENDBRANCH  18  19
ENDBRANCH  14  15
ENDBRANCH  12  13
TORSDOF 6
ENDMDL
MODEL 2
REMARK VINA RESULT:      -8.8     17.883     20.749
REMARK  Name = C:\Users\Docking\Desktop\test protocol\1iep_ligandH.pdb
REMARK  8 active torsions:
REMARK  status: ('A' for Active; 'I' for Inactive)
REMARK    1  A    between atoms: _5  and  _11
REMARK    2  A    between atoms: _19  and  _21
REMARK    3  A    between atoms: _22  and  _66
REMARK    4  A    between atoms: _27  and  _30
REMARK    5  A    between atoms: _32  and  _33
REMARK    6  A    between atoms: _38  and  _43
REMARK    7  A    between atoms: _43  and  _46
REMARK    8  A    between atoms: _53  and  _55
REMARK                            x       y       z     vdW  Elec       q    Type
REMARK                         _______ _______ _______ _____ _____    ______ ____
ROOT
ATOM     10  C   UNL     1      22.128  11.716   6.167  0.00  0.00    +0.038 A 
ATOM     11  C   UNL     1      21.922  10.705   7.139  0.00  0.00    +0.047 A 
ATOM     12  C   UNL     1      21.156  10.967   8.348  0.00  0.00    +0.035 A 
ATOM     32  C   UNL     1      20.612  12.271   8.532  0.00  0.00    +0.024 A 
ATOM     33  C   UNL     1      20.813  13.312   7.555  0.00  0.00    +0.007 A 
ATOM     34  C   UNL     1      21.569  13.060   6.362  0.00  0.00    -0.029 A 
ATOM     35  C   UNL     1      21.758  14.215   5.351  0.00  0.00    +0.045 C 
ENDROOT
BRANCH  10   9
ATOM      4  C   UNL     1      22.492  10.847   1.461  0.00  0.00    +0.077 A 
ATOM      5  C   UNL     1      21.079  10.990   1.265  0.00  0.00    +0.048 A 
ATOM      6  C   UNL     1      20.292  11.281   2.402  0.00  0.00    +0.116 A 
ATOM      7  N   UNL     1      20.886  11.416   3.638  0.00  0.00    -0.223 NA
ATOM      8  C   UNL     1      22.252  11.270   3.793  0.00  0.00    +0.220 A 
ATOM      9  N   UNL     1      22.872  11.409   5.025  0.00  0.00    -0.283 N 
ATOM     36  H   UNL     1      23.881  11.286   5.099  0.00  0.00    +0.155 HD
ATOM     37  N   UNL     1      23.025  10.991   2.722  0.00  0.00    -0.214 NA
BRANCH   4   3
ATOM      1  C   UNL     1      24.111   9.377  -1.783  0.00  0.00    +0.020 A 
ATOM      2  C   UNL     1      23.144   9.636  -0.741  0.00  0.00    +0.013 A 
ATOM      3  C   UNL     1      23.457  10.543   0.356  0.00  0.00    +0.019 A 
ATOM     38  C   UNL     1      24.766  11.178   0.369  0.00  0.00    +0.120 A 
ATOM     39  N   UNL     1      25.677  10.908  -0.647  0.00  0.00    -0.263 NA
ATOM     40  C   UNL     1      25.388  10.036  -1.707  0.00  0.00    +0.111 A 
ENDBRANCH   4   3
ENDBRANCH  10   9
BRANCH  12  13
ATOM     13  N   UNL     1      20.921   9.982   9.374  0.00  0.00    -0.281 N 
ATOM     14  C   UNL     1      20.017  10.043  10.422  0.00  0.00    +0.248 C 
ATOM     30  O   UNL     1      19.420  11.054  10.762  0.00  0.00    -0.270 OA
ATOM     31  H   UNL     1      21.490   9.137   9.321  0.00  0.00    +0.155 HD
BRANCH  14  15
ATOM     15  C   UNL     1      19.749   8.806  11.217  0.00  0.00    +0.037 A 
ATOM     16  C   UNL     1      20.486   7.565  10.964  0.00  0.00    +0.013 A 
ATOM     17  C   UNL     1      20.195   6.381  11.733  0.00  0.00    +0.005 A 
ATOM     18  C   UNL     1      19.162   6.434  12.765  0.00  0.00    -0.033 A 
ATOM     28  C   UNL     1      18.450   7.679  12.999  0.00  0.00    +0.005 A 
ATOM     29  C   UNL     1      18.732   8.841  12.246  0.00  0.00    +0.013 A 
BRANCH  18  19
ATOM     19  C   UNL     1      18.771   5.214  13.620  0.00  0.00    +0.119 C 
BRANCH  19  20
ATOM     20  N   UNL     1      17.513   4.497  13.254  0.00  0.00    -0.302 NA
ATOM     21  C   UNL     1      16.625   4.237  14.474  0.00  0.00    +0.066 C 
ATOM     22  C   UNL     1      15.303   3.507  14.070  0.00  0.00    -0.064 C 
ATOM     23  N   UNL     1      15.644   2.196  13.359  0.00  0.00    +0.379 N 
ATOM     24  C   UNL     1      14.404   1.480  13.029  0.00  0.00    -0.096 C 
ATOM     25  H   UNL     1      16.220   1.564  14.074  0.00  0.00    -0.082 HD
ATOM     26  C   UNL     1      16.530   2.446  12.146  0.00  0.00    -0.064 C 
ATOM     27  C   UNL     1      17.827   3.198  12.555  0.00  0.00    +0.066 C 
ENDBRANCH  19  20
ENDBRANCH  18  19
ENDBRANCH  14  15
ENDBRANCH  12  13
TORSDOF 6
ENDMDL
MODEL 3
REMARK VINA RESULT:      -8.7      2.634     12.964
REMARK  Name = C:\Users\Docking\Desktop\test protocol\1iep_ligandH.pdb
REMARK  8 active torsions:
REMARK  status: ('A' for Active; 'I' for Inactive)
REMARK    1  A    between atoms: _5  and  _11
REMARK    2  A    between atoms: _19  and  _21
REMARK    3  A    between atoms: _22  and  _66
REMARK    4  A    between atoms: _27  and  _30
REMARK    5  A    between atoms: _32  and  _33
REMARK    6  A    between atoms: _38  and  _43
REMARK    7  A    between atoms: _43  and  _46
REMARK    8  A    between atoms: _53  and  _55
REMARK                            x       y       z     vdW  Elec       q    Type
REMARK                         _______ _______ _______ _____ _____    ______ ____
ROOT
ATOM     10  C   UNL     1      37.994   9.833   4.527  0.00  0.00    +0.038 A 
ATOM     11  C   UNL     1      37.717  11.040   5.217  0.00  0.00    +0.047 A 
ATOM     12  C   UNL     1      38.681  11.617   6.141  0.00  0.00    +0.035 A 
ATOM     32  C   UNL     1      39.919  10.938   6.337  0.00  0.00    +0.024 A 
ATOM     33  C   UNL     1      40.217   9.709   5.644  0.00  0.00    +0.007 A 
ATOM     34  C   UNL     1      39.269   9.134   4.733  0.00  0.00    -0.029 A 
ATOM     35  C   UNL     1      39.639   7.811   4.022  0.00  0.00    +0.045 C 
ENDROOT
BRANCH  10   9
ATOM      4  C   UNL     1      35.929   9.561   0.202  0.00  0.00    +0.077 A 
ATOM      5  C   UNL     1      36.825  10.535  -0.352  0.00  0.00    +0.048 A 
ATOM      6  C   UNL     1      37.798  11.087   0.511  0.00  0.00    +0.116 A 
ATOM      7  N   UNL     1      37.862  10.687   1.828  0.00  0.00    -0.223 NA
ATOM      8  C   UNL     1      36.982   9.747   2.331  0.00  0.00    +0.220 A 
ATOM      9  N   UNL     1      37.033   9.324   3.651  0.00  0.00    -0.283 N 
ATOM     36  H   UNL     1      36.361   8.633   3.985  0.00  0.00    +0.155 HD
ATOM     37  N   UNL     1      36.042   9.206   1.528  0.00  0.00    -0.214 NA
BRANCH   4   3
ATOM      1  C   UNL     1      32.931   7.262  -0.811  0.00  0.00    +0.020 A 
ATOM      2  C   UNL     1      33.958   7.885  -0.008  0.00  0.00    +0.013 A 
ATOM      3  C   UNL     1      34.849   8.885  -0.584  0.00  0.00    +0.019 A 
ATOM     38  C   UNL     1      34.672   9.235  -1.985  0.00  0.00    +0.120 A 
ATOM     39  N   UNL     1      33.675   8.617  -2.733  0.00  0.00    -0.263 NA
ATOM     40  C   UNL     1      32.813   7.653  -2.191  0.00  0.00    +0.111 A 
ENDBRANCH   4   3
ENDBRANCH  10   9
BRANCH  12  13
ATOM     13  N   UNL     1      38.452  12.836   6.877  0.00  0.00    -0.281 N 
ATOM     14  C   UNL     1      39.216  13.991   6.869  0.00  0.00    +0.248 C 
ATOM     30  O   UNL     1      40.337  14.076   6.389  0.00  0.00    -0.270 OA
ATOM     31  H   UNL     1      37.626  12.848   7.475  0.00  0.00    +0.155 HD
BRANCH  14  15
ATOM     15  C   UNL     1      38.661  15.228   7.498  0.00  0.00    +0.037 A 
ATOM     16  C   UNL     1      37.648  16.038   6.817  0.00  0.00    +0.013 A 
ATOM     17  C   UNL     1      37.142  17.236   7.438  0.00  0.00    +0.005 A 
ATOM     18  C   UNL     1      37.647  17.630   8.751  0.00  0.00    -0.033 A 
ATOM     28  C   UNL     1      38.648  16.805   9.407  0.00  0.00    +0.005 A 
ATOM     29  C   UNL     1      39.147  15.631   8.801  0.00  0.00    +0.013 A 
BRANCH  18  19
ATOM     19  C   UNL     1      37.179  18.904   9.480  0.00  0.00    +0.119 C 
BRANCH  19  20
ATOM     20  N   UNL     1      35.883  18.832  10.219  0.00  0.00    -0.302 NA
ATOM     21  C   UNL     1      35.118  20.157  10.167  0.00  0.00    +0.066 C 
ATOM     22  C   UNL     1      33.754  20.057  10.926  0.00  0.00    -0.064 C 
ATOM     23  N   UNL     1      34.009  19.635  12.374  0.00  0.00    +0.379 N 
ATOM     24  C   UNL     1      32.734  19.596  13.105  0.00  0.00    -0.096 C 
ATOM     25  H   UNL     1      34.647  20.417  12.846  0.00  0.00    -0.082 HD
ATOM     26  C   UNL     1      34.772  18.319  12.434  0.00  0.00    -0.064 C 
ATOM     27  C   UNL     1      36.112  18.420  11.652  0.00  0.00    +0.066 C 
ENDBRANCH  19  20
ENDBRANCH  18  19
ENDBRANCH  14  15
ENDBRANCH  12  13
TORSDOF 6
ENDMDL
MODEL 4
REMARK VINA RESULT:      -8.6     18.861     21.099
REMARK  Name = C:\Users\Docking\Desktop\test protocol\1iep_ligandH.pdb
REMARK  8 active torsions:
REMARK  status: ('A' for Active; 'I' for Inactive)
REMARK    1  A    between atoms: _5  and  _11
REMARK    2  A    between atoms: _19  and  _21
REMARK    3  A    between atoms: _22  and  _66
REMARK    4  A    between atoms: _27  and  _30
REMARK    5  A    between atoms: _32  and  _33
REMARK    6  A    between atoms: _38  and  _43
REMARK    7  A    between atoms: _43  and  _46
REMARK    8  A    between atoms: _53  and  _55
REMARK                            x       y       z     vdW  Elec       q    Type
REMARK                         _______ _______ _______ _____ _____    ______ ____
ROOT
ATOM     10  C   UNL     1      17.878   8.674  10.890  0.00  0.00    +0.038 A 
ATOM     11  C   UNL     1      18.486   8.690   9.608  0.00  0.00    +0.047 A 
ATOM     12  C   UNL     1      19.329   9.799   9.189  0.00  0.00    +0.035 A 
ATOM     32  C   UNL     1      19.536  10.873  10.103  0.00  0.00    +0.024 A 
ATOM     33  C   UNL     1      18.925  10.873  11.409  0.00  0.00    +0.007 A 
ATOM     34  C   UNL     1      18.090   9.784  11.827  0.00  0.00    -0.029 A 
ATOM     35  C   UNL     1      17.456   9.840  13.236  0.00  0.00    +0.045 C 
ENDROOT
BRANCH  10   9
ATOM      4  C   UNL     1      17.303   4.181  12.478  0.00  0.00    +0.077 A 
ATOM      5  C   UNL     1      18.719   3.978  12.595  0.00  0.00    +0.048 A 
ATOM      6  C   UNL     1      19.560   5.053  12.229  0.00  0.00    +0.116 A 
ATOM      7  N   UNL     1      19.016   6.237  11.782  0.00  0.00    -0.223 NA
ATOM      8  C   UNL     1      17.647   6.399  11.680  0.00  0.00    +0.220 A 
ATOM      9  N   UNL     1      17.078   7.584  11.240  0.00  0.00    -0.283 N 
ATOM     36  H   UNL     1      16.063   7.661  11.171  0.00  0.00    +0.155 HD
ATOM     37  N   UNL     1      16.822   5.388  12.021  0.00  0.00    -0.214 NA
BRANCH   4   3
ATOM      1  C   UNL     1      14.996   1.025  12.357  0.00  0.00    +0.020 A 
ATOM      2  C   UNL     1      15.989   2.000  11.972  0.00  0.00    +0.013 A 
ATOM      3  C   UNL     1      16.284   3.142  12.829  0.00  0.00    +0.019 A 
ATOM     38  C   UNL     1      15.551   3.267  14.080  0.00  0.00    +0.120 A 
ATOM     39  N   UNL     1      14.599   2.313  14.424  0.00  0.00    -0.263 NA
ATOM     40  C   UNL     1      14.306   1.211  13.607  0.00  0.00    +0.111 A 
ENDBRANCH   4   3
ENDBRANCH  10   9
BRANCH  12  13
ATOM     13  N   UNL     1      19.966   9.874   7.898  0.00  0.00    -0.281 N 
ATOM     14  C   UNL     1      19.368  10.076   6.664  0.00  0.00    +0.248 C 
ATOM     30  O   UNL     1      18.165  10.009   6.460  0.00  0.00    -0.270 OA
ATOM     31  H   UNL     1      20.980   9.765   7.892  0.00  0.00    +0.155 HD
BRANCH  14  15
ATOM     15  C   UNL     1      20.233  10.382   5.484  0.00  0.00    +0.037 A 
ATOM     16  C   UNL     1      19.687  11.034   4.291  0.00  0.00    +0.013 A 
ATOM     17  C   UNL     1      20.539  11.303   3.160  0.00  0.00    +0.005 A 
ATOM     18  C   UNL     1      21.948  10.920   3.218  0.00  0.00    -0.033 A 
ATOM     28  C   UNL     1      22.465  10.280   4.416  0.00  0.00    +0.005 A 
ATOM     29  C   UNL     1      21.632  10.014   5.526  0.00  0.00    +0.013 A 
BRANCH  18  19
ATOM     19  C   UNL     1      22.926  11.149   2.050  0.00  0.00    +0.119 C 
BRANCH  19  20
ATOM     20  N   UNL     1      23.410  12.544   1.827  0.00  0.00    -0.302 NA
ATOM     21  C   UNL     1      24.356  12.639   0.627  0.00  0.00    +0.066 C 
ATOM     22  C   UNL     1      24.835  14.109   0.394  0.00  0.00    -0.064 C 
ATOM     23  N   UNL     1      25.515  14.628   1.663  0.00  0.00    +0.379 N 
ATOM     24  C   UNL     1      26.018  15.989   1.428  0.00  0.00    -0.096 C 
ATOM     25  H   UNL     1      26.394  13.973   1.867  0.00  0.00    -0.082 HD
ATOM     26  C   UNL     1      24.581  14.535   2.861  0.00  0.00    -0.064 C 
ATOM     27  C   UNL     1      24.088  13.075   3.066  0.00  0.00    +0.066 C 
ENDBRANCH  19  20
ENDBRANCH  18  19
ENDBRANCH  14  15
ENDBRANCH  12  13
TORSDOF 6
ENDMDL
MODEL 5
REMARK VINA RESULT:      -8.6     26.693     29.003
REMARK  Name = C:\Users\Docking\Desktop\test protocol\1iep_ligandH.pdb
REMARK  8 active torsions:
REMARK  status: ('A' for Active; 'I' for Inactive)
REMARK    1  A    between atoms: _5  and  _11
REMARK    2  A    between atoms: _19  and  _21
REMARK    3  A    between atoms: _22  and  _66
REMARK    4  A    between atoms: _27  and  _30
REMARK    5  A    between atoms: _32  and  _33
REMARK    6  A    between atoms: _38  and  _43
REMARK    7  A    between atoms: _43  and  _46
REMARK    8  A    between atoms: _53  and  _55
REMARK                            x       y       z     vdW  Elec       q    Type
REMARK                         _______ _______ _______ _____ _____    ______ ____
ROOT
ATOM     10  C   UNL     1      54.067   8.054 -12.054  0.00  0.00    +0.038 A 
ATOM     11  C   UNL     1      54.029   6.693 -11.657  0.00  0.00    +0.047 A 
ATOM     12  C   UNL     1      52.789   5.934 -11.690  0.00  0.00    +0.035 A 
ATOM     32  C   UNL     1      51.606   6.592 -12.135  0.00  0.00    +0.024 A 
ATOM     33  C   UNL     1      51.626   7.975 -12.542  0.00  0.00    +0.007 A 
ATOM     34  C   UNL     1      52.846   8.730 -12.510  0.00  0.00    -0.029 A 
ATOM     35  C   UNL     1      52.808  10.211 -12.951  0.00  0.00    +0.045 C 
ENDROOT
BRANCH  10   9
ATOM      4  C   UNL     1      58.305   9.296 -13.936  0.00  0.00    +0.077 A 
ATOM      5  C   UNL     1      58.084   8.499 -15.108  0.00  0.00    +0.048 A 
ATOM      6  C   UNL     1      56.871   7.779 -15.185  0.00  0.00    +0.116 A 
ATOM      7  N   UNL     1      55.953   7.858 -14.160  0.00  0.00    -0.223 NA
ATOM      8  C   UNL     1      56.198   8.635 -13.042  0.00  0.00    +0.220 A 
ATOM      9  N   UNL     1      55.286   8.735 -12.003  0.00  0.00    -0.283 N 
ATOM     36  H   UNL     1      55.506   9.313 -11.192  0.00  0.00    +0.155 HD
ATOM     37  N   UNL     1      57.350   9.331 -12.944  0.00  0.00    -0.214 NA
BRANCH   4   3
ATOM      1  C   UNL     1      61.280  11.782 -14.449  0.00  0.00    +0.020 A 
ATOM      2  C   UNL     1      60.088  11.012 -14.718  0.00  0.00    +0.013 A 
ATOM      3  C   UNL     1      59.537  10.116 -13.709  0.00  0.00    +0.019 A 
ATOM     38  C   UNL     1      60.220  10.023 -12.428  0.00  0.00    +0.120 A 
ATOM     39  N   UNL     1      61.367  10.776 -12.198  0.00  0.00    -0.263 NA
ATOM     40  C   UNL     1      61.908  11.640 -13.162  0.00  0.00    +0.111 A 
ENDBRANCH   4   3
ENDBRANCH  10   9
BRANCH  12  13
ATOM     13  N   UNL     1      52.688   4.552 -11.290  0.00  0.00    -0.281 N 
ATOM     14  C   UNL     1      51.970   4.022 -10.231  0.00  0.00    +0.248 C 
ATOM     30  O   UNL     1      51.474   4.685  -9.332  0.00  0.00    -0.270 OA
ATOM     31  H   UNL     1      53.209   3.883 -11.858  0.00  0.00    +0.155 HD
BRANCH  14  15
ATOM     15  C   UNL     1      51.789   2.541 -10.150  0.00  0.00    +0.037 A 
ATOM     16  C   UNL     1      52.749   1.623 -10.769  0.00  0.00    +0.013 A 
ATOM     17  C   UNL     1      52.542   0.199 -10.691  0.00  0.00    +0.005 A 
ATOM     18  C   UNL     1      51.368  -0.317  -9.990  0.00  0.00    -0.033 A 
ATOM     28  C   UNL     1      50.434   0.616  -9.381  0.00  0.00    +0.005 A 
ATOM     29  C   UNL     1      50.634   2.013  -9.456  0.00  0.00    +0.013 A 
BRANCH  18  19
ATOM     19  C   UNL     1      51.056  -1.821  -9.876  0.00  0.00    +0.119 C 
BRANCH  19  20
ATOM     20  N   UNL     1      49.624  -2.232  -9.982  0.00  0.00    -0.302 NA
ATOM     21  C   UNL     1      49.390  -3.643  -9.437  0.00  0.00    +0.066 C 
ATOM     22  C   UNL     1      47.883  -4.048  -9.535  0.00  0.00    -0.064 C 
ATOM     23  N   UNL     1      47.425  -3.948 -10.991  0.00  0.00    +0.379 N 
ATOM     24  C   UNL     1      46.025  -4.384 -11.096  0.00  0.00    -0.096 C 
ATOM     25  H   UNL     1      48.045  -4.654 -11.590  0.00  0.00    -0.082 HD
ATOM     26  C   UNL     1      47.657  -2.548 -11.543  0.00  0.00    -0.064 C 
ATOM     27  C   UNL     1      49.152  -2.144 -11.413  0.00  0.00    +0.066 C 
ENDBRANCH  19  20
ENDBRANCH  18  19
ENDBRANCH  14  15
ENDBRANCH  12  13
TORSDOF 6
ENDMDL
