MODEL 1
REMARK VINA RESULT:      -8.7      0.000      0.000
REMARK  Name = C:\Users\Docking\Desktop\test protocol\1iep_ligandH.pdb
REMARK  8 active torsions:
REMARK  status: ('A' for Active; 'I' for Inactive)
REMARK    1  A    between atoms: _5  and  _11
REMARK    2  A    between atoms: _19  and  _21
REMARK    3  A    between atoms: _22  and  _66
REMARK    4  A    between atoms: _27  and  _30
REMARK    5  A    between atoms: _32  and  _33
REMARK    6  A    between atoms: _38  and  _43
REMARK    7  A    between atoms: _43  and  _46
REMARK    8  A    between atoms: _53  and  _55
REMARK                            x       y       z     vdW  Elec       q    Type
REMARK                         _______ _______ _______ _____ _____    ______ ____
ROOT
ATOM     10  C   UNL     1      39.584  16.937   8.651  0.00  0.00    +0.038 A 
ATOM     11  C   UNL     1      39.425  15.575   8.287  0.00  0.00    +0.047 A 
ATOM     12  C   UNL     1      40.069  15.033   7.101  0.00  0.00    +0.035 A 
ATOM     32  C   UNL     1      40.872  15.905   6.309  0.00  0.00    +0.024 A 
ATOM     33  C   UNL     1      41.044  17.292   6.664  0.00  0.00    +0.007 A 
ATOM     34  C   UNL     1      40.409  17.833   7.831  0.00  0.00    -0.029 A 
ATOM     35  C   UNL     1      40.624  19.329   8.160  0.00  0.00    +0.045 C 
ENDROOT
BRANCH  10   9
ATOM      4  C   UNL     1      35.829  18.911  10.895  0.00  0.00    +0.077 A 
ATOM      5  C   UNL     1      35.093  19.045   9.671  0.00  0.00    +0.048 A 
ATOM      6  C   UNL     1      35.719  18.601   8.485  0.00  0.00    +0.116 A 
ATOM      7  N   UNL     1      36.987  18.064   8.531  0.00  0.00    -0.223 NA
ATOM      8  C   UNL     1      37.670  17.950   9.728  0.00  0.00    +0.220 A 
ATOM      9  N   UNL     1      38.943  17.405   9.800  0.00  0.00    -0.283 N 
ATOM     36  H   UNL     1      39.416  17.345  10.701  0.00  0.00    +0.155 HD
ATOM     37  N   UNL     1      37.094  18.368  10.875  0.00  0.00    -0.214 NA
BRANCH   4   3
ATOM      1  C   UNL     1      34.148  18.867  14.427  0.00  0.00    +0.020 A 
ATOM      2  C   UNL     1      34.640  18.410  13.147  0.00  0.00    +0.013 A 
ATOM      3  C   UNL     1      35.301  19.331  12.231  0.00  0.00    +0.019 A 
ATOM     38  C   UNL     1      35.450  20.719  12.644  0.00  0.00    +0.120 A 
ATOM     39  N   UNL     1      34.965  21.130  13.881  0.00  0.00    -0.263 NA
ATOM     40  C   UNL     1      34.326  20.254  14.770  0.00  0.00    +0.111 A 
ENDBRANCH   4   3
ENDBRANCH  10   9
BRANCH  12  13
ATOM     13  N   UNL     1      39.937  13.661   6.677  0.00  0.00    -0.281 N 
ATOM     14  C   UNL     1      38.782  12.993   6.302  0.00  0.00    +0.248 C 
ATOM     30  O   UNL     1      37.650  13.417   6.479  0.00  0.00    -0.270 OA
ATOM     31  H   UNL     1      40.799  13.116   6.651  0.00  0.00    +0.155 HD
BRANCH  14  15
ATOM     15  C   UNL     1      38.903  11.654   5.649  0.00  0.00    +0.037 A 
ATOM     16  C   UNL     1      37.719  10.922   5.191  0.00  0.00    +0.013 A 
ATOM     17  C   UNL     1      37.862   9.625   4.579  0.00  0.00    +0.005 A 
ATOM     18  C   UNL     1      39.196   9.052   4.420  0.00  0.00    -0.033 A 
ATOM     28  C   UNL     1      40.354   9.802   4.878  0.00  0.00    +0.005 A 
ATOM     29  C   UNL     1      40.218  11.073   5.479  0.00  0.00    +0.013 A 
BRANCH  18  19
ATOM     19  C   UNL     1      39.441   7.664   3.797  0.00  0.00    +0.119 C 
BRANCH  19  20
ATOM     20  N   UNL     1      38.695   7.335   2.547  0.00  0.00    -0.302 NA
ATOM     21  C   UNL     1      39.198   6.040   1.902  0.00  0.00    +0.066 C 
ATOM     22  C   UNL     1      38.391   5.698   0.607  0.00  0.00    -0.064 C 
ATOM     23  N   UNL     1      38.490   6.866  -0.375  0.00  0.00    +0.379 N 
ATOM     24  C   UNL     1      37.780   6.525  -1.617  0.00  0.00    -0.096 C 
ATOM     25  H   UNL     1      39.566   7.006  -0.628  0.00  0.00    -0.082 HD
ATOM     26  C   UNL     1      37.994   8.158   0.259  0.00  0.00    -0.064 C 
ATOM     27  C   UNL     1      38.782   8.473   1.561  0.00  0.00    +0.066 C 
ENDBRANCH  19  20
ENDBRANCH  18  19
ENDBRANCH  14  15
ENDBRANCH  12  13
TORSDOF 6
ENDMDL
MODEL 2
REMARK VINA RESULT:      -8.7      1.438      2.167
REMARK  Name = C:\Users\Docking\Desktop\test protocol\1iep_ligandH.pdb
REMARK  8 active torsions:
REMARK  status: ('A' for Active; 'I' for Inactive)
REMARK    1  A    between atoms: _5  and  _11
REMARK    2  A    between atoms: _19  and  _21
REMARK    3  A    between atoms: _22  and  _66
REMARK    4  A    between atoms: _27  and  _30
REMARK    5  A    between atoms: _32  and  _33
REMARK    6  A    between atoms: _38  and  _43
REMARK    7  A    between atoms: _43  and  _46
REMARK    8  A    between atoms: _53  and  _55
REMARK                            x       y       z     vdW  Elec       q    Type
REMARK                         _______ _______ _______ _____ _____    ______ ____
ROOT
ATOM     10  C   UNL     1      39.343  18.067   9.756  0.00  0.00    +0.038 A 
ATOM     11  C   UNL     1      39.030  16.704   9.517  0.00  0.00    +0.047 A 
ATOM     12  C   UNL     1      39.664  15.965   8.437  0.00  0.00    +0.035 A 
ATOM     32  C   UNL     1      40.615  16.644   7.621  0.00  0.00    +0.024 A 
ATOM     33  C   UNL     1      40.944  18.029   7.849  0.00  0.00    +0.007 A 
ATOM     34  C   UNL     1      40.319  18.764   8.911  0.00  0.00    -0.029 A 
ATOM     35  C   UNL     1      40.705  20.249   9.106  0.00  0.00    +0.045 C 
ENDROOT
BRANCH  10   9
ATOM      4  C   UNL     1      35.477  20.088  11.758  0.00  0.00    +0.077 A 
ATOM      5  C   UNL     1      34.669  19.828  10.601  0.00  0.00    +0.048 A 
ATOM      6  C   UNL     1      35.288  19.179   9.510  0.00  0.00    +0.116 A 
ATOM      7  N   UNL     1      36.617  18.820   9.581  0.00  0.00    -0.223 NA
ATOM      8  C   UNL     1      37.368  19.087  10.711  0.00  0.00    +0.220 A 
ATOM      9  N   UNL     1      38.704  18.728  10.807  0.00  0.00    -0.283 N 
ATOM     36  H   UNL     1      39.225  18.949  11.655  0.00  0.00    +0.155 HD
ATOM     37  N   UNL     1      36.800  19.707  11.766  0.00  0.00    -0.214 NA
BRANCH   4   3
ATOM      1  C   UNL     1      34.551  22.805  14.416  0.00  0.00    +0.020 A 
ATOM      2  C   UNL     1      35.060  22.202  13.206  0.00  0.00    +0.013 A 
ATOM      3  C   UNL     1      34.966  20.764  12.993  0.00  0.00    +0.019 A 
ATOM     38  C   UNL     1      34.344  19.957  14.032  0.00  0.00    +0.120 A 
ATOM     39  N   UNL     1      33.863  20.564  15.187  0.00  0.00    -0.263 NA
ATOM     40  C   UNL     1      33.950  21.948  15.404  0.00  0.00    +0.111 A 
ENDBRANCH   4   3
ENDBRANCH  10   9
BRANCH  12  13
ATOM     13  N   UNL     1      39.381  14.582   8.142  0.00  0.00    -0.281 N 
ATOM     14  C   UNL     1      38.559  14.074   7.149  0.00  0.00    +0.248 C 
ATOM     30  O   UNL     1      37.771  14.742   6.495  0.00  0.00    -0.270 OA
ATOM     31  H   UNL     1      39.842  13.894   8.737  0.00  0.00    +0.155 HD
BRANCH  14  15
ATOM     15  C   UNL     1      38.610  12.611   6.848  0.00  0.00    +0.037 A 
ATOM     16  C   UNL     1      39.664  12.045   6.003  0.00  0.00    +0.013 A 
ATOM     17  C   UNL     1      39.680  10.633   5.714  0.00  0.00    +0.005 A 
ATOM     18  C   UNL     1      38.637   9.776   6.273  0.00  0.00    -0.033 A 
ATOM     28  C   UNL     1      37.606  10.363   7.113  0.00  0.00    +0.005 A 
ATOM     29  C   UNL     1      37.587  11.747   7.397  0.00  0.00    +0.013 A 
BRANCH  18  19
ATOM     19  C   UNL     1      38.563   8.262   6.001  0.00  0.00    +0.119 C 
BRANCH  19  20
ATOM     20  N   UNL     1      38.247   7.833   4.605  0.00  0.00    -0.302 NA
ATOM     21  C   UNL     1      39.494   7.802   3.717  0.00  0.00    +0.066 C 
ATOM     22  C   UNL     1      39.149   7.330   2.268  0.00  0.00    -0.064 C 
ATOM     23  N   UNL     1      38.083   8.253   1.673  0.00  0.00    +0.379 N 
ATOM     24  C   UNL     1      37.799   7.846   0.290  0.00  0.00    -0.096 C 
ATOM     25  H   UNL     1      38.508   9.283   1.643  0.00  0.00    -0.082 HD
ATOM     26  C   UNL     1      36.841   8.291   2.552  0.00  0.00    -0.064 C 
ATOM     27  C   UNL     1      37.200   8.734   3.998  0.00  0.00    +0.066 C 
ENDBRANCH  19  20
ENDBRANCH  18  19
ENDBRANCH  14  15
ENDBRANCH  12  13
TORSDOF 6
ENDMDL
MODEL 3
REMARK VINA RESULT:      -8.7     18.274     21.059
REMARK  Name = C:\Users\Docking\Desktop\test protocol\1iep_ligandH.pdb
REMARK  8 active torsions:
REMARK  status: ('A' for Active; 'I' for Inactive)
REMARK    1  A    between atoms: _5  and  _11
REMARK    2  A    between atoms: _19  and  _21
REMARK    3  A    between atoms: _22  and  _66
REMARK    4  A    between atoms: _27  and  _30
REMARK    5  A    between atoms: _32  and  _33
REMARK    6  A    between atoms: _38  and  _43
REMARK    7  A    between atoms: _43  and  _46
REMARK    8  A    between atoms: _53  and  _55
REMARK                            x       y       z     vdW  Elec       q    Type
REMARK                         _______ _______ _______ _____ _____    ______ ____
ROOT
ATOM     10  C   UNL     1      22.276  11.666   6.049  0.00  0.00    +0.038 A 
ATOM     11  C   UNL     1      22.046  10.669   7.031  0.00  0.00    +0.047 A 
ATOM     12  C   UNL     1      21.333  10.974   8.261  0.00  0.00    +0.035 A 
ATOM     32  C   UNL     1      20.866  12.306   8.458  0.00  0.00    +0.024 A 
ATOM     33  C   UNL     1      21.092  13.333   7.472  0.00  0.00    +0.007 A 
ATOM     34  C   UNL     1      21.797  13.038   6.257  0.00  0.00    -0.029 A 
ATOM     35  C   UNL     1      22.016  14.180   5.237  0.00  0.00    +0.045 C 
ENDROOT
BRANCH  10   9
ATOM      4  C   UNL     1      22.451  10.787   1.334  0.00  0.00    +0.077 A 
ATOM      5  C   UNL     1      21.043  11.015   1.179  0.00  0.00    +0.048 A 
ATOM      6  C   UNL     1      20.308  11.349   2.339  0.00  0.00    +0.116 A 
ATOM      7  N   UNL     1      20.945  11.446   3.557  0.00  0.00    -0.223 NA
ATOM      8  C   UNL     1      22.304  11.218   3.672  0.00  0.00    +0.220 A 
ATOM      9  N   UNL     1      22.966  11.318   4.886  0.00  0.00    -0.283 N 
ATOM     36  H   UNL     1      23.968  11.135   4.930  0.00  0.00    +0.155 HD
ATOM     37  N   UNL     1      23.027  10.896   2.579  0.00  0.00    -0.214 NA
BRANCH   4   3
ATOM      1  C   UNL     1      23.934   9.128  -1.883  0.00  0.00    +0.020 A 
ATOM      2  C   UNL     1      23.017   9.437  -0.810  0.00  0.00    +0.013 A 
ATOM      3  C   UNL     1      23.362  10.428   0.202  0.00  0.00    +0.019 A 
ATOM     38  C   UNL     1      24.652  11.094   0.097  0.00  0.00    +0.120 A 
ATOM     39  N   UNL     1      25.514  10.775  -0.947  0.00  0.00    -0.263 NA
ATOM     40  C   UNL     1      25.194   9.822  -1.925  0.00  0.00    +0.111 A 
ENDBRANCH   4   3
ENDBRANCH  10   9
BRANCH  12  13
ATOM     13  N   UNL     1      21.077  10.005   9.297  0.00  0.00    -0.281 N 
ATOM     14  C   UNL     1      20.084  10.032  10.263  0.00  0.00    +0.248 C 
ATOM     30  O   UNL     1      19.394  11.008  10.516  0.00  0.00    -0.270 OA
ATOM     31  H   UNL     1      21.704   9.200   9.322  0.00  0.00    +0.155 HD
BRANCH  14  15
ATOM     15  C   UNL     1      19.832   8.803  11.075  0.00  0.00    +0.037 A 
ATOM     16  C   UNL     1      20.619   7.584  10.872  0.00  0.00    +0.013 A 
ATOM     17  C   UNL     1      20.343   6.406  11.657  0.00  0.00    +0.005 A 
ATOM     18  C   UNL     1      19.276   6.444  12.653  0.00  0.00    -0.033 A 
ATOM     28  C   UNL     1      18.514   7.668  12.837  0.00  0.00    +0.005 A 
ATOM     29  C   UNL     1      18.781   8.824  12.069  0.00  0.00    +0.013 A 
BRANCH  18  19
ATOM     19  C   UNL     1      18.898   5.228  13.520  0.00  0.00    +0.119 C 
BRANCH  19  20
ATOM     20  N   UNL     1      17.555   4.616  13.292  0.00  0.00    -0.302 NA
ATOM     21  C   UNL     1      16.737   4.530  14.584  0.00  0.00    +0.066 C 
ATOM     22  C   UNL     1      15.326   3.908  14.323  0.00  0.00    -0.064 C 
ATOM     23  N   UNL     1      15.491   2.524  13.693  0.00  0.00    +0.379 N 
ATOM     24  C   UNL     1      14.168   1.912  13.500  0.00  0.00    -0.096 C 
ATOM     25  H   UNL     1      16.055   1.889  14.415  0.00  0.00    -0.082 HD
ATOM     26  C   UNL     1      16.306   2.600  12.410  0.00  0.00    -0.064 C 
ATOM     27  C   UNL     1      17.695   3.246  12.674  0.00  0.00    +0.066 C 
ENDBRANCH  19  20
ENDBRANCH  18  19
ENDBRANCH  14  15
ENDBRANCH  12  13
TORSDOF 6
ENDMDL
MODEL 4
REMARK VINA RESULT:      -8.7     19.623     21.833
REMARK  Name = C:\Users\Docking\Desktop\test protocol\1iep_ligandH.pdb
REMARK  8 active torsions:
REMARK  status: ('A' for Active; 'I' for Inactive)
REMARK    1  A    between atoms: _5  and  _11
REMARK    2  A    between atoms: _19  and  _21
REMARK    3  A    between atoms: _22  and  _66
REMARK    4  A    between atoms: _27  and  _30
REMARK    5  A    between atoms: _32  and  _33
REMARK    6  A    between atoms: _38  and  _43
REMARK    7  A    between atoms: _43  and  _46
REMARK    8  A    between atoms: _53  and  _55
REMARK                            x       y       z     vdW  Elec       q    Type
REMARK                         _______ _______ _______ _____ _____    ______ ____
ROOT
ATOM     10  C   UNL     1      20.889  11.551   8.842  0.00  0.00    +0.038 A 
ATOM     11  C   UNL     1      20.396  10.306   9.307  0.00  0.00    +0.047 A 
ATOM     12  C   UNL     1      19.561  10.223  10.495  0.00  0.00    +0.035 A 
ATOM     32  C   UNL     1      19.245  11.431  11.184  0.00  0.00    +0.024 A 
ATOM     33  C   UNL     1      19.738  12.705  10.725  0.00  0.00    +0.007 A 
ATOM     34  C   UNL     1      20.565  12.792   9.556  0.00  0.00    -0.029 A 
ATOM     35  C   UNL     1      21.071  14.185   9.114  0.00  0.00    +0.045 C 
ENDROOT
BRANCH  10   9
ATOM      4  C   UNL     1      21.452  11.527   4.075  0.00  0.00    +0.077 A 
ATOM      5  C   UNL     1      20.038  11.438   3.850  0.00  0.00    +0.048 A 
ATOM      6  C   UNL     1      19.201  11.394   4.987  0.00  0.00    +0.116 A 
ATOM      7  N   UNL     1      19.748  11.436   6.251  0.00  0.00    -0.223 NA
ATOM      8  C   UNL     1      21.116  11.520   6.434  0.00  0.00    +0.220 A 
ATOM      9  N   UNL     1      21.687  11.572   7.696  0.00  0.00    -0.283 N 
ATOM     36  H   UNL     1      22.701  11.626   7.788  0.00  0.00    +0.155 HD
ATOM     37  N   UNL     1      21.937  11.562   5.364  0.00  0.00    -0.214 NA
BRANCH   4   3
ATOM      1  C   UNL     1      23.356  10.900   0.717  0.00  0.00    +0.020 A 
ATOM      2  C   UNL     1      22.349  10.807   1.749  0.00  0.00    +0.013 A 
ATOM      3  C   UNL     1      22.465  11.586   2.975  0.00  0.00    +0.019 A 
ATOM     38  C   UNL     1      23.621  12.457   3.127  0.00  0.00    +0.120 A 
ATOM     39  N   UNL     1      24.575  12.525   2.117  0.00  0.00    -0.263 NA
ATOM     40  C   UNL     1      24.475  11.779   0.933  0.00  0.00    +0.111 A 
ENDBRANCH   4   3
ENDBRANCH  10   9
BRANCH  12  13
ATOM     13  N   UNL     1      19.038   8.986  11.019  0.00  0.00    -0.281 N 
ATOM     14  C   UNL     1      19.743   7.854  11.393  0.00  0.00    +0.248 C 
ATOM     30  O   UNL     1      20.920   7.655  11.132  0.00  0.00    -0.270 OA
ATOM     31  H   UNL     1      18.025   8.939  11.128  0.00  0.00    +0.155 HD
BRANCH  14  15
ATOM     15  C   UNL     1      19.035   6.781  12.155  0.00  0.00    +0.037 A 
ATOM     16  C   UNL     1      19.088   5.381  11.725  0.00  0.00    +0.013 A 
ATOM     17  C   UNL     1      18.382   4.369  12.469  0.00  0.00    +0.005 A 
ATOM     18  C   UNL     1      17.616   4.752  13.653  0.00  0.00    -0.033 A 
ATOM     28  C   UNL     1      17.585   6.147  14.060  0.00  0.00    +0.005 A 
ATOM     29  C   UNL     1      18.275   7.143  13.333  0.00  0.00    +0.013 A 
BRANCH  18  19
ATOM     19  C   UNL     1      16.815   3.742  14.494  0.00  0.00    +0.119 C 
BRANCH  19  20
ATOM     20  N   UNL     1      15.821   2.889  13.776  0.00  0.00    -0.302 NA
ATOM     21  C   UNL     1      14.577   2.617  14.626  0.00  0.00    +0.066 C 
ATOM     22  C   UNL     1      13.538   1.742  13.851  0.00  0.00    -0.064 C 
ATOM     23  N   UNL     1      14.199   0.431  13.421  0.00  0.00    +0.379 N 
ATOM     24  C   UNL     1      13.209  -0.418  12.743  0.00  0.00    -0.096 C 
ATOM     25  H   UNL     1      14.525  -0.101  14.345  0.00  0.00    -0.082 HD
ATOM     26  C   UNL     1      15.438   0.693  12.578  0.00  0.00    -0.064 C 
ATOM     27  C   UNL     1      16.451   1.587  13.346  0.00  0.00    +0.066 C 
ENDBRANCH  19  20
ENDBRANCH  18  19
ENDBRANCH  14  15
ENDBRANCH  12  13
TORSDOF 6
ENDMDL
MODEL 5
REMARK VINA RESULT:      -8.6     24.544     27.226
REMARK  Name = C:\Users\Docking\Desktop\test protocol\1iep_ligandH.pdb
REMARK  8 active torsions:
REMARK  status: ('A' for Active; 'I' for Inactive)
REMARK    1  A    between atoms: _5  and  _11
REMARK    2  A    between atoms: _19  and  _21
REMARK    3  A    between atoms: _22  and  _66
REMARK    4  A    between atoms: _27  and  _30
REMARK    5  A    between atoms: _32  and  _33
REMARK    6  A    between atoms: _38  and  _43
REMARK    7  A    between atoms: _43  and  _46
REMARK    8  A    between atoms: _53  and  _55
REMARK                            x       y       z     vdW  Elec       q    Type
REMARK                         _______ _______ _______ _____ _____    ______ ____
ROOT
ATOM     10  C   UNL     1      53.844   8.281 -12.048  0.00  0.00    +0.038 A 
ATOM     11  C   UNL     1      53.667   6.966 -11.547  0.00  0.00    +0.047 A 
ATOM     12  C   UNL     1      52.377   6.298 -11.626  0.00  0.00    +0.035 A 
ATOM     32  C   UNL     1      51.289   6.999 -12.223  0.00  0.00    +0.024 A 
ATOM     33  C   UNL     1      51.451   8.336 -12.737  0.00  0.00    +0.007 A 
ATOM     34  C   UNL     1      52.721   9.001 -12.660  0.00  0.00    -0.029 A 
ATOM     35  C   UNL     1      52.835  10.437 -13.221  0.00  0.00    +0.045 C 
ENDROOT
BRANCH  10   9
ATOM      4  C   UNL     1      58.222   9.238 -13.767  0.00  0.00    +0.077 A 
ATOM      5  C   UNL     1      57.989   8.468 -14.955  0.00  0.00    +0.048 A 
ATOM      6  C   UNL     1      56.732   7.836 -15.082  0.00  0.00    +0.116 A 
ATOM      7  N   UNL     1      55.786   7.971 -14.089  0.00  0.00    -0.223 NA
ATOM      8  C   UNL     1      56.044   8.719 -12.955  0.00  0.00    +0.220 A 
ATOM      9  N   UNL     1      55.104   8.874 -11.947  0.00  0.00    -0.283 N 
ATOM     36  H   UNL     1      55.336   9.428 -11.123  0.00  0.00    +0.155 HD
ATOM     37  N   UNL     1      57.237   9.331 -12.809  0.00  0.00    -0.214 NA
BRANCH   4   3
ATOM      1  C   UNL     1      61.541  10.448 -12.086  0.00  0.00    +0.020 A 
ATOM      2  C   UNL     1      60.315   9.716 -12.307  0.00  0.00    +0.013 A 
ATOM      3  C   UNL     1      59.500   9.968 -13.489  0.00  0.00    +0.019 A 
ATOM     38  C   UNL     1      59.957  10.974 -14.435  0.00  0.00    +0.120 A 
ATOM     39  N   UNL     1      61.141  11.665 -14.194  0.00  0.00    -0.263 NA
ATOM     40  C   UNL     1      61.933  11.432 -13.060  0.00  0.00    +0.111 A 
ENDBRANCH   4   3
ENDBRANCH  10   9
BRANCH  12  13
ATOM     13  N   UNL     1      52.135   4.967 -11.127  0.00  0.00    -0.281 N 
ATOM     14  C   UNL     1      51.117   4.544 -10.289  0.00  0.00    +0.248 C 
ATOM     30  O   UNL     1      50.378   5.292  -9.667  0.00  0.00    -0.270 OA
ATOM     31  H   UNL     1      52.796   4.250 -11.427  0.00  0.00    +0.155 HD
BRANCH  14  15
ATOM     15  C   UNL     1      50.896   3.077 -10.105  0.00  0.00    +0.037 A 
ATOM     16  C   UNL     1      49.602   2.553  -9.660  0.00  0.00    +0.013 A 
ATOM     17  C   UNL     1      49.421   1.135  -9.473  0.00  0.00    +0.005 A 
ATOM     18  C   UNL     1      50.538   0.230  -9.734  0.00  0.00    -0.033 A 
ATOM     28  C   UNL     1      51.810   0.777 -10.180  0.00  0.00    +0.005 A 
ATOM     29  C   UNL     1      51.991   2.166 -10.363  0.00  0.00    +0.013 A 
BRANCH  18  19
ATOM     19  C   UNL     1      50.442  -1.295  -9.542  0.00  0.00    +0.119 C 
BRANCH  19  20
ATOM     20  N   UNL     1      49.190  -1.965 -10.006  0.00  0.00    -0.302 NA
ATOM     21  C   UNL     1      49.075  -3.397  -9.476  0.00  0.00    +0.066 C 
ATOM     22  C   UNL     1      47.749  -4.075  -9.952  0.00  0.00    -0.064 C 
ATOM     23  N   UNL     1      47.690  -4.056 -11.481  0.00  0.00    +0.379 N 
ATOM     24  C   UNL     1      46.473  -4.744 -11.933  0.00  0.00    -0.096 C 
ATOM     25  H   UNL     1      48.566  -4.633 -11.860  0.00  0.00    -0.082 HD
ATOM     26  C   UNL     1      47.807  -2.636 -12.016  0.00  0.00    -0.064 C 
ATOM     27  C   UNL     1      49.114  -1.961 -11.513  0.00  0.00    +0.066 C 
ENDBRANCH  19  20
ENDBRANCH  18  19
ENDBRANCH  14  15
ENDBRANCH  12  13
TORSDOF 6
ENDMDL
