MODEL 1
REMARK VINA RESULT:      -8.8      0.000      0.000
REMARK  Name = C:\Users\Docking\Desktop\test protocol\1iep_ligandH.pdb
REMARK  8 active torsions:
REMARK  status: ('A' for Active; 'I' for Inactive)
REMARK    1  A    between atoms: _5  and  _11
REMARK    2  A    between atoms: _19  and  _21
REMARK    3  A    between atoms: _22  and  _66
REMARK    4  A    between atoms: _27  and  _30
REMARK    5  A    between atoms: _32  and  _33
REMARK    6  A    between atoms: _38  and  _43
REMARK    7  A    between atoms: _43  and  _46
REMARK    8  A    between atoms: _53  and  _55
REMARK                            x       y       z     vdW  Elec       q    Type
REMARK                         _______ _______ _______ _____ _____    ______ ____
ROOT
ATOM     10  C   UNL     1      39.098  18.382   9.945  0.00  0.00    +0.038 A 
ATOM     11  C   UNL     1      38.869  17.021   9.616  0.00  0.00    +0.047 A 
ATOM     12  C   UNL     1      39.649  16.355   8.585  0.00  0.00    +0.035 A 
ATOM     32  C   UNL     1      40.657  17.104   7.910  0.00  0.00    +0.024 A 
ATOM     33  C   UNL     1      40.902  18.488   8.230  0.00  0.00    +0.007 A 
ATOM     34  C   UNL     1      40.134  19.151   9.245  0.00  0.00    -0.029 A 
ATOM     35  C   UNL     1      40.435  20.639   9.542  0.00  0.00    +0.045 C 
ENDROOT
BRANCH  10   9
ATOM      4  C   UNL     1      34.901  19.946  11.669  0.00  0.00    +0.077 A 
ATOM      5  C   UNL     1      34.204  19.582  10.469  0.00  0.00    +0.048 A 
ATOM      6  C   UNL     1      34.964  19.001   9.429  0.00  0.00    +0.116 A 
ATOM      7  N   UNL     1      36.319  18.804   9.588  0.00  0.00    -0.223 NA
ATOM      8  C   UNL     1      36.960  19.168  10.758  0.00  0.00    +0.220 A 
ATOM      9  N   UNL     1      38.320  18.972  10.943  0.00  0.00    -0.283 N 
ATOM     36  H   UNL     1      38.756  19.261  11.818  0.00  0.00    +0.155 HD
ATOM     37  N   UNL     1      36.257  19.726  11.766  0.00  0.00    -0.214 NA
BRANCH   4   3
ATOM      1  C   UNL     1      34.289  21.766  15.077  0.00  0.00    +0.020 A 
ATOM      2  C   UNL     1      34.979  21.180  13.951  0.00  0.00    +0.013 A 
ATOM      3  C   UNL     1      34.236  20.566  12.858  0.00  0.00    +0.019 A 
ATOM     38  C   UNL     1      32.783  20.563  12.935  0.00  0.00    +0.120 A 
ATOM     39  N   UNL     1      32.145  21.134  14.032  0.00  0.00    -0.263 NA
ATOM     40  C   UNL     1      32.850  21.725  15.091  0.00  0.00    +0.111 A 
ENDBRANCH   4   3
ENDBRANCH  10   9
BRANCH  12  13
ATOM     13  N   UNL     1      39.457  14.978   8.203  0.00  0.00    -0.281 N 
ATOM     14  C   UNL     1      38.564  14.468   7.274  0.00  0.00    +0.248 C 
ATOM     30  O   UNL     1      37.642  15.102   6.783  0.00  0.00    -0.270 OA
ATOM     31  H   UNL     1      40.051  14.295   8.674  0.00  0.00    +0.155 HD
BRANCH  14  15
ATOM     15  C   UNL     1      38.708  13.046   6.839  0.00  0.00    +0.037 A 
ATOM     16  C   UNL     1      39.866  12.603   6.059  0.00  0.00    +0.013 A 
ATOM     17  C   UNL     1      39.972  11.228   5.638  0.00  0.00    +0.005 A 
ATOM     18  C   UNL     1      38.915  10.286   5.998  0.00  0.00    -0.033 A 
ATOM     28  C   UNL     1      37.780  10.751   6.777  0.00  0.00    +0.005 A 
ATOM     29  C   UNL     1      37.672  12.097   7.190  0.00  0.00    +0.013 A 
BRANCH  18  19
ATOM     19  C   UNL     1      38.935   8.805   5.573  0.00  0.00    +0.119 C 
BRANCH  19  20
ATOM     20  N   UNL     1      38.579   8.496   4.156  0.00  0.00    -0.302 NA
ATOM     21  C   UNL     1      37.105   8.111   4.004  0.00  0.00    +0.066 C 
ATOM     22  C   UNL     1      36.745   7.813   2.512  0.00  0.00    -0.064 C 
ATOM     23  N   UNL     1      37.652   6.700   1.985  0.00  0.00    +0.379 N 
ATOM     24  C   UNL     1      37.277   6.377   0.600  0.00  0.00    -0.096 C 
ATOM     25  H   UNL     1      37.469   5.792   2.605  0.00  0.00    -0.082 HD
ATOM     26  C   UNL     1      39.120   7.073   2.134  0.00  0.00    -0.064 C 
ATOM     27  C   UNL     1      39.460   7.396   3.616  0.00  0.00    +0.066 C 
ENDBRANCH  19  20
ENDBRANCH  18  19
ENDBRANCH  14  15
ENDBRANCH  12  13
TORSDOF 6
ENDMDL
MODEL 2
REMARK VINA RESULT:      -8.7     17.774     20.760
REMARK  Name = C:\Users\Docking\Desktop\test protocol\1iep_ligandH.pdb
REMARK  8 active torsions:
REMARK  status: ('A' for Active; 'I' for Inactive)
REMARK    1  A    between atoms: _5  and  _11
REMARK    2  A    between atoms: _19  and  _21
REMARK    3  A    between atoms: _22  and  _66
REMARK    4  A    between atoms: _27  and  _30
REMARK    5  A    between atoms: _32  and  _33
REMARK    6  A    between atoms: _38  and  _43
REMARK    7  A    between atoms: _43  and  _46
REMARK    8  A    between atoms: _53  and  _55
REMARK                            x       y       z     vdW  Elec       q    Type
REMARK                         _______ _______ _______ _____ _____    ______ ____
ROOT
ATOM     10  C   UNL     1      22.311  11.609   6.030  0.00  0.00    +0.038 A 
ATOM     11  C   UNL     1      22.076  10.601   6.999  0.00  0.00    +0.047 A 
ATOM     12  C   UNL     1      21.371  10.896   8.237  0.00  0.00    +0.035 A 
ATOM     32  C   UNL     1      20.916  12.230   8.453  0.00  0.00    +0.024 A 
ATOM     33  C   UNL     1      21.146  13.267   7.478  0.00  0.00    +0.007 A 
ATOM     34  C   UNL     1      21.844  12.982   6.257  0.00  0.00    -0.029 A 
ATOM     35  C   UNL     1      22.068  14.134   5.250  0.00  0.00    +0.045 C 
ENDROOT
BRANCH  10   9
ATOM      4  C   UNL     1      22.460  10.793   1.302  0.00  0.00    +0.077 A 
ATOM      5  C   UNL     1      21.054  11.038   1.156  0.00  0.00    +0.048 A 
ATOM      6  C   UNL     1      20.327  11.364   2.323  0.00  0.00    +0.116 A 
ATOM      7  N   UNL     1      20.969  11.437   3.540  0.00  0.00    -0.223 NA
ATOM      8  C   UNL     1      22.326  11.193   3.646  0.00  0.00    +0.220 A 
ATOM      9  N   UNL     1      22.993  11.269   4.859  0.00  0.00    -0.283 N 
ATOM     36  H   UNL     1      23.994  11.075   4.897  0.00  0.00    +0.155 HD
ATOM     37  N   UNL     1      23.042  10.879   2.547  0.00  0.00    -0.214 NA
BRANCH   4   3
ATOM      1  C   UNL     1      23.922   9.151  -1.933  0.00  0.00    +0.020 A 
ATOM      2  C   UNL     1      23.013   9.454  -0.852  0.00  0.00    +0.013 A 
ATOM      3  C   UNL     1      23.364  10.441   0.162  0.00  0.00    +0.019 A 
ATOM     38  C   UNL     1      24.652  11.109   0.051  0.00  0.00    +0.120 A 
ATOM     39  N   UNL     1      25.507  10.796  -1.001  0.00  0.00    -0.263 NA
ATOM     40  C   UNL     1      25.181   9.846  -1.981  0.00  0.00    +0.111 A 
ENDBRANCH   4   3
ENDBRANCH  10   9
BRANCH  12  13
ATOM     13  N   UNL     1      21.111   9.916   9.262  0.00  0.00    -0.281 N 
ATOM     14  C   UNL     1      20.174   9.976  10.280  0.00  0.00    +0.248 C 
ATOM     30  O   UNL     1      19.558  10.984  10.593  0.00  0.00    -0.270 OA
ATOM     31  H   UNL     1      21.688   9.075   9.233  0.00  0.00    +0.155 HD
BRANCH  14  15
ATOM     15  C   UNL     1      19.890   8.743  11.074  0.00  0.00    +0.037 A 
ATOM     16  C   UNL     1      20.666   7.516  10.876  0.00  0.00    +0.013 A 
ATOM     17  C   UNL     1      20.360   6.335  11.643  0.00  0.00    +0.005 A 
ATOM     18  C   UNL     1      19.273   6.375  12.618  0.00  0.00    -0.033 A 
ATOM     28  C   UNL     1      18.522   7.607  12.798  0.00  0.00    +0.005 A 
ATOM     29  C   UNL     1      18.818   8.767  12.047  0.00  0.00    +0.013 A 
BRANCH  18  19
ATOM     19  C   UNL     1      18.863   5.156  13.465  0.00  0.00    +0.119 C 
BRANCH  19  20
ATOM     20  N   UNL     1      17.529   4.546  13.185  0.00  0.00    -0.302 NA
ATOM     21  C   UNL     1      16.649   4.490  14.437  0.00  0.00    +0.066 C 
ATOM     22  C   UNL     1      15.249   3.869  14.122  0.00  0.00    -0.064 C 
ATOM     23  N   UNL     1      15.436   2.472  13.528  0.00  0.00    +0.379 N 
ATOM     24  C   UNL     1      14.120   1.863  13.283  0.00  0.00    -0.096 C 
ATOM     25  H   UNL     1      15.961   1.849  14.288  0.00  0.00    -0.082 HD
ATOM     26  C   UNL     1      16.312   2.519  12.284  0.00  0.00    -0.064 C 
ATOM     27  C   UNL     1      17.690   3.164  12.602  0.00  0.00    +0.066 C 
ENDBRANCH  19  20
ENDBRANCH  18  19
ENDBRANCH  14  15
ENDBRANCH  12  13
TORSDOF 6
ENDMDL
MODEL 3
REMARK VINA RESULT:      -8.7      2.741     13.023
REMARK  Name = C:\Users\Docking\Desktop\test protocol\1iep_ligandH.pdb
REMARK  8 active torsions:
REMARK  status: ('A' for Active; 'I' for Inactive)
REMARK    1  A    between atoms: _5  and  _11
REMARK    2  A    between atoms: _19  and  _21
REMARK    3  A    between atoms: _22  and  _66
REMARK    4  A    between atoms: _27  and  _30
REMARK    5  A    between atoms: _32  and  _33
REMARK    6  A    between atoms: _38  and  _43
REMARK    7  A    between atoms: _43  and  _46
REMARK    8  A    between atoms: _53  and  _55
REMARK                            x       y       z     vdW  Elec       q    Type
REMARK                         _______ _______ _______ _____ _____    ______ ____
ROOT
ATOM     10  C   UNL     1      37.894   9.859   4.509  0.00  0.00    +0.038 A 
ATOM     11  C   UNL     1      37.647  11.066   5.211  0.00  0.00    +0.047 A 
ATOM     12  C   UNL     1      38.632  11.618   6.129  0.00  0.00    +0.035 A 
ATOM     32  C   UNL     1      39.859  10.915   6.304  0.00  0.00    +0.024 A 
ATOM     33  C   UNL     1      40.127   9.687   5.599  0.00  0.00    +0.007 A 
ATOM     34  C   UNL     1      39.158   9.136   4.695  0.00  0.00    -0.029 A 
ATOM     35  C   UNL     1      39.496   7.813   3.970  0.00  0.00    +0.045 C 
ENDROOT
BRANCH  10   9
ATOM      4  C   UNL     1      35.853   9.557   0.175  0.00  0.00    +0.077 A 
ATOM      5  C   UNL     1      36.805  10.462  -0.402  0.00  0.00    +0.048 A 
ATOM      6  C   UNL     1      37.799  10.989   0.453  0.00  0.00    +0.116 A 
ATOM      7  N   UNL     1      37.830  10.630   1.783  0.00  0.00    -0.223 NA
ATOM      8  C   UNL     1      36.896   9.755   2.307  0.00  0.00    +0.220 A 
ATOM      9  N   UNL     1      36.914   9.374   3.640  0.00  0.00    -0.283 N 
ATOM     36  H   UNL     1      36.203   8.733   3.990  0.00  0.00    +0.155 HD
ATOM     37  N   UNL     1      35.936   9.240   1.513  0.00  0.00    -0.214 NA
BRANCH   4   3
ATOM      1  C   UNL     1      32.858   7.257  -0.847  0.00  0.00    +0.020 A 
ATOM      2  C   UNL     1      33.916   7.844  -0.058  0.00  0.00    +0.013 A 
ATOM      3  C   UNL     1      34.744   8.914  -0.599  0.00  0.00    +0.019 A 
ATOM     38  C   UNL     1      34.473   9.372  -1.953  0.00  0.00    +0.120 A 
ATOM     39  N   UNL     1      33.447   8.788  -2.691  0.00  0.00    -0.263 NA
ATOM     40  C   UNL     1      32.645   7.756  -2.181  0.00  0.00    +0.111 A 
ENDBRANCH   4   3
ENDBRANCH  10   9
BRANCH  12  13
ATOM     13  N   UNL     1      38.433  12.835   6.876  0.00  0.00    -0.281 N 
ATOM     14  C   UNL     1      39.221  13.974   6.874  0.00  0.00    +0.248 C 
ATOM     30  O   UNL     1      40.340  14.038   6.388  0.00  0.00    -0.270 OA
ATOM     31  H   UNL     1      37.611  12.859   7.480  0.00  0.00    +0.155 HD
BRANCH  14  15
ATOM     15  C   UNL     1      38.696  15.216   7.517  0.00  0.00    +0.037 A 
ATOM     16  C   UNL     1      39.167  15.647   8.836  0.00  0.00    +0.013 A 
ATOM     17  C   UNL     1      38.631  16.840   9.441  0.00  0.00    +0.005 A 
ATOM     18  C   UNL     1      37.619  17.613   8.726  0.00  0.00    -0.033 A 
ATOM     28  C   UNL     1      37.173  17.167   7.417  0.00  0.00    +0.005 A 
ATOM     29  C   UNL     1      37.695  15.997   6.821  0.00  0.00    +0.013 A 
BRANCH  18  19
ATOM     19  C   UNL     1      36.977  18.888   9.305  0.00  0.00    +0.119 C 
BRANCH  19  20
ATOM     20  N   UNL     1      35.710  18.725  10.079  0.00  0.00    -0.302 NA
ATOM     21  C   UNL     1      34.747  19.895   9.858  0.00  0.00    +0.066 C 
ATOM     22  C   UNL     1      33.418  19.696  10.657  0.00  0.00    -0.064 C 
ATOM     23  N   UNL     1      33.740  19.533  12.144  0.00  0.00    +0.379 N 
ATOM     24  C   UNL     1      32.489  19.405  12.905  0.00  0.00    -0.096 C 
ATOM     25  H   UNL     1      34.248  20.465  12.483  0.00  0.00    -0.082 HD
ATOM     26  C   UNL     1      34.699  18.374  12.372  0.00  0.00    -0.064 C 
ATOM     27  C   UNL     1      36.004  18.566  11.550  0.00  0.00    +0.066 C 
ENDBRANCH  19  20
ENDBRANCH  18  19
ENDBRANCH  14  15
ENDBRANCH  12  13
TORSDOF 6
ENDMDL
MODEL 4
REMARK VINA RESULT:      -8.6     26.261     28.792
REMARK  Name = C:\Users\Docking\Desktop\test protocol\1iep_ligandH.pdb
REMARK  8 active torsions:
REMARK  status: ('A' for Active; 'I' for Inactive)
REMARK    1  A    between atoms: _5  and  _11
REMARK    2  A    between atoms: _19  and  _21
REMARK    3  A    between atoms: _22  and  _66
REMARK    4  A    between atoms: _27  and  _30
REMARK    5  A    between atoms: _32  and  _33
REMARK    6  A    between atoms: _38  and  _43
REMARK    7  A    between atoms: _43  and  _46
REMARK    8  A    between atoms: _53  and  _55
REMARK                            x       y       z     vdW  Elec       q    Type
REMARK                         _______ _______ _______ _____ _____    ______ ____
ROOT
ATOM     10  C   UNL     1      53.787   8.159 -12.010  0.00  0.00    +0.038 A 
ATOM     11  C   UNL     1      53.621   6.834 -11.532  0.00  0.00    +0.047 A 
ATOM     12  C   UNL     1      52.334   6.161 -11.611  0.00  0.00    +0.035 A 
ATOM     32  C   UNL     1      51.237   6.868 -12.185  0.00  0.00    +0.024 A 
ATOM     33  C   UNL     1      51.387   8.215 -12.674  0.00  0.00    +0.007 A 
ATOM     34  C   UNL     1      52.654   8.885 -12.596  0.00  0.00    -0.029 A 
ATOM     35  C   UNL     1      52.756  10.333 -13.131  0.00  0.00    +0.045 C 
ENDROOT
BRANCH  10   9
ATOM      4  C   UNL     1      58.132   9.199 -13.766  0.00  0.00    +0.077 A 
ATOM      5  C   UNL     1      57.883   8.467 -14.974  0.00  0.00    +0.048 A 
ATOM      6  C   UNL     1      56.628   7.831 -15.102  0.00  0.00    +0.116 A 
ATOM      7  N   UNL     1      55.697   7.928 -14.090  0.00  0.00    -0.223 NA
ATOM      8  C   UNL     1      55.970   8.640 -12.936  0.00  0.00    +0.220 A 
ATOM      9  N   UNL     1      55.046   8.757 -11.909  0.00  0.00    -0.283 N 
ATOM     36  H   UNL     1      55.287   9.285 -11.071  0.00  0.00    +0.155 HD
ATOM     37  N   UNL     1      57.162   9.255 -12.790  0.00  0.00    -0.214 NA
BRANCH   4   3
ATOM      1  C   UNL     1      61.442  10.412 -12.071  0.00  0.00    +0.020 A 
ATOM      2  C   UNL     1      60.216   9.682 -12.295  0.00  0.00    +0.013 A 
ATOM      3  C   UNL     1      59.409   9.927 -13.484  0.00  0.00    +0.019 A 
ATOM     38  C   UNL     1      59.876  10.925 -14.435  0.00  0.00    +0.120 A 
ATOM     39  N   UNL     1      61.060  11.614 -14.192  0.00  0.00    -0.263 NA
ATOM     40  C   UNL     1      61.843  11.388 -13.050  0.00  0.00    +0.111 A 
ENDBRANCH   4   3
ENDBRANCH  10   9
BRANCH  12  13
ATOM     13  N   UNL     1      52.104   4.820 -11.135  0.00  0.00    -0.281 N 
ATOM     14  C   UNL     1      51.217   4.404 -10.156  0.00  0.00    +0.248 C 
ATOM     30  O   UNL     1      50.636   5.154  -9.386  0.00  0.00    -0.270 OA
ATOM     31  H   UNL     1      52.662   4.088 -11.574  0.00  0.00    +0.155 HD
BRANCH  14  15
ATOM     15  C   UNL     1      50.947   2.942 -10.000  0.00  0.00    +0.037 A 
ATOM     16  C   UNL     1      49.602   2.446  -9.698  0.00  0.00    +0.013 A 
ATOM     17  C   UNL     1      49.372   1.032  -9.536  0.00  0.00    +0.005 A 
ATOM     18  C   UNL     1      50.492   0.104  -9.676  0.00  0.00    -0.033 A 
ATOM     28  C   UNL     1      51.815   0.623  -9.980  0.00  0.00    +0.005 A 
ATOM     29  C   UNL     1      52.044   2.008 -10.139  0.00  0.00    +0.013 A 
BRANCH  18  19
ATOM     19  C   UNL     1      50.343  -1.419  -9.498  0.00  0.00    +0.119 C 
BRANCH  19  20
ATOM     20  N   UNL     1      49.109  -2.054 -10.049  0.00  0.00    -0.302 NA
ATOM     21  C   UNL     1      48.890  -3.463  -9.490  0.00  0.00    +0.066 C 
ATOM     22  C   UNL     1      47.582  -4.104 -10.059  0.00  0.00    -0.064 C 
ATOM     23  N   UNL     1      47.654  -4.132 -11.587  0.00  0.00    +0.379 N 
ATOM     24  C   UNL     1      46.452  -4.787 -12.122  0.00  0.00    -0.096 C 
ATOM     25  H   UNL     1      48.534  -4.754 -11.872  0.00  0.00    -0.082 HD
ATOM     26  C   UNL     1      47.874  -2.736 -12.150  0.00  0.00    -0.064 C 
ATOM     27  C   UNL     1      49.160  -2.096 -11.556  0.00  0.00    +0.066 C 
ENDBRANCH  19  20
ENDBRANCH  18  19
ENDBRANCH  14  15
ENDBRANCH  12  13
TORSDOF 6
ENDMDL
MODEL 5
REMARK VINA RESULT:      -8.5     18.412     20.935
REMARK  Name = C:\Users\Docking\Desktop\test protocol\1iep_ligandH.pdb
REMARK  8 active torsions:
REMARK  status: ('A' for Active; 'I' for Inactive)
REMARK    1  A    between atoms: _5  and  _11
REMARK    2  A    between atoms: _19  and  _21
REMARK    3  A    between atoms: _22  and  _66
REMARK    4  A    between atoms: _27  and  _30
REMARK    5  A    between atoms: _32  and  _33
REMARK    6  A    between atoms: _38  and  _43
REMARK    7  A    between atoms: _43  and  _46
REMARK    8  A    between atoms: _53  and  _55
REMARK                            x       y       z     vdW  Elec       q    Type
REMARK                         _______ _______ _______ _____ _____    ______ ____
ROOT
ATOM     10  C   UNL     1      20.203  12.730   8.751  0.00  0.00    +0.038 A 
ATOM     11  C   UNL     1      19.769  11.464   9.221  0.00  0.00    +0.047 A 
ATOM     12  C   UNL     1      19.369  11.272  10.606  0.00  0.00    +0.035 A 
ATOM     32  C   UNL     1      19.421  12.392  11.486  0.00  0.00    +0.024 A 
ATOM     33  C   UNL     1      19.860  13.686  11.025  0.00  0.00    +0.007 A 
ATOM     34  C   UNL     1      20.258  13.881   9.660  0.00  0.00    -0.029 A 
ATOM     35  C   UNL     1      20.726  15.289   9.224  0.00  0.00    +0.045 C 
ENDROOT
BRANCH  10   9
ATOM      4  C   UNL     1      22.763  11.380   4.922  0.00  0.00    +0.077 A 
ATOM      5  C   UNL     1      23.435  10.350   5.661  0.00  0.00    +0.048 A 
ATOM      6  C   UNL     1      23.098  10.205   7.025  0.00  0.00    +0.116 A 
ATOM      7  N   UNL     1      22.158  11.034   7.598  0.00  0.00    -0.223 NA
ATOM      8  C   UNL     1      21.530  12.019   6.858  0.00  0.00    +0.220 A 
ATOM      9  N   UNL     1      20.575  12.858   7.411  0.00  0.00    -0.283 N 
ATOM     36  H   UNL     1      20.140  13.577   6.833  0.00  0.00    +0.155 HD
ATOM     37  N   UNL     1      21.835  12.178   5.553  0.00  0.00    -0.214 NA
BRANCH   4   3
ATOM      1  C   UNL     1      22.710  11.148   1.018  0.00  0.00    +0.020 A 
ATOM      2  C   UNL     1      22.442  10.840   2.404  0.00  0.00    +0.013 A 
ATOM      3  C   UNL     1      23.008  11.655   3.471  0.00  0.00    +0.019 A 
ATOM     38  C   UNL     1      23.846  12.785   3.099  0.00  0.00    +0.120 A 
ATOM     39  N   UNL     1      24.087  13.057   1.756  0.00  0.00    -0.263 NA
ATOM     40  C   UNL     1      23.550  12.279   0.720  0.00  0.00    +0.111 A 
ENDBRANCH   4   3
ENDBRANCH  10   9
BRANCH  12  13
ATOM     13  N   UNL     1      18.929  10.008  11.142  0.00  0.00    -0.281 N 
ATOM     14  C   UNL     1      19.653   8.833  11.259  0.00  0.00    +0.248 C 
ATOM     30  O   UNL     1      20.732   8.630  10.722  0.00  0.00    -0.270 OA
ATOM     31  H   UNL     1      17.965   9.975  11.475  0.00  0.00    +0.155 HD
BRANCH  14  15
ATOM     15  C   UNL     1      19.092   7.718  12.080  0.00  0.00    +0.037 A 
ATOM     16  C   UNL     1      19.765   6.418  12.159  0.00  0.00    +0.013 A 
ATOM     17  C   UNL     1      19.194   5.354  12.944  0.00  0.00    +0.005 A 
ATOM     18  C   UNL     1      17.941   5.585  13.660  0.00  0.00    -0.033 A 
ATOM     28  C   UNL     1      17.297   6.885  13.570  0.00  0.00    +0.005 A 
ATOM     29  C   UNL     1      17.854   7.931  12.799  0.00  0.00    +0.013 A 
BRANCH  18  19
ATOM     19  C   UNL     1      17.248   4.500  14.506  0.00  0.00    +0.119 C 
BRANCH  19  20
ATOM     20  N   UNL     1      16.263   3.618  13.812  0.00  0.00    -0.302 NA
ATOM     21  C   UNL     1      15.453   2.773  14.799  0.00  0.00    +0.066 C 
ATOM     22  C   UNL     1      14.411   1.874  14.058  0.00  0.00    -0.064 C 
ATOM     23  N   UNL     1      15.138   0.981  13.050  0.00  0.00    +0.379 N 
ATOM     24  C   UNL     1      14.168   0.093  12.393  0.00  0.00    -0.096 C 
ATOM     25  H   UNL     1      15.851   0.341  13.619  0.00  0.00    -0.082 HD
ATOM     26  C   UNL     1      15.948   1.813  12.066  0.00  0.00    -0.064 C 
ATOM     27  C   UNL     1      16.959   2.725  12.815  0.00  0.00    +0.066 C 
ENDBRANCH  19  20
ENDBRANCH  18  19
ENDBRANCH  14  15
ENDBRANCH  12  13
TORSDOF 6
ENDMDL
