MODEL 1
REMARK VINA RESULT:      -9.9      0.000      0.000
REMARK  Name = C:\Users\Docking\Desktop\test protocol\1iep_ligandH.pdb
REMARK  8 active torsions:
REMARK  status: ('A' for Active; 'I' for Inactive)
REMARK    1  A    between atoms: _5  and  _11
REMARK    2  A    between atoms: _19  and  _21
REMARK    3  A    between atoms: _22  and  _66
REMARK    4  A    between atoms: _27  and  _30
REMARK    5  A    between atoms: _32  and  _33
REMARK    6  A    between atoms: _38  and  _43
REMARK    7  A    between atoms: _43  and  _46
REMARK    8  A    between atoms: _53  and  _55
REMARK                            x       y       z     vdW  Elec       q    Type
REMARK                         _______ _______ _______ _____ _____    ______ ____
ROOT
ATOM     10  C   UNL     1      40.462  -8.923 -35.822  0.00  0.00    +0.038 A 
ATOM     11  C   UNL     1      39.531  -7.875 -35.606  0.00  0.00    +0.047 A 
ATOM     12  C   UNL     1      38.159  -7.978 -36.078  0.00  0.00    +0.035 A 
ATOM     32  C   UNL     1      37.768  -9.164 -36.765  0.00  0.00    +0.024 A 
ATOM     33  C   UNL     1      38.702 -10.239 -36.994  0.00  0.00    +0.007 A 
ATOM     34  C   UNL     1      40.057 -10.142 -36.532  0.00  0.00    -0.029 A 
ATOM     35  C   UNL     1      41.017 -11.322 -36.811  0.00  0.00    +0.045 C 
ENDROOT
BRANCH  10   9
ATOM      4  C   UNL     1      43.920  -9.771 -32.603  0.00  0.00    +0.077 A 
ATOM      5  C   UNL     1      43.047 -10.562 -31.786  0.00  0.00    +0.048 A 
ATOM      6  C   UNL     1      41.713 -10.720 -32.225  0.00  0.00    +0.116 A 
ATOM      7  N   UNL     1      41.295 -10.127 -33.396  0.00  0.00    -0.223 NA
ATOM      8  C   UNL     1      42.163  -9.369 -34.161  0.00  0.00    +0.220 A 
ATOM      9  N   UNL     1      41.766  -8.770 -35.347  0.00  0.00    -0.283 N 
ATOM     36  H   UNL     1      42.435  -8.213 -35.878  0.00  0.00    +0.155 HD
ATOM     37  N   UNL     1      43.441  -9.202 -33.762  0.00  0.00    -0.214 NA
BRANCH   4   3
ATOM      1  C   UNL     1      47.793  -9.311 -32.901  0.00  0.00    +0.020 A 
ATOM      2  C   UNL     1      46.420  -9.568 -33.271  0.00  0.00    +0.013 A 
ATOM      3  C   UNL     1      45.358  -9.514 -32.275  0.00  0.00    +0.019 A 
ATOM     38  C   UNL     1      45.721  -9.194 -30.902  0.00  0.00    +0.120 A 
ATOM     39  N   UNL     1      47.052  -8.953 -30.576  0.00  0.00    -0.263 NA
ATOM     40  C   UNL     1      48.083  -9.004 -31.526  0.00  0.00    +0.111 A 
ENDBRANCH   4   3
ENDBRANCH  10   9
BRANCH  12  13
ATOM     13  N   UNL     1      37.171  -6.943 -35.896  0.00  0.00    -0.281 N 
ATOM     14  C   UNL     1      37.182  -5.656 -36.408  0.00  0.00    +0.248 C 
ATOM     30  O   UNL     1      38.152  -5.128 -36.929  0.00  0.00    -0.270 OA
ATOM     31  H   UNL     1      36.367  -7.189 -35.318  0.00  0.00    +0.155 HD
BRANCH  14  15
ATOM     15  C   UNL     1      35.938  -4.832 -36.315  0.00  0.00    +0.037 A 
ATOM     16  C   UNL     1      34.945  -5.072 -35.265  0.00  0.00    +0.013 A 
ATOM     17  C   UNL     1      33.746  -4.273 -35.208  0.00  0.00    +0.005 A 
ATOM     18  C   UNL     1      33.535  -3.226 -36.205  0.00  0.00    -0.033 A 
ATOM     28  C   UNL     1      34.539  -3.006 -37.232  0.00  0.00    +0.005 A 
ATOM     29  C   UNL     1      35.715  -3.788 -37.292  0.00  0.00    +0.013 A 
BRANCH  18  19
ATOM     19  C   UNL     1      32.275  -2.340 -36.234  0.00  0.00    +0.119 C 
BRANCH  19  20
ATOM     20  N   UNL     1      31.394  -2.443 -37.435  0.00  0.00    -0.302 NA
ATOM     21  C   UNL     1      31.965  -1.680 -38.633  0.00  0.00    +0.066 C 
ATOM     22  C   UNL     1      31.041  -1.817 -39.888  0.00  0.00    -0.064 C 
ATOM     23  N   UNL     1      29.639  -1.313 -39.543  0.00  0.00    +0.379 N 
ATOM     24  C   UNL     1      28.784  -1.387 -40.736  0.00  0.00    -0.096 C 
ATOM     25  H   UNL     1      29.726  -0.240 -39.255  0.00  0.00    -0.082 HD
ATOM     26  C   UNL     1      29.065  -2.066 -38.350  0.00  0.00    -0.064 C 
ATOM     27  C   UNL     1      30.005  -1.947 -37.118  0.00  0.00    +0.066 C 
ENDBRANCH  19  20
ENDBRANCH  18  19
ENDBRANCH  14  15
ENDBRANCH  12  13
TORSDOF 6
ENDMDL
MODEL 2
REMARK VINA RESULT:      -9.4      2.201      4.096
REMARK  Name = C:\Users\Docking\Desktop\test protocol\1iep_ligandH.pdb
REMARK  8 active torsions:
REMARK  status: ('A' for Active; 'I' for Inactive)
REMARK    1  A    between atoms: _5  and  _11
REMARK    2  A    between atoms: _19  and  _21
REMARK    3  A    between atoms: _22  and  _66
REMARK    4  A    between atoms: _27  and  _30
REMARK    5  A    between atoms: _32  and  _33
REMARK    6  A    between atoms: _38  and  _43
REMARK    7  A    between atoms: _43  and  _46
REMARK    8  A    between atoms: _53  and  _55
REMARK                            x       y       z     vdW  Elec       q    Type
REMARK                         _______ _______ _______ _____ _____    ______ ____
ROOT
ATOM     10  C   UNL     1      39.096  -5.740 -37.472  0.00  0.00    +0.038 A 
ATOM     11  C   UNL     1      37.811  -5.266 -37.102  0.00  0.00    +0.047 A 
ATOM     12  C   UNL     1      36.893  -4.728 -38.093  0.00  0.00    +0.035 A 
ATOM     32  C   UNL     1      37.314  -4.690 -39.454  0.00  0.00    +0.024 A 
ATOM     33  C   UNL     1      38.616  -5.166 -39.848  0.00  0.00    +0.007 A 
ATOM     34  C   UNL     1      39.528  -5.695 -38.874  0.00  0.00    -0.029 A 
ATOM     35  C   UNL     1      40.914  -6.186 -39.353  0.00  0.00    +0.045 C 
ENDROOT
BRANCH  10   9
ATOM      4  C   UNL     1      40.975  -9.377 -34.967  0.00  0.00    +0.077 A 
ATOM      5  C   UNL     1      40.195 -10.348 -35.679  0.00  0.00    +0.048 A 
ATOM      6  C   UNL     1      39.316  -9.870 -36.677  0.00  0.00    +0.116 A 
ATOM      7  N   UNL     1      39.233  -8.519 -36.936  0.00  0.00    -0.223 NA
ATOM      8  C   UNL     1      39.999  -7.609 -36.230  0.00  0.00    +0.220 A 
ATOM      9  N   UNL     1      39.937  -6.246 -36.479  0.00  0.00    -0.283 N 
ATOM     36  H   UNL     1      40.513  -5.607 -35.932  0.00  0.00    +0.155 HD
ATOM     37  N   UNL     1      40.844  -8.040 -35.271  0.00  0.00    -0.214 NA
BRANCH   4   3
ATOM      1  C   UNL     1      42.711 -11.121 -31.926  0.00  0.00    +0.020 A 
ATOM      2  C   UNL     1      41.737 -10.824 -32.951  0.00  0.00    +0.013 A 
ATOM      3  C   UNL     1      41.951  -9.727 -33.887  0.00  0.00    +0.019 A 
ATOM     38  C   UNL     1      43.170  -8.943 -33.757  0.00  0.00    +0.120 A 
ATOM     39  N   UNL     1      44.089  -9.251 -32.759  0.00  0.00    -0.263 NA
ATOM     40  C   UNL     1      43.893 -10.304 -31.852  0.00  0.00    +0.111 A 
ENDBRANCH   4   3
ENDBRANCH  10   9
BRANCH  12  13
ATOM     13  N   UNL     1      35.579  -4.225 -37.774  0.00  0.00    -0.281 N 
ATOM     14  C   UNL     1      35.102  -2.934 -37.927  0.00  0.00    +0.248 C 
ATOM     30  O   UNL     1      35.803  -1.961 -38.163  0.00  0.00    -0.270 OA
ATOM     31  H   UNL     1      34.922  -4.904 -37.389  0.00  0.00    +0.155 HD
BRANCH  14  15
ATOM     15  C   UNL     1      33.635  -2.684 -37.782  0.00  0.00    +0.037 A 
ATOM     16  C   UNL     1      32.884  -3.210 -36.640  0.00  0.00    +0.013 A 
ATOM     17  C   UNL     1      31.467  -2.970 -36.533  0.00  0.00    +0.005 A 
ATOM     18  C   UNL     1      30.791  -2.197 -37.573  0.00  0.00    -0.033 A 
ATOM     28  C   UNL     1      31.562  -1.683 -38.693  0.00  0.00    +0.005 A 
ATOM     29  C   UNL     1      32.951  -1.918 -38.801  0.00  0.00    +0.013 A 
BRANCH  18  19
ATOM     19  C   UNL     1      29.278  -1.910 -37.552  0.00  0.00    +0.119 C 
BRANCH  19  20
ATOM     20  N   UNL     1      28.755  -0.926 -38.546  0.00  0.00    -0.302 NA
ATOM     21  C   UNL     1      28.050   0.254 -37.871  0.00  0.00    +0.066 C 
ATOM     22  C   UNL     1      27.529   1.284 -38.925  0.00  0.00    -0.064 C 
ATOM     23  N   UNL     1      26.588   0.579 -39.902  0.00  0.00    +0.379 N 
ATOM     24  C   UNL     1      26.051   1.557 -40.859  0.00  0.00    -0.096 C 
ATOM     25  H   UNL     1      25.731   0.175 -39.314  0.00  0.00    -0.082 HD
ATOM     26  C   UNL     1      27.280  -0.598 -40.576  0.00  0.00    -0.064 C 
ATOM     27  C   UNL     1      27.820  -1.601 -39.519  0.00  0.00    +0.066 C 
ENDBRANCH  19  20
ENDBRANCH  18  19
ENDBRANCH  14  15
ENDBRANCH  12  13
TORSDOF 6
ENDMDL
MODEL 3
REMARK VINA RESULT:      -9.2      2.992      5.865
REMARK  Name = C:\Users\Docking\Desktop\test protocol\1iep_ligandH.pdb
REMARK  8 active torsions:
REMARK  status: ('A' for Active; 'I' for Inactive)
REMARK    1  A    between atoms: _5  and  _11
REMARK    2  A    between atoms: _19  and  _21
REMARK    3  A    between atoms: _22  and  _66
REMARK    4  A    between atoms: _27  and  _30
REMARK    5  A    between atoms: _32  and  _33
REMARK    6  A    between atoms: _38  and  _43
REMARK    7  A    between atoms: _43  and  _46
REMARK    8  A    between atoms: _53  and  _55
REMARK                            x       y       z     vdW  Elec       q    Type
REMARK                         _______ _______ _______ _____ _____    ______ ____
ROOT
ATOM     10  C   UNL     1      37.742  -4.835 -37.826  0.00  0.00    +0.038 A 
ATOM     11  C   UNL     1      36.389  -4.462 -37.620  0.00  0.00    +0.047 A 
ATOM     12  C   UNL     1      35.651  -3.718 -38.628  0.00  0.00    +0.035 A 
ATOM     32  C   UNL     1      36.321  -3.372 -39.838  0.00  0.00    +0.024 A 
ATOM     33  C   UNL     1      37.696  -3.742 -40.064  0.00  0.00    +0.007 A 
ATOM     34  C   UNL     1      38.430  -4.474 -39.072  0.00  0.00    -0.029 A 
ATOM     35  C   UNL     1      39.904  -4.838 -39.365  0.00  0.00    +0.045 C 
ENDROOT
BRANCH  10   9
ATOM      4  C   UNL     1      39.237  -8.940 -35.838  0.00  0.00    +0.077 A 
ATOM      5  C   UNL     1      38.628  -9.730 -36.869  0.00  0.00    +0.048 A 
ATOM      6  C   UNL     1      37.933  -9.042 -37.889  0.00  0.00    +0.116 A 
ATOM      7  N   UNL     1      37.859  -7.666 -37.869  0.00  0.00    -0.223 NA
ATOM      8  C   UNL     1      38.457  -6.934 -36.860  0.00  0.00    +0.220 A 
ATOM      9  N   UNL     1      38.402  -5.549 -36.824  0.00  0.00    -0.283 N 
ATOM     36  H   UNL     1      38.850  -5.046 -36.058  0.00  0.00    +0.155 HD
ATOM     37  N   UNL     1      39.125  -7.568 -35.873  0.00  0.00    -0.214 NA
BRANCH   4   3
ATOM      1  C   UNL     1      40.452  -9.846 -32.233  0.00  0.00    +0.020 A 
ATOM      2  C   UNL     1      39.675  -9.260 -33.300  0.00  0.00    +0.013 A 
ATOM      3  C   UNL     1      40.009  -9.521 -34.695  0.00  0.00    +0.019 A 
ATOM     38  C   UNL     1      41.144 -10.386 -34.977  0.00  0.00    +0.120 A 
ATOM     39  N   UNL     1      41.875 -10.936 -33.929  0.00  0.00    -0.263 NA
ATOM     40  C   UNL     1      41.564 -10.691 -32.583  0.00  0.00    +0.111 A 
ENDBRANCH   4   3
ENDBRANCH  10   9
BRANCH  12  13
ATOM     13  N   UNL     1      34.278  -3.305 -38.471  0.00  0.00    -0.281 N 
ATOM     14  C   UNL     1      33.776  -2.015 -38.437  0.00  0.00    +0.248 C 
ATOM     30  O   UNL     1      34.460  -1.009 -38.323  0.00  0.00    -0.270 OA
ATOM     31  H   UNL     1      33.594  -4.055 -38.372  0.00  0.00    +0.155 HD
BRANCH  14  15
ATOM     15  C   UNL     1      32.298  -1.813 -38.529  0.00  0.00    +0.037 A 
ATOM     16  C   UNL     1      31.384  -2.439 -37.570  0.00  0.00    +0.013 A 
ATOM     17  C   UNL     1      29.961  -2.242 -37.692  0.00  0.00    +0.005 A 
ATOM     18  C   UNL     1      29.443  -1.412 -38.778  0.00  0.00    -0.033 A 
ATOM     28  C   UNL     1      30.373  -0.799 -39.712  0.00  0.00    +0.005 A 
ATOM     29  C   UNL     1      31.768  -0.991 -39.596  0.00  0.00    +0.013 A 
BRANCH  18  19
ATOM     19  C   UNL     1      27.939  -1.165 -38.996  0.00  0.00    +0.119 C 
BRANCH  19  20
ATOM     20  N   UNL     1      27.410   0.187 -38.644  0.00  0.00    -0.302 NA
ATOM     21  C   UNL     1      28.116   0.778 -37.420  0.00  0.00    +0.066 C 
ATOM     22  C   UNL     1      27.566   2.201 -37.079  0.00  0.00    -0.064 C 
ATOM     23  N   UNL     1      26.056   2.119 -36.847  0.00  0.00    +0.379 N 
ATOM     24  C   UNL     1      25.545   3.445 -36.469  0.00  0.00    -0.096 C 
ATOM     25  H   UNL     1      25.883   1.432 -35.986  0.00  0.00    -0.082 HD
ATOM     26  C   UNL     1      25.347   1.530 -38.057  0.00  0.00    -0.064 C 
ATOM     27  C   UNL     1      25.921   0.128 -38.406  0.00  0.00    +0.066 C 
ENDBRANCH  19  20
ENDBRANCH  18  19
ENDBRANCH  14  15
ENDBRANCH  12  13
TORSDOF 6
ENDMDL
MODEL 4
REMARK VINA RESULT:      -8.3      2.832      5.189
REMARK  Name = C:\Users\Docking\Desktop\test protocol\1iep_ligandH.pdb
REMARK  8 active torsions:
REMARK  status: ('A' for Active; 'I' for Inactive)
REMARK    1  A    between atoms: _5  and  _11
REMARK    2  A    between atoms: _19  and  _21
REMARK    3  A    between atoms: _22  and  _66
REMARK    4  A    between atoms: _27  and  _30
REMARK    5  A    between atoms: _32  and  _33
REMARK    6  A    between atoms: _38  and  _43
REMARK    7  A    between atoms: _43  and  _46
REMARK    8  A    between atoms: _53  and  _55
REMARK                            x       y       z     vdW  Elec       q    Type
REMARK                         _______ _______ _______ _____ _____    ______ ____
ROOT
ATOM     10  C   UNL     1      38.490  -5.736 -39.178  0.00  0.00    +0.038 A 
ATOM     11  C   UNL     1      37.154  -5.414 -38.828  0.00  0.00    +0.047 A 
ATOM     12  C   UNL     1      36.428  -4.361 -39.520  0.00  0.00    +0.035 A 
ATOM     32  C   UNL     1      37.093  -3.656 -40.566  0.00  0.00    +0.024 A 
ATOM     33  C   UNL     1      38.451  -3.970 -40.934  0.00  0.00    +0.007 A 
ATOM     34  C   UNL     1      39.173  -5.006 -40.253  0.00  0.00    -0.029 A 
ATOM     35  C   UNL     1      40.630  -5.295 -40.685  0.00  0.00    +0.045 C 
ENDROOT
BRANCH  10   9
ATOM      4  C   UNL     1      41.006  -7.364 -35.428  0.00  0.00    +0.077 A 
ATOM      5  C   UNL     1      41.053  -6.065 -34.820  0.00  0.00    +0.048 A 
ATOM      6  C   UNL     1      40.424  -5.003 -35.509  0.00  0.00    +0.116 A 
ATOM      7  N   UNL     1      39.797  -5.235 -36.714  0.00  0.00    -0.223 NA
ATOM      8  C   UNL     1      39.771  -6.499 -37.273  0.00  0.00    +0.220 A 
ATOM      9  N   UNL     1      39.140  -6.757 -38.480  0.00  0.00    -0.283 N 
ATOM     36  H   UNL     1      39.149  -7.702 -38.863  0.00  0.00    +0.155 HD
ATOM     37  N   UNL     1      40.366  -7.530 -36.636  0.00  0.00    -0.214 NA
BRANCH   4   3
ATOM      1  C   UNL     1      43.440  -9.771 -33.536  0.00  0.00    +0.020 A 
ATOM      2  C   UNL     1      42.889  -8.562 -34.104  0.00  0.00    +0.013 A 
ATOM      3  C   UNL     1      41.621  -8.586 -34.822  0.00  0.00    +0.019 A 
ATOM     38  C   UNL     1      40.930  -9.861 -34.948  0.00  0.00    +0.120 A 
ATOM     39  N   UNL     1      41.486 -11.009 -34.393  0.00  0.00    -0.263 NA
ATOM     40  C   UNL     1      42.706 -10.998 -33.701  0.00  0.00    +0.111 A 
ENDBRANCH   4   3
ENDBRANCH  10   9
BRANCH  12  13
ATOM     13  N   UNL     1      35.072  -3.984 -39.204  0.00  0.00    -0.281 N 
ATOM     14  C   UNL     1      34.643  -3.043 -38.282  0.00  0.00    +0.248 C 
ATOM     30  O   UNL     1      35.357  -2.532 -37.433  0.00  0.00    -0.270 OA
ATOM     31  H   UNL     1      34.341  -4.470 -39.722  0.00  0.00    +0.155 HD
BRANCH  14  15
ATOM     15  C   UNL     1      33.209  -2.620 -38.297  0.00  0.00    +0.037 A 
ATOM     16  C   UNL     1      32.694  -1.718 -39.329  0.00  0.00    +0.013 A 
ATOM     17  C   UNL     1      31.311  -1.312 -39.310  0.00  0.00    +0.005 A 
ATOM     18  C   UNL     1      30.433  -1.810 -38.254  0.00  0.00    -0.033 A 
ATOM     28  C   UNL     1      30.969  -2.708 -37.245  0.00  0.00    +0.005 A 
ATOM     29  C   UNL     1      32.324  -3.107 -37.260  0.00  0.00    +0.013 A 
BRANCH  18  19
ATOM     19  C   UNL     1      28.949  -1.412 -38.144  0.00  0.00    +0.119 C 
BRANCH  19  20
ATOM     20  N   UNL     1      28.530  -0.142 -38.808  0.00  0.00    -0.302 NA
ATOM     21  C   UNL     1      27.795   0.795 -37.846  0.00  0.00    +0.066 C 
ATOM     22  C   UNL     1      27.384   2.128 -38.552  0.00  0.00    -0.064 C 
ATOM     23  N   UNL     1      26.513   1.810 -39.768  0.00  0.00    +0.379 N 
ATOM     24  C   UNL     1      26.077   3.063 -40.400  0.00  0.00    -0.096 C 
ATOM     25  H   UNL     1      25.603   1.280 -39.403  0.00  0.00    -0.082 HD
ATOM     26  C   UNL     1      27.235   0.876 -40.730  0.00  0.00    -0.064 C 
ATOM     27  C   UNL     1      27.665  -0.433 -40.011  0.00  0.00    +0.066 C 
ENDBRANCH  19  20
ENDBRANCH  18  19
ENDBRANCH  14  15
ENDBRANCH  12  13
TORSDOF 6
ENDMDL
MODEL 5
REMARK VINA RESULT:      -7.8     35.865     40.390
REMARK  Name = C:\Users\Docking\Desktop\test protocol\1iep_ligandH.pdb
REMARK  8 active torsions:
REMARK  status: ('A' for Active; 'I' for Inactive)
REMARK    1  A    between atoms: _5  and  _11
REMARK    2  A    between atoms: _19  and  _21
REMARK    3  A    between atoms: _22  and  _66
REMARK    4  A    between atoms: _27  and  _30
REMARK    5  A    between atoms: _32  and  _33
REMARK    6  A    between atoms: _38  and  _43
REMARK    7  A    between atoms: _43  and  _46
REMARK    8  A    between atoms: _53  and  _55
REMARK                            x       y       z     vdW  Elec       q    Type
REMARK                         _______ _______ _______ _____ _____    ______ ____
ROOT
ATOM     10  C   UNL     1      34.670   0.503   1.114  0.00  0.00    +0.038 A 
ATOM     11  C   UNL     1      35.520  -0.477   1.689  0.00  0.00    +0.047 A 
ATOM     12  C   UNL     1      36.108  -0.284   3.006  0.00  0.00    +0.035 A 
ATOM     32  C   UNL     1      35.807   0.918   3.710  0.00  0.00    +0.024 A 
ATOM     33  C   UNL     1      34.946   1.925   3.140  0.00  0.00    +0.007 A 
ATOM     34  C   UNL     1      34.365   1.741   1.841  0.00  0.00    -0.029 A 
ATOM     35  C   UNL     1      33.455   2.856   1.277  0.00  0.00    +0.045 C 
ENDROOT
BRANCH  10   9
ATOM      4  C   UNL     1      34.813   0.827  -3.672  0.00  0.00    +0.077 A 
ATOM      5  C   UNL     1      36.049   1.554  -3.645  0.00  0.00    +0.048 A 
ATOM      6  C   UNL     1      36.612   1.830  -2.379  0.00  0.00    +0.116 A 
ATOM      7  N   UNL     1      35.977   1.406  -1.232  0.00  0.00    -0.223 NA
ATOM      8  C   UNL     1      34.785   0.708  -1.293  0.00  0.00    +0.220 A 
ATOM      9  N   UNL     1      34.133   0.265  -0.153  0.00  0.00    -0.283 N 
ATOM     36  H   UNL     1      33.251  -0.240  -0.240  0.00  0.00    +0.155 HD
ATOM     37  N   UNL     1      34.226   0.433  -2.490  0.00  0.00    -0.214 NA
BRANCH   4   3
ATOM      1  C   UNL     1      34.003  -0.591  -7.227  0.00  0.00    +0.020 A 
ATOM      2  C   UNL     1      34.740  -0.255  -6.031  0.00  0.00    +0.013 A 
ATOM      3  C   UNL     1      34.096   0.455  -4.933  0.00  0.00    +0.019 A 
ATOM     38  C   UNL     1      32.694   0.814  -5.079  0.00  0.00    +0.120 A 
ATOM     39  N   UNL     1      32.009   0.479  -6.243  0.00  0.00    -0.263 NA
ATOM     40  C   UNL     1      32.619  -0.203  -7.307  0.00  0.00    +0.111 A 
ENDBRANCH   4   3
ENDBRANCH  10   9
BRANCH  12  13
ATOM     13  N   UNL     1      36.984  -1.239   3.637  0.00  0.00    -0.281 N 
ATOM     14  C   UNL     1      38.333  -1.100   3.920  0.00  0.00    +0.248 C 
ATOM     30  O   UNL     1      39.044  -0.210   3.478  0.00  0.00    -0.270 OA
ATOM     31  H   UNL     1      36.558  -2.126   3.908  0.00  0.00    +0.155 HD
BRANCH  14  15
ATOM     15  C   UNL     1      38.990  -2.103   4.812  0.00  0.00    +0.037 A 
ATOM     16  C   UNL     1      39.871  -1.686   5.905  0.00  0.00    +0.013 A 
ATOM     17  C   UNL     1      40.506  -2.675   6.740  0.00  0.00    +0.005 A 
ATOM     18  C   UNL     1      40.261  -4.092   6.484  0.00  0.00    -0.033 A 
ATOM     28  C   UNL     1      39.379  -4.478   5.396  0.00  0.00    +0.005 A 
ATOM     29  C   UNL     1      38.756  -3.512   4.575  0.00  0.00    +0.013 A 
BRANCH  18  19
ATOM     19  C   UNL     1      40.914  -5.216   7.311  0.00  0.00    +0.119 C 
BRANCH  19  20
ATOM     20  N   UNL     1      41.894  -4.811   8.362  0.00  0.00    -0.302 NA
ATOM     21  C   UNL     1      43.325  -4.752   7.822  0.00  0.00    +0.066 C 
ATOM     22  C   UNL     1      44.334  -4.305   8.929  0.00  0.00    -0.064 C 
ATOM     23  N   UNL     1      44.242  -5.265  10.117  0.00  0.00    +0.379 N 
ATOM     24  C   UNL     1      45.231  -4.882  11.135  0.00  0.00    -0.096 C 
ATOM     25  H   UNL     1      44.512  -6.283   9.750  0.00  0.00    -0.082 HD
ATOM     26  C   UNL     1      42.822  -5.332  10.659  0.00  0.00    -0.064 C 
ATOM     27  C   UNL     1      41.823  -5.748   9.543  0.00  0.00    +0.066 C 
ENDBRANCH  19  20
ENDBRANCH  18  19
ENDBRANCH  14  15
ENDBRANCH  12  13
TORSDOF 6
ENDMDL
