MODEL 1
REMARK VINA RESULT:      -7.5      0.000      0.000
REMARK  Name = C:\Users\Docking\Desktop\test protocol\1iep_ligandH.pdb
REMARK  8 active torsions:
REMARK  status: ('A' for Active; 'I' for Inactive)
REMARK    1  A    between atoms: _5  and  _11
REMARK    2  A    between atoms: _19  and  _21
REMARK    3  A    between atoms: _22  and  _66
REMARK    4  A    between atoms: _27  and  _30
REMARK    5  A    between atoms: _32  and  _33
REMARK    6  A    between atoms: _38  and  _43
REMARK    7  A    between atoms: _43  and  _46
REMARK    8  A    between atoms: _53  and  _55
REMARK                            x       y       z     vdW  Elec       q    Type
REMARK                         _______ _______ _______ _____ _____    ______ ____
ROOT
ATOM     10  C   UNL     1      40.707 -25.892   9.642  0.00  0.00    +0.038 A 
ATOM     11  C   UNL     1      41.636 -24.956  10.165  0.00  0.00    +0.047 A 
ATOM     12  C   UNL     1      41.438 -23.525   9.997  0.00  0.00    +0.035 A 
ATOM     32  C   UNL     1      40.281 -23.081   9.294  0.00  0.00    +0.024 A 
ATOM     33  C   UNL     1      39.327 -24.018   8.754  0.00  0.00    +0.007 A 
ATOM     34  C   UNL     1      39.518 -25.431   8.915  0.00  0.00    -0.029 A 
ATOM     35  C   UNL     1      38.467 -26.390   8.310  0.00  0.00    +0.045 C 
ENDROOT
BRANCH  10   9
ATOM      4  C   UNL     1      42.451 -30.125   8.200  0.00  0.00    +0.077 A 
ATOM      5  C   UNL     1      42.898 -29.581   6.949  0.00  0.00    +0.048 A 
ATOM      6  C   UNL     1      42.654 -28.210   6.714  0.00  0.00    +0.116 A 
ATOM      7  N   UNL     1      42.010 -27.448   7.664  0.00  0.00    -0.223 NA
ATOM      8  C   UNL     1      41.590 -28.004   8.859  0.00  0.00    +0.220 A 
ATOM      9  N   UNL     1      40.947 -27.255   9.832  0.00  0.00    -0.283 N 
ATOM     36  H   UNL     1      40.646 -27.703  10.697  0.00  0.00    +0.155 HD
ATOM     37  N   UNL     1      41.810 -29.312   9.107  0.00  0.00    -0.214 NA
BRANCH   4   3
ATOM      1  C   UNL     1      43.427 -33.912   8.161  0.00  0.00    +0.020 A 
ATOM      2  C   UNL     1      43.270 -32.542   7.729  0.00  0.00    +0.013 A 
ATOM      3  C   UNL     1      42.638 -31.556   8.597  0.00  0.00    +0.019 A 
ATOM     38  C   UNL     1      42.174 -31.991   9.905  0.00  0.00    +0.120 A 
ATOM     39  N   UNL     1      42.338 -33.317  10.293  0.00  0.00    -0.263 NA
ATOM     40  C   UNL     1      42.943 -34.276   9.466  0.00  0.00    +0.111 A 
ENDBRANCH   4   3
ENDBRANCH  10   9
BRANCH  12  13
ATOM     13  N   UNL     1      42.351 -22.528  10.499  0.00  0.00    -0.281 N 
ATOM     14  C   UNL     1      42.177 -21.682  11.582  0.00  0.00    +0.248 C 
ATOM     30  O   UNL     1      41.113 -21.505  12.157  0.00  0.00    -0.270 OA
ATOM     31  H   UNL     1      43.233 -22.436   9.996  0.00  0.00    +0.155 HD
BRANCH  14  15
ATOM     15  C   UNL     1      43.350 -20.908  12.090  0.00  0.00    +0.037 A 
ATOM     16  C   UNL     1      44.704 -21.468  12.050  0.00  0.00    +0.013 A 
ATOM     17  C   UNL     1      45.816 -20.707  12.562  0.00  0.00    +0.005 A 
ATOM     18  C   UNL     1      45.579 -19.378  13.119  0.00  0.00    -0.033 A 
ATOM     28  C   UNL     1      44.227 -18.845  13.142  0.00  0.00    +0.005 A 
ATOM     29  C   UNL     1      43.134 -19.588  12.642  0.00  0.00    +0.013 A 
BRANCH  18  19
ATOM     19  C   UNL     1      46.703 -18.505  13.708  0.00  0.00    +0.119 C 
BRANCH  19  20
ATOM     20  N   UNL     1      48.093 -18.764  13.227  0.00  0.00    -0.302 NA
ATOM     21  C   UNL     1      49.146 -18.274  14.225  0.00  0.00    +0.066 C 
ATOM     22  C   UNL     1      50.594 -18.574  13.717  0.00  0.00    -0.064 C 
ATOM     23  N   UNL     1      50.797 -17.919  12.349  0.00  0.00    +0.379 N 
ATOM     24  C   UNL     1      52.177 -18.150  11.895  0.00  0.00    -0.096 C 
ATOM     25  H   UNL     1      50.663 -16.820  12.478  0.00  0.00    -0.082 HD
ATOM     26  C   UNL     1      49.752 -18.399  11.352  0.00  0.00    -0.064 C 
ATOM     27  C   UNL     1      48.317 -18.123  11.880  0.00  0.00    +0.066 C 
ENDBRANCH  19  20
ENDBRANCH  18  19
ENDBRANCH  14  15
ENDBRANCH  12  13
TORSDOF 6
ENDMDL
MODEL 2
REMARK VINA RESULT:      -7.3     28.665     31.863
REMARK  Name = C:\Users\Docking\Desktop\test protocol\1iep_ligandH.pdb
REMARK  8 active torsions:
REMARK  status: ('A' for Active; 'I' for Inactive)
REMARK    1  A    between atoms: _5  and  _11
REMARK    2  A    between atoms: _19  and  _21
REMARK    3  A    between atoms: _22  and  _66
REMARK    4  A    between atoms: _27  and  _30
REMARK    5  A    between atoms: _32  and  _33
REMARK    6  A    between atoms: _38  and  _43
REMARK    7  A    between atoms: _43  and  _46
REMARK    8  A    between atoms: _53  and  _55
REMARK                            x       y       z     vdW  Elec       q    Type
REMARK                         _______ _______ _______ _____ _____    ______ ____
ROOT
ATOM     10  C   UNL     1      57.673 -22.905 -17.984  0.00  0.00    +0.038 A 
ATOM     11  C   UNL     1      56.259 -22.940 -17.886  0.00  0.00    +0.047 A 
ATOM     12  C   UNL     1      55.420 -22.806 -19.067  0.00  0.00    +0.035 A 
ATOM     32  C   UNL     1      56.055 -22.641 -20.332  0.00  0.00    +0.024 A 
ATOM     33  C   UNL     1      57.491 -22.602 -20.450  0.00  0.00    +0.007 A 
ATOM     34  C   UNL     1      58.324 -22.731 -19.289  0.00  0.00    -0.029 A 
ATOM     35  C   UNL     1      59.859 -22.677 -19.473  0.00  0.00    +0.045 C 
ENDROOT
BRANCH  10   9
ATOM      4  C   UNL     1      60.308 -25.497 -14.922  0.00  0.00    +0.077 A 
ATOM      5  C   UNL     1      60.138 -26.693 -15.696  0.00  0.00    +0.048 A 
ATOM      6  C   UNL     1      59.360 -26.600 -16.871  0.00  0.00    +0.116 A 
ATOM      7  N   UNL     1      58.798 -25.396 -17.236  0.00  0.00    -0.223 NA
ATOM      8  C   UNL     1      58.980 -24.262 -16.466  0.00  0.00    +0.220 A 
ATOM      9  N   UNL     1      58.431 -23.039 -16.818  0.00  0.00    -0.283 N 
ATOM     36  H   UNL     1      58.582 -22.227 -16.220  0.00  0.00    +0.155 HD
ATOM     37  N   UNL     1      59.717 -24.325 -15.338  0.00  0.00    -0.214 NA
BRANCH   4   3
ATOM      1  C   UNL     1      61.764 -24.339 -11.481  0.00  0.00    +0.020 A 
ATOM      2  C   UNL     1      60.971 -24.353 -12.688  0.00  0.00    +0.013 A 
ATOM      3  C   UNL     1      61.105 -25.434 -13.656  0.00  0.00    +0.019 A 
ATOM     38  C   UNL     1      62.057 -26.496 -13.369  0.00  0.00    +0.120 A 
ATOM     39  N   UNL     1      62.809 -26.456 -12.199  0.00  0.00    -0.263 NA
ATOM     40  C   UNL     1      62.690 -25.419 -11.261  0.00  0.00    +0.111 A 
ENDBRANCH   4   3
ENDBRANCH  10   9
BRANCH  12  13
ATOM     13  N   UNL     1      53.978 -22.825 -19.028  0.00  0.00    -0.281 N 
ATOM     14  C   UNL     1      53.095 -22.148 -19.853  0.00  0.00    +0.248 C 
ATOM     30  O   UNL     1      53.414 -21.251 -20.619  0.00  0.00    -0.270 OA
ATOM     31  H   UNL     1      53.558 -23.408 -18.304  0.00  0.00    +0.155 HD
BRANCH  14  15
ATOM     15  C   UNL     1      51.646 -22.511 -19.811  0.00  0.00    +0.037 A 
ATOM     16  C   UNL     1      50.627 -21.638 -20.399  0.00  0.00    +0.013 A 
ATOM     17  C   UNL     1      49.234 -22.003 -20.330  0.00  0.00    +0.005 A 
ATOM     18  C   UNL     1      48.852 -23.250 -19.671  0.00  0.00    -0.033 A 
ATOM     28  C   UNL     1      49.884 -24.100 -19.101  0.00  0.00    +0.005 A 
ATOM     29  C   UNL     1      51.250 -23.745 -19.166  0.00  0.00    +0.013 A 
BRANCH  18  19
ATOM     19  C   UNL     1      47.389 -23.709 -19.532  0.00  0.00    +0.119 C 
BRANCH  19  20
ATOM     20  N   UNL     1      46.483 -22.863 -18.698  0.00  0.00    -0.302 NA
ATOM     21  C   UNL     1      45.023 -22.970 -19.146  0.00  0.00    +0.066 C 
ATOM     22  C   UNL     1      44.087 -22.097 -18.249  0.00  0.00    -0.064 C 
ATOM     23  N   UNL     1      44.560 -20.643 -18.287  0.00  0.00    +0.379 N 
ATOM     24  C   UNL     1      43.647 -19.809 -17.491  0.00  0.00    -0.096 C 
ATOM     25  H   UNL     1      44.499 -20.295 -19.345  0.00  0.00    -0.082 HD
ATOM     26  C   UNL     1      46.012 -20.527 -17.846  0.00  0.00    -0.064 C 
ATOM     27  C   UNL     1      46.930 -21.422 -18.725  0.00  0.00    +0.066 C 
ENDBRANCH  19  20
ENDBRANCH  18  19
ENDBRANCH  14  15
ENDBRANCH  12  13
TORSDOF 6
ENDMDL
MODEL 3
REMARK VINA RESULT:      -7.2     20.369     25.927
REMARK  Name = C:\Users\Docking\Desktop\test protocol\1iep_ligandH.pdb
REMARK  8 active torsions:
REMARK  status: ('A' for Active; 'I' for Inactive)
REMARK    1  A    between atoms: _5  and  _11
REMARK    2  A    between atoms: _19  and  _21
REMARK    3  A    between atoms: _22  and  _66
REMARK    4  A    between atoms: _27  and  _30
REMARK    5  A    between atoms: _32  and  _33
REMARK    6  A    between atoms: _38  and  _43
REMARK    7  A    between atoms: _43  and  _46
REMARK    8  A    between atoms: _53  and  _55
REMARK                            x       y       z     vdW  Elec       q    Type
REMARK                         _______ _______ _______ _____ _____    ______ ____
ROOT
ATOM     10  C   UNL     1      42.177  -3.730   7.806  0.00  0.00    +0.038 A 
ATOM     11  C   UNL     1      41.200  -3.157   6.953  0.00  0.00    +0.047 A 
ATOM     12  C   UNL     1      40.027  -3.910   6.539  0.00  0.00    +0.035 A 
ATOM     32  C   UNL     1      39.879  -5.245   7.016  0.00  0.00    +0.024 A 
ATOM     33  C   UNL     1      40.863  -5.844   7.883  0.00  0.00    +0.007 A 
ATOM     34  C   UNL     1      42.024  -5.106   8.292  0.00  0.00    -0.029 A 
ATOM     35  C   UNL     1      43.050  -5.801   9.217  0.00  0.00    +0.045 C 
ENDROOT
BRANCH  10   9
ATOM      4  C   UNL     1      46.720  -2.298   7.210  0.00  0.00    +0.077 A 
ATOM      5  C   UNL     1      46.912  -3.177   6.092  0.00  0.00    +0.048 A 
ATOM      6  C   UNL     1      45.819  -3.986   5.707  0.00  0.00    +0.116 A 
ATOM      7  N   UNL     1      44.628  -3.913   6.395  0.00  0.00    -0.223 NA
ATOM      8  C   UNL     1      44.476  -3.056   7.470  0.00  0.00    +0.220 A 
ATOM      9  N   UNL     1      43.284  -2.961   8.171  0.00  0.00    -0.283 N 
ATOM     36  H   UNL     1      43.215  -2.322   8.963  0.00  0.00    +0.155 HD
ATOM     37  N   UNL     1      45.505  -2.274   7.858  0.00  0.00    -0.214 NA
BRANCH   4   3
ATOM      1  C   UNL     1      50.140  -0.875   8.466  0.00  0.00    +0.020 A 
ATOM      2  C   UNL     1      49.155  -1.802   7.958  0.00  0.00    +0.013 A 
ATOM      3  C   UNL     1      47.779  -1.379   7.734  0.00  0.00    +0.019 A 
ATOM     38  C   UNL     1      47.428   0.000   8.037  0.00  0.00    +0.120 A 
ATOM     39  N   UNL     1      48.397   0.870   8.527  0.00  0.00    -0.263 NA
ATOM     40  C   UNL     1      49.725   0.474   8.747  0.00  0.00    +0.111 A 
ENDBRANCH   4   3
ENDBRANCH  10   9
BRANCH  12  13
ATOM     13  N   UNL     1      39.005  -3.384   5.668  0.00  0.00    -0.281 N 
ATOM     14  C   UNL     1      38.247  -2.237   5.841  0.00  0.00    +0.248 C 
ATOM     30  O   UNL     1      38.183  -1.601   6.882  0.00  0.00    -0.270 OA
ATOM     31  H   UNL     1      38.819  -3.921   4.822  0.00  0.00    +0.155 HD
BRANCH  14  15
ATOM     15  C   UNL     1      37.431  -1.732   4.695  0.00  0.00    +0.037 A 
ATOM     16  C   UNL     1      37.986  -1.657   3.341  0.00  0.00    +0.013 A 
ATOM     17  C   UNL     1      37.182  -1.150   2.257  0.00  0.00    +0.005 A 
ATOM     18  C   UNL     1      35.813  -0.715   2.523  0.00  0.00    -0.033 A 
ATOM     28  C   UNL     1      35.286  -0.805   3.875  0.00  0.00    +0.005 A 
ATOM     29  C   UNL     1      36.071  -1.301   4.940  0.00  0.00    +0.013 A 
BRANCH  18  19
ATOM     19  C   UNL     1      34.891  -0.141   1.431  0.00  0.00    +0.119 C 
BRANCH  19  20
ATOM     20  N   UNL     1      35.160   1.255   0.973  0.00  0.00    -0.302 NA
ATOM     21  C   UNL     1      33.917   2.143   1.077  0.00  0.00    +0.066 C 
ATOM     22  C   UNL     1      34.223   3.605   0.615  0.00  0.00    -0.064 C 
ATOM     23  N   UNL     1      34.755   3.583  -0.819  0.00  0.00    +0.379 N 
ATOM     24  C   UNL     1      34.988   4.961  -1.277  0.00  0.00    -0.096 C 
ATOM     25  H   UNL     1      33.962   3.141  -1.467  0.00  0.00    -0.082 HD
ATOM     26  C   UNL     1      35.989   2.700  -0.932  0.00  0.00    -0.064 C 
ATOM     27  C   UNL     1      35.683   1.257  -0.442  0.00  0.00    +0.066 C 
ENDBRANCH  19  20
ENDBRANCH  18  19
ENDBRANCH  14  15
ENDBRANCH  12  13
TORSDOF 6
ENDMDL
MODEL 4
REMARK VINA RESULT:      -7.1     23.838     27.637
REMARK  Name = C:\Users\Docking\Desktop\test protocol\1iep_ligandH.pdb
REMARK  8 active torsions:
REMARK  status: ('A' for Active; 'I' for Inactive)
REMARK    1  A    between atoms: _5  and  _11
REMARK    2  A    between atoms: _19  and  _21
REMARK    3  A    between atoms: _22  and  _66
REMARK    4  A    between atoms: _27  and  _30
REMARK    5  A    between atoms: _32  and  _33
REMARK    6  A    between atoms: _38  and  _43
REMARK    7  A    between atoms: _43  and  _46
REMARK    8  A    between atoms: _53  and  _55
REMARK                            x       y       z     vdW  Elec       q    Type
REMARK                         _______ _______ _______ _____ _____    ______ ____
ROOT
ATOM     10  C   UNL     1      36.070   1.989  -0.275  0.00  0.00    +0.038 A 
ATOM     11  C   UNL     1      36.585   1.002   0.604  0.00  0.00    +0.047 A 
ATOM     12  C   UNL     1      37.439   1.364   1.725  0.00  0.00    +0.035 A 
ATOM     32  C   UNL     1      37.746   2.742   1.922  0.00  0.00    +0.024 A 
ATOM     33  C   UNL     1      37.232   3.758   1.038  0.00  0.00    +0.007 A 
ATOM     34  C   UNL     1      36.391   3.407  -0.071  0.00  0.00    -0.029 A 
ATOM     35  C   UNL     1      35.874   4.537  -0.991  0.00  0.00    +0.045 C 
ENDROOT
BRANCH  10   9
ATOM      4  C   UNL     1      35.370   0.887  -4.894  0.00  0.00    +0.077 A 
ATOM      5  C   UNL     1      36.737   1.165  -5.229  0.00  0.00    +0.048 A 
ATOM      6  C   UNL     1      37.586   1.597  -4.185  0.00  0.00    +0.116 A 
ATOM      7  N   UNL     1      37.094   1.735  -2.905  0.00  0.00    -0.223 NA
ATOM      8  C   UNL     1      35.770   1.460  -2.617  0.00  0.00    +0.220 A 
ATOM      9  N   UNL     1      35.255   1.585  -1.335  0.00  0.00    -0.283 N 
ATOM     36  H   UNL     1      34.271   1.379  -1.165  0.00  0.00    +0.155 HD
ATOM     37  N   UNL     1      34.938   1.048  -3.596  0.00  0.00    -0.214 NA
BRANCH   4   3
ATOM      1  C   UNL     1      33.652  -0.899  -7.921  0.00  0.00    +0.020 A 
ATOM      2  C   UNL     1      34.673  -0.477  -6.990  0.00  0.00    +0.013 A 
ATOM      3  C   UNL     1      34.351   0.419  -5.886  0.00  0.00    +0.019 A 
ATOM     38  C   UNL     1      32.975   0.873  -5.751  0.00  0.00    +0.120 A 
ATOM     39  N   UNL     1      32.013   0.451  -6.664  0.00  0.00    -0.263 NA
ATOM     40  C   UNL     1      32.312  -0.410  -7.730  0.00  0.00    +0.111 A 
ENDBRANCH   4   3
ENDBRANCH  10   9
BRANCH  12  13
ATOM     13  N   UNL     1      37.997   0.406   2.646  0.00  0.00    -0.281 N 
ATOM     14  C   UNL     1      37.510   0.035   3.888  0.00  0.00    +0.248 C 
ATOM     30  O   UNL     1      36.630   0.631   4.492  0.00  0.00    -0.270 OA
ATOM     31  H   UNL     1      38.856  -0.055   2.345  0.00  0.00    +0.155 HD
BRANCH  14  15
ATOM     15  C   UNL     1      38.094  -1.164   4.564  0.00  0.00    +0.037 A 
ATOM     16  C   UNL     1      38.250  -1.214   6.020  0.00  0.00    +0.013 A 
ATOM     17  C   UNL     1      38.833  -2.375   6.645  0.00  0.00    +0.005 A 
ATOM     18  C   UNL     1      39.262  -3.496   5.814  0.00  0.00    -0.033 A 
ATOM     28  C   UNL     1      39.091  -3.422   4.372  0.00  0.00    +0.005 A 
ATOM     29  C   UNL     1      38.521  -2.286   3.756  0.00  0.00    +0.013 A 
BRANCH  18  19
ATOM     19  C   UNL     1      39.913  -4.766   6.393  0.00  0.00    +0.119 C 
BRANCH  19  20
ATOM     20  N   UNL     1      40.792  -4.599   7.589  0.00  0.00    -0.302 NA
ATOM     21  C   UNL     1      42.166  -4.035   7.216  0.00  0.00    +0.066 C 
ATOM     22  C   UNL     1      43.066  -3.846   8.481  0.00  0.00    -0.064 C 
ATOM     23  N   UNL     1      43.208  -5.185   9.207  0.00  0.00    +0.379 N 
ATOM     24  C   UNL     1      44.100  -5.022  10.365  0.00  0.00    -0.096 C 
ATOM     25  H   UNL     1      43.694  -5.900   8.504  0.00  0.00    -0.082 HD
ATOM     26  C   UNL     1      41.847  -5.754   9.579  0.00  0.00    -0.064 C 
ATOM     27  C   UNL     1      40.951  -5.911   8.318  0.00  0.00    +0.066 C 
ENDBRANCH  19  20
ENDBRANCH  18  19
ENDBRANCH  14  15
ENDBRANCH  12  13
TORSDOF 6
ENDMDL
MODEL 5
REMARK VINA RESULT:      -7.1     22.223     27.589
REMARK  Name = C:\Users\Docking\Desktop\test protocol\1iep_ligandH.pdb
REMARK  8 active torsions:
REMARK  status: ('A' for Active; 'I' for Inactive)
REMARK    1  A    between atoms: _5  and  _11
REMARK    2  A    between atoms: _19  and  _21
REMARK    3  A    between atoms: _22  and  _66
REMARK    4  A    between atoms: _27  and  _30
REMARK    5  A    between atoms: _32  and  _33
REMARK    6  A    between atoms: _38  and  _43
REMARK    7  A    between atoms: _43  and  _46
REMARK    8  A    between atoms: _53  and  _55
REMARK                            x       y       z     vdW  Elec       q    Type
REMARK                         _______ _______ _______ _____ _____    ______ ____
ROOT
ATOM     10  C   UNL     1      47.427  -0.507   6.437  0.00  0.00    +0.038 A 
ATOM     11  C   UNL     1      47.156   0.436   5.412  0.00  0.00    +0.047 A 
ATOM     12  C   UNL     1      48.231   1.157   4.750  0.00  0.00    +0.035 A 
ATOM     32  C   UNL     1      49.572   0.891   5.154  0.00  0.00    +0.024 A 
ATOM     33  C   UNL     1      49.866  -0.063   6.194  0.00  0.00    +0.007 A 
ATOM     34  C   UNL     1      48.808  -0.775   6.853  0.00  0.00    -0.029 A 
ATOM     35  C   UNL     1      49.181  -1.782   7.967  0.00  0.00    +0.045 C 
ENDROOT
BRANCH  10   9
ATOM      4  C   UNL     1      44.488  -4.277   6.871  0.00  0.00    +0.077 A 
ATOM      5  C   UNL     1      45.123  -4.972   5.788  0.00  0.00    +0.048 A 
ATOM      6  C   UNL     1      46.198  -4.321   5.141  0.00  0.00    +0.116 A 
ATOM      7  N   UNL     1      46.599  -3.069   5.555  0.00  0.00    -0.223 NA
ATOM      8  C   UNL     1      45.964  -2.426   6.602  0.00  0.00    +0.220 A 
ATOM      9  N   UNL     1      46.356  -1.171   7.039  0.00  0.00    -0.283 N 
ATOM     36  H   UNL     1      45.857  -0.727   7.810  0.00  0.00    +0.155 HD
ATOM     37  N   UNL     1      44.934  -3.026   7.235  0.00  0.00    -0.214 NA
BRANCH   4   3
ATOM      1  C   UNL     1      40.916  -5.477   7.921  0.00  0.00    +0.020 A 
ATOM      2  C   UNL     1      41.988  -4.930   7.121  0.00  0.00    +0.013 A 
ATOM      3  C   UNL     1      43.341  -4.834   7.655  0.00  0.00    +0.019 A 
ATOM     38  C   UNL     1      43.577  -5.305   9.012  0.00  0.00    +0.120 A 
ATOM     39  N   UNL     1      42.525  -5.826   9.758  0.00  0.00    -0.263 NA
ATOM     40  C   UNL     1      41.219  -5.922   9.256  0.00  0.00    +0.111 A 
ENDBRANCH   4   3
ENDBRANCH  10   9
BRANCH  12  13
ATOM     13  N   UNL     1      48.016   2.131   3.708  0.00  0.00    -0.281 N 
ATOM     14  C   UNL     1      47.649   3.459   3.848  0.00  0.00    +0.248 C 
ATOM     30  O   UNL     1      47.240   3.958   4.886  0.00  0.00    -0.270 OA
ATOM     31  H   UNL     1      48.152   1.801   2.753  0.00  0.00    +0.155 HD
BRANCH  14  15
ATOM     15  C   UNL     1      47.736   4.361   2.659  0.00  0.00    +0.037 A 
ATOM     16  C   UNL     1      46.552   5.052   2.141  0.00  0.00    +0.013 A 
ATOM     17  C   UNL     1      46.660   5.902   0.983  0.00  0.00    +0.005 A 
ATOM     18  C   UNL     1      47.959   6.068   0.334  0.00  0.00    -0.033 A 
ATOM     28  C   UNL     1      49.118   5.375   0.872  0.00  0.00    +0.005 A 
ATOM     29  C   UNL     1      49.016   4.540   2.007  0.00  0.00    +0.013 A 
BRANCH  18  19
ATOM     19  C   UNL     1      48.163   6.939  -0.919  0.00  0.00    +0.119 C 
BRANCH  19  20
ATOM     20  N   UNL     1      47.467   6.512  -2.170  0.00  0.00    -0.302 NA
ATOM     21  C   UNL     1      48.394   6.557  -3.388  0.00  0.00    +0.066 C 
ATOM     22  C   UNL     1      47.655   6.086  -4.683  0.00  0.00    -0.064 C 
ATOM     23  N   UNL     1      46.421   6.960  -4.909  0.00  0.00    +0.379 N 
ATOM     24  C   UNL     1      45.757   6.556  -6.157  0.00  0.00    -0.096 C 
ATOM     25  H   UNL     1      46.769   8.011  -5.035  0.00  0.00    -0.082 HD
ATOM     26  C   UNL     1      45.495   6.923  -3.702  0.00  0.00    -0.064 C 
ATOM     27  C   UNL     1      46.246   7.365  -2.415  0.00  0.00    +0.066 C 
ENDBRANCH  19  20
ENDBRANCH  18  19
ENDBRANCH  14  15
ENDBRANCH  12  13
TORSDOF 6
ENDMDL
