MODEL 1
REMARK VINA RESULT:      -7.6      0.000      0.000
REMARK  Name = C:\Users\Docking\Desktop\test protocol\1iep_ligandH.pdb
REMARK  8 active torsions:
REMARK  status: ('A' for Active; 'I' for Inactive)
REMARK    1  A    between atoms: _5  and  _11
REMARK    2  A    between atoms: _19  and  _21
REMARK    3  A    between atoms: _22  and  _66
REMARK    4  A    between atoms: _27  and  _30
REMARK    5  A    between atoms: _32  and  _33
REMARK    6  A    between atoms: _38  and  _43
REMARK    7  A    between atoms: _43  and  _46
REMARK    8  A    between atoms: _53  and  _55
REMARK                            x       y       z     vdW  Elec       q    Type
REMARK                         _______ _______ _______ _____ _____    ______ ____
ROOT
ATOM     10  C   UNL     1      59.330 -34.185   2.978  0.00  0.00    +0.038 A 
ATOM     11  C   UNL     1      58.085 -34.273   2.303  0.00  0.00    +0.047 A 
ATOM     12  C   UNL     1      57.905 -35.166   1.169  0.00  0.00    +0.035 A 
ATOM     32  C   UNL     1      59.014 -35.958   0.751  0.00  0.00    +0.024 A 
ATOM     33  C   UNL     1      60.286 -35.881   1.424  0.00  0.00    +0.007 A 
ATOM     34  C   UNL     1      60.470 -35.000   2.542  0.00  0.00    -0.029 A 
ATOM     35  C   UNL     1      61.859 -34.953   3.222  0.00  0.00    +0.045 C 
ENDROOT
BRANCH  10   9
ATOM      4  C   UNL     1      58.643 -33.043   7.589  0.00  0.00    +0.077 A 
ATOM      5  C   UNL     1      57.970 -34.281   7.857  0.00  0.00    +0.048 A 
ATOM      6  C   UNL     1      57.815 -35.181   6.779  0.00  0.00    +0.116 A 
ATOM      7  N   UNL     1      58.301 -34.858   5.531  0.00  0.00    -0.223 NA
ATOM      8  C   UNL     1      58.943 -33.654   5.306  0.00  0.00    +0.220 A 
ATOM      9  N   UNL     1      59.447 -33.311   4.061  0.00  0.00    -0.283 N 
ATOM     36  H   UNL     1      59.908 -32.410   3.934  0.00  0.00    +0.155 HD
ATOM     37  N   UNL     1      59.103 -32.776   6.318  0.00  0.00    -0.214 NA
BRANCH   4   3
ATOM      1  C   UNL     1      58.580 -29.672   9.573  0.00  0.00    +0.020 A 
ATOM      2  C   UNL     1      58.314 -30.652   8.545  0.00  0.00    +0.013 A 
ATOM      3  C   UNL     1      58.887 -31.990   8.625  0.00  0.00    +0.019 A 
ATOM     38  C   UNL     1      59.731 -32.307   9.767  0.00  0.00    +0.120 A 
ATOM     39  N   UNL     1      59.971 -31.342  10.740  0.00  0.00    -0.263 NA
ATOM     40  C   UNL     1      59.427 -30.051  10.673  0.00  0.00    +0.111 A 
ENDBRANCH   4   3
ENDBRANCH  10   9
BRANCH  12  13
ATOM     13  N   UNL     1      56.667 -35.291   0.440  0.00  0.00    -0.281 N 
ATOM     14  C   UNL     1      55.613 -36.153   0.695  0.00  0.00    +0.248 C 
ATOM     30  O   UNL     1      55.665 -37.100   1.465  0.00  0.00    -0.270 OA
ATOM     31  H   UNL     1      56.555 -34.669  -0.360  0.00  0.00    +0.155 HD
BRANCH  14  15
ATOM     15  C   UNL     1      54.318 -35.940  -0.021  0.00  0.00    +0.037 A 
ATOM     16  C   UNL     1      53.685 -37.018  -0.785  0.00  0.00    +0.013 A 
ATOM     17  C   UNL     1      52.445 -36.781  -1.480  0.00  0.00    +0.005 A 
ATOM     18  C   UNL     1      51.828 -35.458  -1.412  0.00  0.00    -0.033 A 
ATOM     28  C   UNL     1      52.474 -34.408  -0.642  0.00  0.00    +0.005 A 
ATOM     29  C   UNL     1      53.690 -34.637   0.039  0.00  0.00    +0.013 A 
BRANCH  18  19
ATOM     19  C   UNL     1      50.516 -35.109  -2.139  0.00  0.00    +0.119 C 
BRANCH  19  20
ATOM     20  N   UNL     1      49.358 -36.032  -1.942  0.00  0.00    -0.302 NA
ATOM     21  C   UNL     1      48.097 -35.533  -2.653  0.00  0.00    +0.066 C 
ATOM     22  C   UNL     1      46.902 -36.521  -2.455  0.00  0.00    -0.064 C 
ATOM     23  N   UNL     1      46.642 -36.709  -0.959  0.00  0.00    +0.379 N 
ATOM     24  C   UNL     1      45.482 -37.592  -0.770  0.00  0.00    -0.096 C 
ATOM     25  H   UNL     1      46.381 -35.712  -0.534  0.00  0.00    -0.082 HD
ATOM     26  C   UNL     1      47.892 -37.203  -0.244  0.00  0.00    -0.064 C 
ATOM     27  C   UNL     1      49.081 -36.228  -0.472  0.00  0.00    +0.066 C 
ENDBRANCH  19  20
ENDBRANCH  18  19
ENDBRANCH  14  15
ENDBRANCH  12  13
TORSDOF 6
ENDMDL
MODEL 2
REMARK VINA RESULT:      -7.2     36.321     40.136
REMARK  Name = C:\Users\Docking\Desktop\test protocol\1iep_ligandH.pdb
REMARK  8 active torsions:
REMARK  status: ('A' for Active; 'I' for Inactive)
REMARK    1  A    between atoms: _5  and  _11
REMARK    2  A    between atoms: _19  and  _21
REMARK    3  A    between atoms: _22  and  _66
REMARK    4  A    between atoms: _27  and  _30
REMARK    5  A    between atoms: _32  and  _33
REMARK    6  A    between atoms: _38  and  _43
REMARK    7  A    between atoms: _43  and  _46
REMARK    8  A    between atoms: _53  and  _55
REMARK                            x       y       z     vdW  Elec       q    Type
REMARK                         _______ _______ _______ _____ _____    ______ ____
ROOT
ATOM     10  C   UNL     1      36.003   1.564   0.019  0.00  0.00    +0.038 A 
ATOM     11  C   UNL     1      36.715   0.540   0.695  0.00  0.00    +0.047 A 
ATOM     12  C   UNL     1      36.795   0.511   2.147  0.00  0.00    +0.035 A 
ATOM     32  C   UNL     1      36.135   1.540   2.880  0.00  0.00    +0.024 A 
ATOM     33  C   UNL     1      35.408   2.589   2.210  0.00  0.00    +0.007 A 
ATOM     34  C   UNL     1      35.328   2.624   0.777  0.00  0.00    -0.029 A 
ATOM     35  C   UNL     1      34.540   3.776   0.112  0.00  0.00    +0.045 C 
ENDROOT
BRANCH  10   9
ATOM      4  C   UNL     1      34.062   0.141  -4.133  0.00  0.00    +0.077 A 
ATOM      5  C   UNL     1      33.067  -0.649  -3.466  0.00  0.00    +0.048 A 
ATOM      6  C   UNL     1      33.094  -0.668  -2.053  0.00  0.00    +0.116 A 
ATOM      7  N   UNL     1      34.049   0.053  -1.370  0.00  0.00    -0.223 NA
ATOM      8  C   UNL     1      34.995   0.803  -2.044  0.00  0.00    +0.220 A 
ATOM      9  N   UNL     1      35.959   1.543  -1.377  0.00  0.00    -0.283 N 
ATOM     36  H   UNL     1      36.644   2.077  -1.911  0.00  0.00    +0.155 HD
ATOM     37  N   UNL     1      34.991   0.837  -3.393  0.00  0.00    -0.214 NA
BRANCH   4   3
ATOM      1  C   UNL     1      33.146   0.515  -7.918  0.00  0.00    +0.020 A 
ATOM      2  C   UNL     1      32.995   0.399  -6.486  0.00  0.00    +0.013 A 
ATOM      3  C   UNL     1      34.161   0.264  -5.622  0.00  0.00    +0.019 A 
ATOM     38  C   UNL     1      35.477   0.252  -6.244  0.00  0.00    +0.120 A 
ATOM     39  N   UNL     1      35.592   0.364  -7.626  0.00  0.00    -0.263 NA
ATOM     40  C   UNL     1      34.476   0.493  -8.467  0.00  0.00    +0.111 A 
ENDBRANCH   4   3
ENDBRANCH  10   9
BRANCH  12  13
ATOM     13  N   UNL     1      37.510  -0.499   2.887  0.00  0.00    -0.281 N 
ATOM     14  C   UNL     1      38.719  -0.372   3.552  0.00  0.00    +0.248 C 
ATOM     30  O   UNL     1      39.477   0.578   3.431  0.00  0.00    -0.270 OA
ATOM     31  H   UNL     1      37.072  -1.419   2.926  0.00  0.00    +0.155 HD
BRANCH  14  15
ATOM     15  C   UNL     1      39.154  -1.465   4.474  0.00  0.00    +0.037 A 
ATOM     16  C   UNL     1      39.956  -1.178   5.666  0.00  0.00    +0.013 A 
ATOM     17  C   UNL     1      40.377  -2.253   6.530  0.00  0.00    +0.005 A 
ATOM     18  C   UNL     1      39.995  -3.625   6.204  0.00  0.00    -0.033 A 
ATOM     28  C   UNL     1      39.194  -3.880   5.018  0.00  0.00    +0.005 A 
ATOM     29  C   UNL     1      38.781  -2.829   4.169  0.00  0.00    +0.013 A 
BRANCH  18  19
ATOM     19  C   UNL     1      40.418  -4.836   7.057  0.00  0.00    +0.119 C 
BRANCH  19  20
ATOM     20  N   UNL     1      41.433  -4.598   8.126  0.00  0.00    -0.302 NA
ATOM     21  C   UNL     1      42.864  -4.759   7.607  0.00  0.00    +0.066 C 
ATOM     22  C   UNL     1      43.913  -4.485   8.733  0.00  0.00    -0.064 C 
ATOM     23  N   UNL     1      43.654  -5.429   9.908  0.00  0.00    +0.379 N 
ATOM     24  C   UNL     1      44.674  -5.213  10.945  0.00  0.00    -0.096 C 
ATOM     25  H   UNL     1      43.767  -6.473   9.534  0.00  0.00    -0.082 HD
ATOM     26  C   UNL     1      42.232  -5.277  10.430  0.00  0.00    -0.064 C 
ATOM     27  C   UNL     1      41.198  -5.523   9.296  0.00  0.00    +0.066 C 
ENDBRANCH  19  20
ENDBRANCH  18  19
ENDBRANCH  14  15
ENDBRANCH  12  13
TORSDOF 6
ENDMDL
MODEL 3
REMARK VINA RESULT:      -7.1     28.727     32.580
REMARK  Name = C:\Users\Docking\Desktop\test protocol\1iep_ligandH.pdb
REMARK  8 active torsions:
REMARK  status: ('A' for Active; 'I' for Inactive)
REMARK    1  A    between atoms: _5  and  _11
REMARK    2  A    between atoms: _19  and  _21
REMARK    3  A    between atoms: _22  and  _66
REMARK    4  A    between atoms: _27  and  _30
REMARK    5  A    between atoms: _32  and  _33
REMARK    6  A    between atoms: _38  and  _43
REMARK    7  A    between atoms: _43  and  _46
REMARK    8  A    between atoms: _53  and  _55
REMARK                            x       y       z     vdW  Elec       q    Type
REMARK                         _______ _______ _______ _____ _____    ______ ____
ROOT
ATOM     10  C   UNL     1      54.722  -2.834  -4.182  0.00  0.00    +0.038 A 
ATOM     11  C   UNL     1      54.970  -3.709  -3.094  0.00  0.00    +0.047 A 
ATOM     12  C   UNL     1      55.252  -3.194  -1.763  0.00  0.00    +0.035 A 
ATOM     32  C   UNL     1      55.271  -1.781  -1.576  0.00  0.00    +0.024 A 
ATOM     33  C   UNL     1      55.022  -0.877  -2.671  0.00  0.00    +0.007 A 
ATOM     34  C   UNL     1      54.746  -1.379  -3.986  0.00  0.00    -0.029 A 
ATOM     35  C   UNL     1      54.492  -0.363  -5.125  0.00  0.00    +0.045 C 
ENDROOT
BRANCH  10   9
ATOM      4  C   UNL     1      56.057  -5.221  -8.126  0.00  0.00    +0.077 A 
ATOM      5  C   UNL     1      57.405  -5.363  -7.656  0.00  0.00    +0.048 A 
ATOM      6  C   UNL     1      57.715  -4.801  -6.397  0.00  0.00    +0.116 A 
ATOM      7  N   UNL     1      56.742  -4.149  -5.671  0.00  0.00    -0.223 NA
ATOM      8  C   UNL     1      55.453  -4.028  -6.155  0.00  0.00    +0.220 A 
ATOM      9  N   UNL     1      54.456  -3.383  -5.439  0.00  0.00    -0.283 N 
ATOM     36  H   UNL     1      53.519  -3.309  -5.833  0.00  0.00    +0.155 HD
ATOM     37  N   UNL     1      55.131  -4.555  -7.355  0.00  0.00    -0.214 NA
BRANCH   4   3
ATOM      1  C   UNL     1      55.953  -6.815 -11.697  0.00  0.00    +0.020 A 
ATOM      2  C   UNL     1      56.471  -6.303 -10.449  0.00  0.00    +0.013 A 
ATOM      3  C   UNL     1      55.574  -5.763  -9.436  0.00  0.00    +0.019 A 
ATOM     38  C   UNL     1      54.146  -5.757  -9.717  0.00  0.00    +0.120 A 
ATOM     39  N   UNL     1      53.676  -6.255 -10.929  0.00  0.00    -0.263 NA
ATOM     40  C   UNL     1      54.531  -6.775 -11.912  0.00  0.00    +0.111 A 
ENDBRANCH   4   3
ENDBRANCH  10   9
BRANCH  12  13
ATOM     13  N   UNL     1      55.520  -4.034  -0.622  0.00  0.00    -0.281 N 
ATOM     14  C   UNL     1      56.720  -4.626  -0.263  0.00  0.00    +0.248 C 
ATOM     30  O   UNL     1      57.700  -4.698  -0.990  0.00  0.00    -0.270 OA
ATOM     31  H   UNL     1      54.729  -4.213  -0.004  0.00  0.00    +0.155 HD
BRANCH  14  15
ATOM     15  C   UNL     1      56.845  -5.240   1.094  0.00  0.00    +0.037 A 
ATOM     16  C   UNL     1      55.691  -5.340   1.992  0.00  0.00    +0.013 A 
ATOM     17  C   UNL     1      55.843  -5.921   3.302  0.00  0.00    +0.005 A 
ATOM     18  C   UNL     1      57.154  -6.409   3.721  0.00  0.00    -0.033 A 
ATOM     28  C   UNL     1      58.280  -6.303   2.808  0.00  0.00    +0.005 A 
ATOM     29  C   UNL     1      58.136  -5.733   1.524  0.00  0.00    +0.013 A 
BRANCH  18  19
ATOM     19  C   UNL     1      57.413  -7.025   5.109  0.00  0.00    +0.119 C 
BRANCH  19  20
ATOM     20  N   UNL     1      57.195  -6.147   6.298  0.00  0.00    -0.302 NA
ATOM     21  C   UNL     1      58.240  -5.032   6.388  0.00  0.00    +0.066 C 
ATOM     22  C   UNL     1      57.983  -4.110   7.625  0.00  0.00    -0.064 C 
ATOM     23  N   UNL     1      57.984  -4.958   8.898  0.00  0.00    +0.379 N 
ATOM     24  C   UNL     1      57.801  -4.086  10.068  0.00  0.00    -0.096 C 
ATOM     25  H   UNL     1      58.988  -5.435   8.986  0.00  0.00    -0.082 HD
ATOM     26  C   UNL     1      56.950  -6.071   8.816  0.00  0.00    -0.064 C 
ATOM     27  C   UNL     1      57.196  -6.963   7.567  0.00  0.00    +0.066 C 
ENDBRANCH  19  20
ENDBRANCH  18  19
ENDBRANCH  14  15
ENDBRANCH  12  13
TORSDOF 6
ENDMDL
MODEL 4
REMARK VINA RESULT:      -7.0     38.477     40.896
REMARK  Name = C:\Users\Docking\Desktop\test protocol\1iep_ligandH.pdb
REMARK  8 active torsions:
REMARK  status: ('A' for Active; 'I' for Inactive)
REMARK    1  A    between atoms: _5  and  _11
REMARK    2  A    between atoms: _19  and  _21
REMARK    3  A    between atoms: _22  and  _66
REMARK    4  A    between atoms: _27  and  _30
REMARK    5  A    between atoms: _32  and  _33
REMARK    6  A    between atoms: _38  and  _43
REMARK    7  A    between atoms: _43  and  _46
REMARK    8  A    between atoms: _53  and  _55
REMARK                            x       y       z     vdW  Elec       q    Type
REMARK                         _______ _______ _______ _____ _____    ______ ____
ROOT
ATOM     10  C   UNL     1      34.952   0.202   1.574  0.00  0.00    +0.038 A 
ATOM     11  C   UNL     1      34.950  -0.048   0.178  0.00  0.00    +0.047 A 
ATOM     12  C   UNL     1      34.263   0.841  -0.745  0.00  0.00    +0.035 A 
ATOM     32  C   UNL     1      33.589   1.979  -0.212  0.00  0.00    +0.024 A 
ATOM     33  C   UNL     1      33.580   2.248   1.204  0.00  0.00    +0.007 A 
ATOM     34  C   UNL     1      34.254   1.372   2.120  0.00  0.00    -0.029 A 
ATOM     35  C   UNL     1      34.206   1.706   3.629  0.00  0.00    +0.045 C 
ENDROOT
BRANCH  10   9
ATOM      4  C   UNL     1      38.753  -1.059   4.218  0.00  0.00    +0.077 A 
ATOM      5  C   UNL     1      39.464   0.139   3.875  0.00  0.00    +0.048 A 
ATOM      6  C   UNL     1      38.819   1.050   3.009  0.00  0.00    +0.116 A 
ATOM      7  N   UNL     1      37.557   0.774   2.529  0.00  0.00    -0.223 NA
ATOM      8  C   UNL     1      36.900  -0.391   2.879  0.00  0.00    +0.220 A 
ATOM      9  N   UNL     1      35.628  -0.685   2.415  0.00  0.00    -0.283 N 
ATOM     36  H   UNL     1      35.180  -1.559   2.690  0.00  0.00    +0.155 HD
ATOM     37  N   UNL     1      37.496  -1.278   3.703  0.00  0.00    -0.214 NA
BRANCH   4   3
ATOM      1  C   UNL     1      39.535  -4.513   5.879  0.00  0.00    +0.020 A 
ATOM      2  C   UNL     1      38.979  -3.531   4.977  0.00  0.00    +0.013 A 
ATOM      3  C   UNL     1      39.301  -2.117   5.125  0.00  0.00    +0.019 A 
ATOM     38  C   UNL     1      40.196  -1.727   6.204  0.00  0.00    +0.120 A 
ATOM     39  N   UNL     1      40.715  -2.695   7.059  0.00  0.00    -0.263 NA
ATOM     40  C   UNL     1      40.411  -4.058   6.927  0.00  0.00    +0.111 A 
ENDBRANCH   4   3
ENDBRANCH  10   9
BRANCH  12  13
ATOM     13  N   UNL     1      34.220   0.634  -2.171  0.00  0.00    -0.281 N 
ATOM     14  C   UNL     1      33.383  -0.209  -2.885  0.00  0.00    +0.248 C 
ATOM     30  O   UNL     1      32.684  -1.076  -2.382  0.00  0.00    -0.270 OA
ATOM     31  H   UNL     1      34.888   1.173  -2.722  0.00  0.00    +0.155 HD
BRANCH  14  15
ATOM     15  C   UNL     1      33.325  -0.079  -4.373  0.00  0.00    +0.037 A 
ATOM     16  C   UNL     1      32.130   0.439  -5.044  0.00  0.00    +0.013 A 
ATOM     17  C   UNL     1      32.094   0.538  -6.482  0.00  0.00    +0.005 A 
ATOM     18  C   UNL     1      33.258   0.119  -7.258  0.00  0.00    -0.033 A 
ATOM     28  C   UNL     1      34.433  -0.386  -6.566  0.00  0.00    +0.005 A 
ATOM     29  C   UNL     1      34.471  -0.486  -5.157  0.00  0.00    +0.013 A 
BRANCH  18  19
ATOM     19  C   UNL     1      33.300   0.170  -8.796  0.00  0.00    +0.119 C 
BRANCH  19  20
ATOM     20  N   UNL     1      33.541   1.501  -9.430  0.00  0.00    -0.302 NA
ATOM     21  C   UNL     1      32.263   2.087 -10.037  0.00  0.00    +0.066 C 
ATOM     22  C   UNL     1      32.527   3.490 -10.675  0.00  0.00    -0.064 C 
ATOM     23  N   UNL     1      33.622   3.365 -11.736  0.00  0.00    +0.379 N 
ATOM     24  C   UNL     1      33.833   4.670 -12.379  0.00  0.00    -0.096 C 
ATOM     25  H   UNL     1      33.258   2.658 -12.517  0.00  0.00    -0.082 HD
ATOM     26  C   UNL     1      34.896   2.780 -11.142  0.00  0.00    -0.064 C 
ATOM     27  C   UNL     1      34.616   1.400 -10.484  0.00  0.00    +0.066 C 
ENDBRANCH  19  20
ENDBRANCH  18  19
ENDBRANCH  14  15
ENDBRANCH  12  13
TORSDOF 6
ENDMDL
MODEL 5
REMARK VINA RESULT:      -7.0     29.915     31.664
REMARK  Name = C:\Users\Docking\Desktop\test protocol\1iep_ligandH.pdb
REMARK  8 active torsions:
REMARK  status: ('A' for Active; 'I' for Inactive)
REMARK    1  A    between atoms: _5  and  _11
REMARK    2  A    between atoms: _19  and  _21
REMARK    3  A    between atoms: _22  and  _66
REMARK    4  A    between atoms: _27  and  _30
REMARK    5  A    between atoms: _32  and  _33
REMARK    6  A    between atoms: _38  and  _43
REMARK    7  A    between atoms: _43  and  _46
REMARK    8  A    between atoms: _53  and  _55
REMARK                            x       y       z     vdW  Elec       q    Type
REMARK                         _______ _______ _______ _____ _____    ______ ____
ROOT
ATOM     10  C   UNL     1      54.575  -2.199  -3.357  0.00  0.00    +0.038 A 
ATOM     11  C   UNL     1      54.505  -3.046  -4.492  0.00  0.00    +0.047 A 
ATOM     12  C   UNL     1      54.459  -2.497  -5.838  0.00  0.00    +0.035 A 
ATOM     32  C   UNL     1      54.489  -1.081  -5.992  0.00  0.00    +0.024 A 
ATOM     33  C   UNL     1      54.558  -0.205  -4.849  0.00  0.00    +0.007 A 
ATOM     34  C   UNL     1      54.601  -0.741  -3.518  0.00  0.00    -0.029 A 
ATOM     35  C   UNL     1      54.669   0.246  -2.329  0.00  0.00    +0.045 C 
ENDROOT
BRANCH  10   9
ATOM      4  C   UNL     1      56.955  -4.116   0.345  0.00  0.00    +0.077 A 
ATOM      5  C   UNL     1      58.219  -3.973  -0.317  0.00  0.00    +0.048 A 
ATOM      6  C   UNL     1      58.213  -3.408  -1.613  0.00  0.00    +0.116 A 
ATOM      7  N   UNL     1      57.025  -3.018  -2.192  0.00  0.00    -0.223 NA
ATOM      8  C   UNL     1      55.822  -3.172  -1.526  0.00  0.00    +0.220 A 
ATOM      9  N   UNL     1      54.617  -2.780  -2.087  0.00  0.00    -0.283 N 
ATOM     36  H   UNL     1      53.750  -2.917  -1.567  0.00  0.00    +0.155 HD
ATOM     37  N   UNL     1      55.802  -3.710  -0.289  0.00  0.00    -0.214 NA
BRANCH   4   3
ATOM      1  C   UNL     1      55.785  -6.321   3.357  0.00  0.00    +0.020 A 
ATOM      2  C   UNL     1      55.899  -5.801   2.014  0.00  0.00    +0.013 A 
ATOM      3  C   UNL     1      56.798  -4.692   1.718  0.00  0.00    +0.019 A 
ATOM     38  C   UNL     1      57.574  -4.128   2.812  0.00  0.00    +0.120 A 
ATOM     39  N   UNL     1      57.442  -4.649   4.096  0.00  0.00    -0.263 NA
ATOM     40  C   UNL     1      56.579  -5.714   4.393  0.00  0.00    +0.111 A 
ENDBRANCH   4   3
ENDBRANCH  10   9
BRANCH  12  13
ATOM     13  N   UNL     1      54.380  -3.308  -7.029  0.00  0.00    -0.281 N 
ATOM     14  C   UNL     1      55.373  -4.092  -7.593  0.00  0.00    +0.248 C 
ATOM     30  O   UNL     1      56.552  -4.048  -7.275  0.00  0.00    -0.270 OA
ATOM     31  H   UNL     1      53.483  -3.302  -7.514  0.00  0.00    +0.155 HD
BRANCH  14  15
ATOM     15  C   UNL     1      55.005  -5.054  -8.676  0.00  0.00    +0.037 A 
ATOM     16  C   UNL     1      53.611  -5.438  -8.909  0.00  0.00    +0.013 A 
ATOM     17  C   UNL     1      53.285  -6.382  -9.949  0.00  0.00    +0.005 A 
ATOM     18  C   UNL     1      54.357  -6.946 -10.765  0.00  0.00    -0.033 A 
ATOM     28  C   UNL     1      55.731  -6.544 -10.516  0.00  0.00    +0.005 A 
ATOM     29  C   UNL     1      56.054  -5.620  -9.496  0.00  0.00    +0.013 A 
BRANCH  18  19
ATOM     19  C   UNL     1      54.104  -7.975 -11.883  0.00  0.00    +0.119 C 
BRANCH  19  20
ATOM     20  N   UNL     1      53.695  -7.447 -13.219  0.00  0.00    -0.302 NA
ATOM     21  C   UNL     1      52.174  -7.450 -13.397  0.00  0.00    +0.066 C 
ATOM     22  C   UNL     1      51.763  -6.874 -14.790  0.00  0.00    -0.064 C 
ATOM     23  N   UNL     1      52.439  -7.688 -15.895  0.00  0.00    +0.379 N 
ATOM     24  C   UNL     1      52.008  -7.185 -17.208  0.00  0.00    -0.096 C 
ATOM     25  H   UNL     1      52.085  -8.741 -15.804  0.00  0.00    -0.082 HD
ATOM     26  C   UNL     1      53.951  -7.692 -15.725  0.00  0.00    -0.064 C 
ATOM     27  C   UNL     1      54.348  -8.239 -14.325  0.00  0.00    +0.066 C 
ENDBRANCH  19  20
ENDBRANCH  18  19
ENDBRANCH  14  15
ENDBRANCH  12  13
TORSDOF 6
ENDMDL
