MODEL 1
REMARK VINA RESULT:      -8.1      0.000      0.000
REMARK  Name = C:\Users\Docking\Desktop\test protocol\1iep_ligandH.pdb
REMARK  8 active torsions:
REMARK  status: ('A' for Active; 'I' for Inactive)
REMARK    1  A    between atoms: _5  and  _11
REMARK    2  A    between atoms: _19  and  _21
REMARK    3  A    between atoms: _22  and  _66
REMARK    4  A    between atoms: _27  and  _30
REMARK    5  A    between atoms: _32  and  _33
REMARK    6  A    between atoms: _38  and  _43
REMARK    7  A    between atoms: _43  and  _46
REMARK    8  A    between atoms: _53  and  _55
REMARK                            x       y       z     vdW  Elec       q    Type
REMARK                         _______ _______ _______ _____ _____    ______ ____
ROOT
ATOM     10  C   UNL     1     -17.389 -10.206  -3.670  0.00  0.00    +0.038 A 
ATOM     11  C   UNL     1     -16.378  -9.915  -2.718  0.00  0.00    +0.047 A 
ATOM     12  C   UNL     1     -15.149 -10.690  -2.665  0.00  0.00    +0.035 A 
ATOM     32  C   UNL     1     -14.980 -11.754  -3.599  0.00  0.00    +0.024 A 
ATOM     33  C   UNL     1     -15.997 -12.064  -4.573  0.00  0.00    +0.007 A 
ATOM     34  C   UNL     1     -17.213 -11.304  -4.628  0.00  0.00    -0.029 A 
ATOM     35  C   UNL     1     -18.272 -11.685  -5.689  0.00  0.00    +0.045 C 
ENDROOT
BRANCH  10   9
ATOM      4  C   UNL     1     -19.681  -6.024  -4.215  0.00  0.00    +0.077 A 
ATOM      5  C   UNL     1     -18.459  -5.322  -4.484  0.00  0.00    +0.048 A 
ATOM      6  C   UNL     1     -17.262  -6.072  -4.465  0.00  0.00    +0.116 A 
ATOM      7  N   UNL     1     -17.296  -7.424  -4.197  0.00  0.00    -0.223 NA
ATOM      8  C   UNL     1     -18.491  -8.070  -3.940  0.00  0.00    +0.220 A 
ATOM      9  N   UNL     1     -18.549  -9.430  -3.676  0.00  0.00    -0.283 N 
ATOM     36  H   UNL     1     -19.450  -9.868  -3.485  0.00  0.00    +0.155 HD
ATOM     37  N   UNL     1     -19.648  -7.375  -3.951  0.00  0.00    -0.214 NA
BRANCH   4   3
ATOM      1  C   UNL     1     -23.106  -4.555  -3.027  0.00  0.00    +0.020 A 
ATOM      2  C   UNL     1     -21.810  -5.193  -2.985  0.00  0.00    +0.013 A 
ATOM      3  C   UNL     1     -21.028  -5.371  -4.202  0.00  0.00    +0.019 A 
ATOM     38  C   UNL     1     -21.589  -4.887  -5.454  0.00  0.00    +0.120 A 
ATOM     39  N   UNL     1     -22.839  -4.277  -5.464  0.00  0.00    -0.263 NA
ATOM     40  C   UNL     1     -23.602  -4.103  -4.300  0.00  0.00    +0.111 A 
ENDBRANCH   4   3
ENDBRANCH  10   9
BRANCH  12  13
ATOM     13  N   UNL     1     -14.091 -10.447  -1.715  0.00  0.00    -0.281 N 
ATOM     14  C   UNL     1     -12.787 -10.058  -1.974  0.00  0.00    +0.248 C 
ATOM     30  O   UNL     1     -12.270 -10.069  -3.081  0.00  0.00    -0.270 OA
ATOM     31  H   UNL     1     -14.334 -10.576  -0.733  0.00  0.00    +0.155 HD
BRANCH  14  15
ATOM     15  C   UNL     1     -11.929  -9.607  -0.837  0.00  0.00    +0.037 A 
ATOM     16  C   UNL     1     -12.279  -9.922   0.551  0.00  0.00    +0.013 A 
ATOM     17  C   UNL     1     -11.443  -9.459   1.630  0.00  0.00    +0.005 A 
ATOM     18  C   UNL     1     -10.246  -8.678   1.325  0.00  0.00    -0.033 A 
ATOM     28  C   UNL     1      -9.920  -8.385  -0.060  0.00  0.00    +0.005 A 
ATOM     29  C   UNL     1     -10.738  -8.836  -1.121  0.00  0.00    +0.013 A 
BRANCH  18  19
ATOM     19  C   UNL     1      -9.308  -8.127   2.415  0.00  0.00    +0.119 C 
BRANCH  19  20
ATOM     20  N   UNL     1      -9.390  -6.665   2.712  0.00  0.00    -0.302 NA
ATOM     21  C   UNL     1      -8.279  -5.875   2.015  0.00  0.00    +0.066 C 
ATOM     22  C   UNL     1      -8.392  -4.345   2.318  0.00  0.00    -0.064 C 
ATOM     23  N   UNL     1      -8.348  -4.123   3.831  0.00  0.00    +0.379 N 
ATOM     24  C   UNL     1      -8.397  -2.682   4.117  0.00  0.00    -0.096 C 
ATOM     25  H   UNL     1      -7.370  -4.509   4.200  0.00  0.00    -0.082 HD
ATOM     26  C   UNL     1      -9.448  -4.908   4.532  0.00  0.00    -0.064 C 
ATOM     27  C   UNL     1      -9.343  -6.423   4.200  0.00  0.00    +0.066 C 
ENDBRANCH  19  20
ENDBRANCH  18  19
ENDBRANCH  14  15
ENDBRANCH  12  13
TORSDOF 6
ENDMDL
MODEL 2
REMARK VINA RESULT:      -8.0      2.355      3.064
REMARK  Name = C:\Users\Docking\Desktop\test protocol\1iep_ligandH.pdb
REMARK  8 active torsions:
REMARK  status: ('A' for Active; 'I' for Inactive)
REMARK    1  A    between atoms: _5  and  _11
REMARK    2  A    between atoms: _19  and  _21
REMARK    3  A    between atoms: _22  and  _66
REMARK    4  A    between atoms: _27  and  _30
REMARK    5  A    between atoms: _32  and  _33
REMARK    6  A    between atoms: _38  and  _43
REMARK    7  A    between atoms: _43  and  _46
REMARK    8  A    between atoms: _53  and  _55
REMARK                            x       y       z     vdW  Elec       q    Type
REMARK                         _______ _______ _______ _____ _____    ______ ____
ROOT
ATOM     10  C   UNL     1     -16.681  -9.763  -5.261  0.00  0.00    +0.038 A 
ATOM     11  C   UNL     1     -15.456  -9.295  -4.720  0.00  0.00    +0.047 A 
ATOM     12  C   UNL     1     -14.581 -10.178  -3.964  0.00  0.00    +0.035 A 
ATOM     32  C   UNL     1     -14.985 -11.533  -3.780  0.00  0.00    +0.024 A 
ATOM     33  C   UNL     1     -16.227 -12.024  -4.322  0.00  0.00    +0.007 A 
ATOM     34  C   UNL     1     -17.095 -11.157  -5.067  0.00  0.00    -0.029 A 
ATOM     35  C   UNL     1     -18.418 -11.737  -5.619  0.00  0.00    +0.045 C 
ENDROOT
BRANCH  10   9
ATOM      4  C   UNL     1     -19.985  -6.290  -5.498  0.00  0.00    +0.077 A 
ATOM      5  C   UNL     1     -20.149  -6.267  -4.073  0.00  0.00    +0.048 A 
ATOM      6  C   UNL     1     -19.370  -7.170  -3.316  0.00  0.00    +0.116 A 
ATOM      7  N   UNL     1     -18.495  -8.027  -3.947  0.00  0.00    -0.223 NA
ATOM      8  C   UNL     1     -18.362  -8.024  -5.324  0.00  0.00    +0.220 A 
ATOM      9  N   UNL     1     -17.482  -8.872  -5.979  0.00  0.00    -0.283 N 
ATOM     36  H   UNL     1     -17.418  -8.844  -6.996  0.00  0.00    +0.155 HD
ATOM     37  N   UNL     1     -19.096  -7.172  -6.069  0.00  0.00    -0.214 NA
BRANCH   4   3
ATOM      1  C   UNL     1     -21.121  -4.340  -8.694  0.00  0.00    +0.020 A 
ATOM      2  C   UNL     1     -20.362  -5.217  -7.832  0.00  0.00    +0.013 A 
ATOM      3  C   UNL     1     -20.735  -5.394  -6.434  0.00  0.00    +0.019 A 
ATOM     38  C   UNL     1     -21.891  -4.663  -5.936  0.00  0.00    +0.120 A 
ATOM     39  N   UNL     1     -22.602  -3.824  -6.789  0.00  0.00    -0.263 NA
ATOM     40  C   UNL     1     -22.251  -3.645  -8.136  0.00  0.00    +0.111 A 
ENDBRANCH   4   3
ENDBRANCH  10   9
BRANCH  12  13
ATOM     13  N   UNL     1     -13.330  -9.758  -3.384  0.00  0.00    -0.281 N 
ATOM     14  C   UNL     1     -12.880  -9.961  -2.090  0.00  0.00    +0.248 C 
ATOM     30  O   UNL     1     -13.581 -10.352  -1.168  0.00  0.00    -0.270 OA
ATOM     31  H   UNL     1     -12.699  -9.248  -4.003  0.00  0.00    +0.155 HD
BRANCH  14  15
ATOM     15  C   UNL     1     -11.448  -9.675  -1.770  0.00  0.00    +0.037 A 
ATOM     16  C   UNL     1     -10.364 -10.190  -2.610  0.00  0.00    +0.013 A 
ATOM     17  C   UNL     1      -8.991  -9.913  -2.270  0.00  0.00    +0.005 A 
ATOM     18  C   UNL     1      -8.695  -9.116  -1.082  0.00  0.00    -0.033 A 
ATOM     28  C   UNL     1      -9.790  -8.613  -0.269  0.00  0.00    +0.005 A 
ATOM     29  C   UNL     1     -11.137  -8.883  -0.599  0.00  0.00    +0.013 A 
BRANCH  18  19
ATOM     19  C   UNL     1      -7.259  -8.790  -0.631  0.00  0.00    +0.119 C 
BRANCH  19  20
ATOM     20  N   UNL     1      -7.052  -8.467   0.813  0.00  0.00    -0.302 NA
ATOM     21  C   UNL     1      -6.069  -7.309   1.008  0.00  0.00    +0.066 C 
ATOM     22  C   UNL     1      -5.882  -6.970   2.522  0.00  0.00    -0.064 C 
ATOM     23  N   UNL     1      -5.404  -8.218   3.266  0.00  0.00    +0.379 N 
ATOM     24  C   UNL     1      -5.172  -7.888   4.680  0.00  0.00    -0.096 C 
ATOM     25  H   UNL     1      -4.426  -8.521   2.825  0.00  0.00    -0.082 HD
ATOM     26  C   UNL     1      -6.375  -9.375   3.076  0.00  0.00    -0.064 C 
ATOM     27  C   UNL     1      -6.576  -9.684   1.566  0.00  0.00    +0.066 C 
ENDBRANCH  19  20
ENDBRANCH  18  19
ENDBRANCH  14  15
ENDBRANCH  12  13
TORSDOF 6
ENDMDL
MODEL 3
REMARK VINA RESULT:      -8.0     40.612     48.931
REMARK  Name = C:\Users\Docking\Desktop\test protocol\1iep_ligandH.pdb
REMARK  8 active torsions:
REMARK  status: ('A' for Active; 'I' for Inactive)
REMARK    1  A    between atoms: _5  and  _11
REMARK    2  A    between atoms: _19  and  _21
REMARK    3  A    between atoms: _22  and  _66
REMARK    4  A    between atoms: _27  and  _30
REMARK    5  A    between atoms: _32  and  _33
REMARK    6  A    between atoms: _38  and  _43
REMARK    7  A    between atoms: _43  and  _46
REMARK    8  A    between atoms: _53  and  _55
REMARK                            x       y       z     vdW  Elec       q    Type
REMARK                         _______ _______ _______ _____ _____    ______ ____
ROOT
ATOM     10  C   UNL     1     -35.721  22.902 -29.737  0.00  0.00    +0.038 A 
ATOM     11  C   UNL     1     -36.908  22.285 -30.209  0.00  0.00    +0.047 A 
ATOM     12  C   UNL     1     -37.534  22.712 -31.450  0.00  0.00    +0.035 A 
ATOM     32  C   UNL     1     -36.924  23.768 -32.187  0.00  0.00    +0.024 A 
ATOM     33  C   UNL     1     -35.718  24.407 -31.721  0.00  0.00    +0.007 A 
ATOM     34  C   UNL     1     -35.097  23.992 -30.496  0.00  0.00    -0.029 A 
ATOM     35  C   UNL     1     -33.809  24.717 -30.042  0.00  0.00    +0.045 C 
ENDROOT
BRANCH  10   9
ATOM      4  C   UNL     1     -35.312  23.006 -24.955  0.00  0.00    +0.077 A 
ATOM      5  C   UNL     1     -36.274  24.063 -24.837  0.00  0.00    +0.048 A 
ATOM      6  C   UNL     1     -36.846  24.557 -26.031  0.00  0.00    +0.116 A 
ATOM      7  N   UNL     1     -36.475  24.026 -27.247  0.00  0.00    -0.223 NA
ATOM      8  C   UNL     1     -35.543  23.008 -27.326  0.00  0.00    +0.220 A 
ATOM      9  N   UNL     1     -35.162  22.453 -28.538  0.00  0.00    -0.283 N 
ATOM     36  H   UNL     1     -34.465  21.708 -28.555  0.00  0.00    +0.155 HD
ATOM     37  N   UNL     1     -34.981  22.519 -26.201  0.00  0.00    -0.214 NA
BRANCH   4   3
ATOM      1  C   UNL     1     -33.030  20.711 -22.759  0.00  0.00    +0.020 A 
ATOM      2  C   UNL     1     -33.668  21.283 -23.922  0.00  0.00    +0.013 A 
ATOM      3  C   UNL     1     -34.622  22.376 -23.785  0.00  0.00    +0.019 A 
ATOM     38  C   UNL     1     -34.909  22.872 -22.447  0.00  0.00    +0.120 A 
ATOM     39  N   UNL     1     -34.280  22.300 -21.346  0.00  0.00    -0.263 NA
ATOM     40  C   UNL     1     -33.362  21.247 -21.465  0.00  0.00    +0.111 A 
ENDBRANCH   4   3
ENDBRANCH  10   9
BRANCH  12  13
ATOM     13  N   UNL     1     -38.744  22.129 -31.975  0.00  0.00    -0.281 N 
ATOM     14  C   UNL     1     -39.998  22.710 -32.072  0.00  0.00    +0.248 C 
ATOM     30  O   UNL     1     -40.320  23.752 -31.522  0.00  0.00    -0.270 OA
ATOM     31  H   UNL     1     -38.667  21.171 -32.318  0.00  0.00    +0.155 HD
BRANCH  14  15
ATOM     15  C   UNL     1     -41.049  22.028 -32.886  0.00  0.00    +0.037 A 
ATOM     16  C   UNL     1     -42.473  22.194 -32.581  0.00  0.00    +0.013 A 
ATOM     17  C   UNL     1     -43.466  21.510 -33.371  0.00  0.00    +0.005 A 
ATOM     18  C   UNL     1     -43.039  20.655 -34.476  0.00  0.00    -0.033 A 
ATOM     28  C   UNL     1     -41.620  20.512 -34.759  0.00  0.00    +0.005 A 
ATOM     29  C   UNL     1     -40.644  21.180 -33.986  0.00  0.00    +0.013 A 
BRANCH  18  19
ATOM     19  C   UNL     1     -44.028  19.871 -35.358  0.00  0.00    +0.119 C 
BRANCH  19  20
ATOM     20  N   UNL     1     -43.505  18.665 -36.066  0.00  0.00    -0.302 NA
ATOM     21  C   UNL     1     -43.702  18.758 -37.582  0.00  0.00    +0.066 C 
ATOM     22  C   UNL     1     -43.130  17.497 -38.308  0.00  0.00    -0.064 C 
ATOM     23  N   UNL     1     -43.802  16.241 -37.751  0.00  0.00    +0.379 N 
ATOM     24  C   UNL     1     -43.308  15.059 -38.472  0.00  0.00    -0.096 C 
ATOM     25  H   UNL     1     -44.895  16.327 -37.950  0.00  0.00    -0.082 HD
ATOM     26  C   UNL     1     -43.613  16.142 -36.244  0.00  0.00    -0.064 C 
ATOM     27  C   UNL     1     -44.159  17.413 -35.534  0.00  0.00    +0.066 C 
ENDBRANCH  19  20
ENDBRANCH  18  19
ENDBRANCH  14  15
ENDBRANCH  12  13
TORSDOF 6
ENDMDL
MODEL 4
REMARK VINA RESULT:      -8.0      4.243     11.970
REMARK  Name = C:\Users\Docking\Desktop\test protocol\1iep_ligandH.pdb
REMARK  8 active torsions:
REMARK  status: ('A' for Active; 'I' for Inactive)
REMARK    1  A    between atoms: _5  and  _11
REMARK    2  A    between atoms: _19  and  _21
REMARK    3  A    between atoms: _22  and  _66
REMARK    4  A    between atoms: _27  and  _30
REMARK    5  A    between atoms: _32  and  _33
REMARK    6  A    between atoms: _38  and  _43
REMARK    7  A    between atoms: _43  and  _46
REMARK    8  A    between atoms: _53  and  _55
REMARK                            x       y       z     vdW  Elec       q    Type
REMARK                         _______ _______ _______ _____ _____    ______ ____
ROOT
ATOM     10  C   UNL     1     -15.079 -11.549  -4.105  0.00  0.00    +0.038 A 
ATOM     11  C   UNL     1     -15.624 -10.243  -4.207  0.00  0.00    +0.047 A 
ATOM     12  C   UNL     1     -17.059 -10.018  -4.130  0.00  0.00    +0.035 A 
ATOM     32  C   UNL     1     -17.911 -11.146  -3.948  0.00  0.00    +0.024 A 
ATOM     33  C   UNL     1     -17.375 -12.480  -3.844  0.00  0.00    +0.007 A 
ATOM     34  C   UNL     1     -15.960 -12.709  -3.921  0.00  0.00    -0.029 A 
ATOM     35  C   UNL     1     -15.442 -14.162  -3.811  0.00  0.00    +0.045 C 
ENDROOT
BRANCH  10   9
ATOM      4  C   UNL     1     -10.705 -11.600  -2.132  0.00  0.00    +0.077 A 
ATOM      5  C   UNL     1     -11.220 -11.256  -0.838  0.00  0.00    +0.048 A 
ATOM      6  C   UNL     1     -12.615 -11.067  -0.724  0.00  0.00    +0.116 A 
ATOM      7  N   UNL     1     -13.426 -11.215  -1.829  0.00  0.00    -0.223 NA
ATOM      8  C   UNL     1     -12.897 -11.546  -3.063  0.00  0.00    +0.220 A 
ATOM      9  N   UNL     1     -13.694 -11.708  -4.185  0.00  0.00    -0.283 N 
ATOM     36  H   UNL     1     -13.264 -11.945  -5.079  0.00  0.00    +0.155 HD
ATOM     37  N   UNL     1     -11.567 -11.730  -3.198  0.00  0.00    -0.214 NA
BRANCH   4   3
ATOM      1  C   UNL     1      -6.809 -11.719  -1.794  0.00  0.00    +0.020 A 
ATOM      2  C   UNL     1      -8.196 -11.470  -1.476  0.00  0.00    +0.013 A 
ATOM      3  C   UNL     1      -9.253 -11.835  -2.411  0.00  0.00    +0.019 A 
ATOM     38  C   UNL     1      -8.868 -12.457  -3.670  0.00  0.00    +0.120 A 
ATOM     39  N   UNL     1      -7.524 -12.683  -3.949  0.00  0.00    -0.263 NA
ATOM     40  C   UNL     1      -6.499 -12.334  -3.057  0.00  0.00    +0.111 A 
ENDBRANCH   4   3
ENDBRANCH  10   9
BRANCH  12  13
ATOM     13  N   UNL     1     -17.669  -8.716  -4.235  0.00  0.00    -0.281 N 
ATOM     14  C   UNL     1     -18.436  -8.215  -5.274  0.00  0.00    +0.248 C 
ATOM     30  O   UNL     1     -18.535  -8.739  -6.374  0.00  0.00    -0.270 OA
ATOM     31  H   UNL     1     -17.518  -8.087  -3.446  0.00  0.00    +0.155 HD
BRANCH  14  15
ATOM     15  C   UNL     1     -19.189  -6.941  -5.068  0.00  0.00    +0.037 A 
ATOM     16  C   UNL     1     -19.071  -6.183  -3.820  0.00  0.00    +0.013 A 
ATOM     17  C   UNL     1     -19.822  -4.965  -3.640  0.00  0.00    +0.005 A 
ATOM     18  C   UNL     1     -20.698  -4.499  -4.712  0.00  0.00    -0.033 A 
ATOM     28  C   UNL     1     -20.792  -5.268  -5.942  0.00  0.00    +0.005 A 
ATOM     29  C   UNL     1     -20.058  -6.462  -6.121  0.00  0.00    +0.013 A 
BRANCH  18  19
ATOM     19  C   UNL     1     -21.552  -3.222  -4.598  0.00  0.00    +0.119 C 
BRANCH  19  20
ATOM     20  N   UNL     1     -22.993  -3.393  -4.245  0.00  0.00    -0.302 NA
ATOM     21  C   UNL     1     -23.736  -2.055  -4.198  0.00  0.00    +0.066 C 
ATOM     22  C   UNL     1     -25.247  -2.255  -3.850  0.00  0.00    -0.064 C 
ATOM     23  N   UNL     1     -25.366  -2.988  -2.513  0.00  0.00    +0.379 N 
ATOM     24  C   UNL     1     -26.785  -3.126  -2.154  0.00  0.00    -0.096 C 
ATOM     25  H   UNL     1     -24.881  -2.354  -1.735  0.00  0.00    -0.082 HD
ATOM     26  C   UNL     1     -24.628  -4.318  -2.550  0.00  0.00    -0.064 C 
ATOM     27  C   UNL     1     -23.134  -4.112  -2.926  0.00  0.00    +0.066 C 
ENDBRANCH  19  20
ENDBRANCH  18  19
ENDBRANCH  14  15
ENDBRANCH  12  13
TORSDOF 6
ENDMDL
MODEL 5
REMARK VINA RESULT:      -7.9     40.923     49.384
REMARK  Name = C:\Users\Docking\Desktop\test protocol\1iep_ligandH.pdb
REMARK  8 active torsions:
REMARK  status: ('A' for Active; 'I' for Inactive)
REMARK    1  A    between atoms: _5  and  _11
REMARK    2  A    between atoms: _19  and  _21
REMARK    3  A    between atoms: _22  and  _66
REMARK    4  A    between atoms: _27  and  _30
REMARK    5  A    between atoms: _32  and  _33
REMARK    6  A    between atoms: _38  and  _43
REMARK    7  A    between atoms: _43  and  _46
REMARK    8  A    between atoms: _53  and  _55
REMARK                            x       y       z     vdW  Elec       q    Type
REMARK                         _______ _______ _______ _____ _____    ______ ____
ROOT
ATOM     10  C   UNL     1     -35.568  22.755 -29.560  0.00  0.00    +0.038 A 
ATOM     11  C   UNL     1     -36.781  22.189 -30.029  0.00  0.00    +0.047 A 
ATOM     12  C   UNL     1     -37.368  22.609 -31.292  0.00  0.00    +0.035 A 
ATOM     32  C   UNL     1     -36.691  23.607 -32.053  0.00  0.00    +0.024 A 
ATOM     33  C   UNL     1     -35.458  24.193 -31.590  0.00  0.00    +0.007 A 
ATOM     34  C   UNL     1     -34.876  23.784 -30.344  0.00  0.00    -0.029 A 
ATOM     35  C   UNL     1     -33.555  24.452 -29.894  0.00  0.00    +0.045 C 
ENDROOT
BRANCH  10   9
ATOM      4  C   UNL     1     -35.162  23.031 -24.785  0.00  0.00    +0.077 A 
ATOM      5  C   UNL     1     -36.036  24.167 -24.717  0.00  0.00    +0.048 A 
ATOM      6  C   UNL     1     -36.564  24.653 -25.934  0.00  0.00    +0.116 A 
ATOM      7  N   UNL     1     -36.235  24.042 -27.125  0.00  0.00    -0.223 NA
ATOM      8  C   UNL     1     -35.387  22.949 -27.155  0.00  0.00    +0.220 A 
ATOM      9  N   UNL     1     -35.049  22.314 -28.340  0.00  0.00    -0.283 N 
ATOM     36  H   UNL     1     -34.415  21.516 -28.321  0.00  0.00    +0.155 HD
ATOM     37  N   UNL     1     -34.869  22.467 -26.007  0.00  0.00    -0.214 NA
BRANCH   4   3
ATOM      1  C   UNL     1     -34.110  22.236 -21.103  0.00  0.00    +0.020 A 
ATOM      2  C   UNL     1     -34.746  22.882 -22.227  0.00  0.00    +0.013 A 
ATOM      3  C   UNL     1     -34.528  22.400 -23.585  0.00  0.00    +0.019 A 
ATOM     38  C   UNL     1     -33.653  21.252 -23.772  0.00  0.00    +0.120 A 
ATOM     39  N   UNL     1     -33.053  20.650 -22.670  0.00  0.00    -0.263 NA
ATOM     40  C   UNL     1     -33.255  21.107 -21.359  0.00  0.00    +0.111 A 
ENDBRANCH   4   3
ENDBRANCH  10   9
BRANCH  12  13
ATOM     13  N   UNL     1     -38.602  22.077 -31.816  0.00  0.00    -0.281 N 
ATOM     14  C   UNL     1     -39.762  22.765 -32.127  0.00  0.00    +0.248 C 
ATOM     30  O   UNL     1     -39.989  23.921 -31.800  0.00  0.00    -0.270 OA
ATOM     31  H   UNL     1     -38.621  21.069 -31.976  0.00  0.00    +0.155 HD
BRANCH  14  15
ATOM     15  C   UNL     1     -40.832  22.065 -32.902  0.00  0.00    +0.037 A 
ATOM     16  C   UNL     1     -40.502  21.164 -34.009  0.00  0.00    +0.013 A 
ATOM     17  C   UNL     1     -41.553  20.514 -34.750  0.00  0.00    +0.005 A 
ATOM     18  C   UNL     1     -42.946  20.763 -34.386  0.00  0.00    -0.033 A 
ATOM     28  C   UNL     1     -43.245  21.657 -33.279  0.00  0.00    +0.005 A 
ATOM     29  C   UNL     1     -42.217  22.297 -32.551  0.00  0.00    +0.013 A 
BRANCH  18  19
ATOM     19  C   UNL     1     -44.133  20.129 -35.135  0.00  0.00    +0.119 C 
BRANCH  19  20
ATOM     20  N   UNL     1     -44.315  20.505 -36.569  0.00  0.00    -0.302 NA
ATOM     21  C   UNL     1     -43.584  19.544 -37.512  0.00  0.00    +0.066 C 
ATOM     22  C   UNL     1     -43.804  19.939 -39.009  0.00  0.00    -0.064 C 
ATOM     23  N   UNL     1     -43.332  21.377 -39.229  0.00  0.00    +0.379 N 
ATOM     24  C   UNL     1     -43.484  21.731 -40.647  0.00  0.00    -0.096 C 
ATOM     25  H   UNL     1     -42.245  21.418 -38.984  0.00  0.00    -0.082 HD
ATOM     26  C   UNL     1     -44.052  22.338 -38.293  0.00  0.00    -0.064 C 
ATOM     27  C   UNL     1     -43.852  21.920 -36.810  0.00  0.00    +0.066 C 
ENDBRANCH  19  20
ENDBRANCH  18  19
ENDBRANCH  14  15
ENDBRANCH  12  13
TORSDOF 6
ENDMDL
