MODEL 1
REMARK VINA RESULT:      -7.7      0.000      0.000
REMARK  Name = C:\Users\Docking\Desktop\test protocol\1iep_ligandH.pdb
REMARK  8 active torsions:
REMARK  status: ('A' for Active; 'I' for Inactive)
REMARK    1  A    between atoms: _5  and  _11
REMARK    2  A    between atoms: _19  and  _21
REMARK    3  A    between atoms: _22  and  _66
REMARK    4  A    between atoms: _27  and  _30
REMARK    5  A    between atoms: _32  and  _33
REMARK    6  A    between atoms: _38  and  _43
REMARK    7  A    between atoms: _43  and  _46
REMARK    8  A    between atoms: _53  and  _55
REMARK                            x       y       z     vdW  Elec       q    Type
REMARK                         _______ _______ _______ _____ _____    ______ ____
ROOT
ATOM     10  C   UNL     1     -35.573  22.895 -29.629  0.00  0.00    +0.038 A 
ATOM     11  C   UNL     1     -36.753  22.278 -30.116  0.00  0.00    +0.047 A 
ATOM     12  C   UNL     1     -37.364  22.703 -31.366  0.00  0.00    +0.035 A 
ATOM     32  C   UNL     1     -36.745  23.759 -32.096  0.00  0.00    +0.024 A 
ATOM     33  C   UNL     1     -35.546  24.399 -31.615  0.00  0.00    +0.007 A 
ATOM     34  C   UNL     1     -34.940  23.985 -30.382  0.00  0.00    -0.029 A 
ATOM     35  C   UNL     1     -33.658  24.711 -29.911  0.00  0.00    +0.045 C 
ENDROOT
BRANCH  10   9
ATOM      4  C   UNL     1     -35.213  23.015 -24.845  0.00  0.00    +0.077 A 
ATOM      5  C   UNL     1     -36.170  24.078 -24.740  0.00  0.00    +0.048 A 
ATOM      6  C   UNL     1     -36.726  24.571 -25.942  0.00  0.00    +0.116 A 
ATOM      7  N   UNL     1     -36.347  24.033 -27.152  0.00  0.00    -0.223 NA
ATOM      8  C   UNL     1     -35.420  23.009 -27.218  0.00  0.00    +0.220 A 
ATOM      9  N   UNL     1     -35.029  22.447 -28.423  0.00  0.00    -0.283 N 
ATOM     36  H   UNL     1     -34.337  21.698 -28.430  0.00  0.00    +0.155 HD
ATOM     37  N   UNL     1     -34.873  22.522 -26.084  0.00  0.00    -0.214 NA
BRANCH   4   3
ATOM      1  C   UNL     1     -32.991  20.695 -22.613  0.00  0.00    +0.020 A 
ATOM      2  C   UNL     1     -33.615  21.266 -23.784  0.00  0.00    +0.013 A 
ATOM      3  C   UNL     1     -34.540  22.386 -23.665  0.00  0.00    +0.019 A 
ATOM     38  C   UNL     1     -34.813  22.909 -22.335  0.00  0.00    +0.120 A 
ATOM     39  N   UNL     1     -34.199  22.338 -21.225  0.00  0.00    -0.263 NA
ATOM     40  C   UNL     1     -33.308  21.259 -21.328  0.00  0.00    +0.111 A 
ENDBRANCH   4   3
ENDBRANCH  10   9
BRANCH  12  13
ATOM     13  N   UNL     1     -38.567  22.119 -31.906  0.00  0.00    -0.281 N 
ATOM     14  C   UNL     1     -39.803  22.720 -32.077  0.00  0.00    +0.248 C 
ATOM     30  O   UNL     1     -40.123  23.794 -31.590  0.00  0.00    -0.270 OA
ATOM     31  H   UNL     1     -38.498  21.144 -32.198  0.00  0.00    +0.155 HD
BRANCH  14  15
ATOM     15  C   UNL     1     -40.840  22.019 -32.894  0.00  0.00    +0.037 A 
ATOM     16  C   UNL     1     -40.466  21.152 -34.014  0.00  0.00    +0.013 A 
ATOM     17  C   UNL     1     -41.487  20.501 -34.798  0.00  0.00    +0.005 A 
ATOM     18  C   UNL     1     -42.892  20.715 -34.461  0.00  0.00    -0.033 A 
ATOM     28  C   UNL     1     -43.235  21.576 -33.342  0.00  0.00    +0.005 A 
ATOM     29  C   UNL     1     -42.237  22.216 -32.573  0.00  0.00    +0.013 A 
BRANCH  18  19
ATOM     19  C   UNL     1     -44.048  20.078 -35.255  0.00  0.00    +0.119 C 
BRANCH  19  20
ATOM     20  N   UNL     1     -43.821  19.825 -36.710  0.00  0.00    -0.302 NA
ATOM     21  C   UNL     1     -44.983  20.331 -37.569  0.00  0.00    +0.066 C 
ATOM     22  C   UNL     1     -44.719  20.079 -39.089  0.00  0.00    -0.064 C 
ATOM     23  N   UNL     1     -44.483  18.585 -39.322  0.00  0.00    +0.379 N 
ATOM     24  C   UNL     1     -44.292  18.337 -40.758  0.00  0.00    -0.096 C 
ATOM     25  H   UNL     1     -45.405  18.044 -39.005  0.00  0.00    -0.082 HD
ATOM     26  C   UNL     1     -43.331  18.074 -38.469  0.00  0.00    -0.064 C 
ATOM     27  C   UNL     1     -43.590  18.356 -36.963  0.00  0.00    +0.066 C 
ENDBRANCH  19  20
ENDBRANCH  18  19
ENDBRANCH  14  15
ENDBRANCH  12  13
TORSDOF 6
ENDMDL
MODEL 2
REMARK VINA RESULT:      -7.7     18.982     24.988
REMARK  Name = C:\Users\Docking\Desktop\test protocol\1iep_ligandH.pdb
REMARK  8 active torsions:
REMARK  status: ('A' for Active; 'I' for Inactive)
REMARK    1  A    between atoms: _5  and  _11
REMARK    2  A    between atoms: _19  and  _21
REMARK    3  A    between atoms: _22  and  _66
REMARK    4  A    between atoms: _27  and  _30
REMARK    5  A    between atoms: _32  and  _33
REMARK    6  A    between atoms: _38  and  _43
REMARK    7  A    between atoms: _43  and  _46
REMARK    8  A    between atoms: _53  and  _55
REMARK                            x       y       z     vdW  Elec       q    Type
REMARK                         _______ _______ _______ _____ _____    ______ ____
ROOT
ATOM     10  C   UNL     1     -27.734  11.195 -17.014  0.00  0.00    +0.038 A 
ATOM     11  C   UNL     1     -26.864  12.314 -16.964  0.00  0.00    +0.047 A 
ATOM     12  C   UNL     1     -26.374  12.830 -15.696  0.00  0.00    +0.035 A 
ATOM     32  C   UNL     1     -26.788  12.181 -14.497  0.00  0.00    +0.024 A 
ATOM     33  C   UNL     1     -27.673  11.043 -14.529  0.00  0.00    +0.007 A 
ATOM     34  C   UNL     1     -28.162  10.530 -15.777  0.00  0.00    -0.029 A 
ATOM     35  C   UNL     1     -29.114   9.312 -15.751  0.00  0.00    +0.045 C 
ENDROOT
BRANCH  10   9
ATOM      4  C   UNL     1     -27.492   8.195 -20.753  0.00  0.00    +0.077 A 
ATOM      5  C   UNL     1     -26.377   7.489 -20.190  0.00  0.00    +0.048 A 
ATOM      6  C   UNL     1     -25.892   7.934 -18.940  0.00  0.00    +0.116 A 
ATOM      7  N   UNL     1     -26.485   9.006 -18.309  0.00  0.00    -0.223 NA
ATOM      8  C   UNL     1     -27.558   9.666 -18.880  0.00  0.00    +0.220 A 
ATOM      9  N   UNL     1     -28.175  10.741 -18.259  0.00  0.00    -0.283 N 
ATOM     36  H   UNL     1     -28.959  11.205 -18.717  0.00  0.00    +0.155 HD
ATOM     37  N   UNL     1     -28.039   9.261 -20.074  0.00  0.00    -0.214 NA
BRANCH   4   3
ATOM      1  C   UNL     1     -29.177   8.451 -24.274  0.00  0.00    +0.020 A 
ATOM      2  C   UNL     1     -28.577   8.845 -23.020  0.00  0.00    +0.013 A 
ATOM      3  C   UNL     1     -28.121   7.842 -22.065  0.00  0.00    +0.019 A 
ATOM     38  C   UNL     1     -28.286   6.439 -22.413  0.00  0.00    +0.120 A 
ATOM     39  N   UNL     1     -28.869   6.090 -23.627  0.00  0.00    -0.263 NA
ATOM     40  C   UNL     1     -29.313   7.045 -24.553  0.00  0.00    +0.111 A 
ENDBRANCH   4   3
ENDBRANCH  10   9
BRANCH  12  13
ATOM     13  N   UNL     1     -25.495  13.968 -15.583  0.00  0.00    -0.281 N 
ATOM     14  C   UNL     1     -25.842  15.303 -15.454  0.00  0.00    +0.248 C 
ATOM     30  O   UNL     1     -26.968  15.744 -15.632  0.00  0.00    -0.270 OA
ATOM     31  H   UNL     1     -24.496  13.764 -15.600  0.00  0.00    +0.155 HD
BRANCH  14  15
ATOM     15  C   UNL     1     -24.783  16.292 -15.089  0.00  0.00    +0.037 A 
ATOM     16  C   UNL     1     -23.361  15.955 -15.189  0.00  0.00    +0.013 A 
ATOM     17  C   UNL     1     -22.360  16.922 -14.815  0.00  0.00    +0.005 A 
ATOM     18  C   UNL     1     -22.779  18.238 -14.337  0.00  0.00    -0.033 A 
ATOM     28  C   UNL     1     -24.197  18.548 -14.253  0.00  0.00    +0.005 A 
ATOM     29  C   UNL     1     -25.181  17.602 -14.618  0.00  0.00    +0.013 A 
BRANCH  18  19
ATOM     19  C   UNL     1     -21.781  19.324 -13.896  0.00  0.00    +0.119 C 
BRANCH  19  20
ATOM     20  N   UNL     1     -20.729  18.928 -12.913  0.00  0.00    -0.302 NA
ATOM     21  C   UNL     1     -21.332  18.393 -11.611  0.00  0.00    +0.066 C 
ATOM     22  C   UNL     1     -20.217  17.962 -10.603  0.00  0.00    -0.064 C 
ATOM     23  N   UNL     1     -19.296  19.151 -10.325  0.00  0.00    +0.379 N 
ATOM     24  C   UNL     1     -18.282  18.766  -9.333  0.00  0.00    -0.096 C 
ATOM     25  H   UNL     1     -19.917  19.962  -9.877  0.00  0.00    -0.082 HD
ATOM     26  C   UNL     1     -18.695  19.691 -11.615  0.00  0.00    -0.064 C 
ATOM     27  C   UNL     1     -19.810  20.089 -12.621  0.00  0.00    +0.066 C 
ENDBRANCH  19  20
ENDBRANCH  18  19
ENDBRANCH  14  15
ENDBRANCH  12  13
TORSDOF 6
ENDMDL
MODEL 3
REMARK VINA RESULT:      -7.7     41.003     49.634
REMARK  Name = C:\Users\Docking\Desktop\test protocol\1iep_ligandH.pdb
REMARK  8 active torsions:
REMARK  status: ('A' for Active; 'I' for Inactive)
REMARK    1  A    between atoms: _5  and  _11
REMARK    2  A    between atoms: _19  and  _21
REMARK    3  A    between atoms: _22  and  _66
REMARK    4  A    between atoms: _27  and  _30
REMARK    5  A    between atoms: _32  and  _33
REMARK    6  A    between atoms: _38  and  _43
REMARK    7  A    between atoms: _43  and  _46
REMARK    8  A    between atoms: _53  and  _55
REMARK                            x       y       z     vdW  Elec       q    Type
REMARK                         _______ _______ _______ _____ _____    ______ ____
ROOT
ATOM     10  C   UNL     1     -16.525  -9.858  -5.151  0.00  0.00    +0.038 A 
ATOM     11  C   UNL     1     -15.329  -9.347  -4.586  0.00  0.00    +0.047 A 
ATOM     12  C   UNL     1     -14.499 -10.165  -3.714  0.00  0.00    +0.035 A 
ATOM     32  C   UNL     1     -14.917 -11.500  -3.442  0.00  0.00    +0.024 A 
ATOM     33  C   UNL     1     -16.131 -12.035  -4.008  0.00  0.00    +0.007 A 
ATOM     34  C   UNL     1     -16.954 -11.232  -4.866  0.00  0.00    -0.029 A 
ATOM     35  C   UNL     1     -18.248 -11.856  -5.439  0.00  0.00    +0.045 C 
ENDROOT
BRANCH  10   9
ATOM      4  C   UNL     1     -19.591  -6.232  -5.851  0.00  0.00    +0.077 A 
ATOM      5  C   UNL     1     -19.713  -5.985  -4.443  0.00  0.00    +0.048 A 
ATOM      6  C   UNL     1     -18.976  -6.819  -3.572  0.00  0.00    +0.116 A 
ATOM      7  N   UNL     1     -18.179  -7.820  -4.082  0.00  0.00    -0.223 NA
ATOM      8  C   UNL     1     -18.085  -8.032  -5.446  0.00  0.00    +0.220 A 
ATOM      9  N   UNL     1     -17.283  -9.029  -5.981  0.00  0.00    -0.283 N 
ATOM     36  H   UNL     1     -17.247  -9.158  -6.992  0.00  0.00    +0.155 HD
ATOM     37  N   UNL     1     -18.780  -7.251  -6.298  0.00  0.00    -0.214 NA
BRANCH   4   3
ATOM      1  C   UNL     1     -20.694  -4.721  -9.286  0.00  0.00    +0.020 A 
ATOM      2  C   UNL     1     -19.974  -5.512  -8.316  0.00  0.00    +0.013 A 
ATOM      3  C   UNL     1     -20.304  -5.434  -6.898  0.00  0.00    +0.019 A 
ATOM     38  C   UNL     1     -21.378  -4.539  -6.493  0.00  0.00    +0.120 A 
ATOM     39  N   UNL     1     -22.053  -3.788  -7.450  0.00  0.00    -0.263 NA
ATOM     40  C   UNL     1     -21.743  -3.854  -8.817  0.00  0.00    +0.111 A 
ENDBRANCH   4   3
ENDBRANCH  10   9
BRANCH  12  13
ATOM     13  N   UNL     1     -13.279  -9.698  -3.105  0.00  0.00    -0.281 N 
ATOM     14  C   UNL     1     -12.809  -9.961  -1.829  0.00  0.00    +0.248 C 
ATOM     30  O   UNL     1     -13.475 -10.468  -0.938  0.00  0.00    -0.270 OA
ATOM     31  H   UNL     1     -12.690  -9.100  -3.685  0.00  0.00    +0.155 HD
BRANCH  14  15
ATOM     15  C   UNL     1     -11.401  -9.596  -1.488  0.00  0.00    +0.037 A 
ATOM     16  C   UNL     1     -11.083  -8.846  -0.270  0.00  0.00    +0.013 A 
ATOM     17  C   UNL     1      -9.718  -8.492   0.026  0.00  0.00    +0.005 A 
ATOM     18  C   UNL     1      -8.658  -8.889  -0.898  0.00  0.00    -0.033 A 
ATOM     28  C   UNL     1      -9.001  -9.636  -2.097  0.00  0.00    +0.005 A 
ATOM     29  C   UNL     1     -10.338  -9.984  -2.391  0.00  0.00    +0.013 A 
BRANCH  18  19
ATOM     19  C   UNL     1      -7.176  -8.535  -0.673  0.00  0.00    +0.119 C 
BRANCH  19  20
ATOM     20  N   UNL     1      -6.697  -8.464   0.740  0.00  0.00    -0.302 NA
ATOM     21  C   UNL     1      -5.467  -7.564   0.885  0.00  0.00    +0.066 C 
ATOM     22  C   UNL     1      -4.993  -7.483   2.372  0.00  0.00    -0.064 C 
ATOM     23  N   UNL     1      -4.696  -8.892   2.887  0.00  0.00    +0.379 N 
ATOM     24  C   UNL     1      -4.195  -8.814   4.267  0.00  0.00    -0.096 C 
ATOM     25  H   UNL     1      -3.883  -9.318   2.255  0.00  0.00    -0.082 HD
ATOM     26  C   UNL     1      -5.913  -9.795   2.745  0.00  0.00    -0.064 C 
ATOM     27  C   UNL     1      -6.394  -9.845   1.267  0.00  0.00    +0.066 C 
ENDBRANCH  19  20
ENDBRANCH  18  19
ENDBRANCH  14  15
ENDBRANCH  12  13
TORSDOF 6
ENDMDL
MODEL 4
REMARK VINA RESULT:      -7.6     31.434     36.518
REMARK  Name = C:\Users\Docking\Desktop\test protocol\1iep_ligandH.pdb
REMARK  8 active torsions:
REMARK  status: ('A' for Active; 'I' for Inactive)
REMARK    1  A    between atoms: _5  and  _11
REMARK    2  A    between atoms: _19  and  _21
REMARK    3  A    between atoms: _22  and  _66
REMARK    4  A    between atoms: _27  and  _30
REMARK    5  A    between atoms: _32  and  _33
REMARK    6  A    between atoms: _38  and  _43
REMARK    7  A    between atoms: _43  and  _46
REMARK    8  A    between atoms: _53  and  _55
REMARK                            x       y       z     vdW  Elec       q    Type
REMARK                         _______ _______ _______ _____ _____    ______ ____
ROOT
ATOM     10  C   UNL     1     -23.364  -2.738  -6.741  0.00  0.00    +0.038 A 
ATOM     11  C   UNL     1     -23.917  -3.060  -8.007  0.00  0.00    +0.047 A 
ATOM     12  C   UNL     1     -24.686  -2.084  -8.763  0.00  0.00    +0.035 A 
ATOM     32  C   UNL     1     -24.870  -0.787  -8.201  0.00  0.00    +0.024 A 
ATOM     33  C   UNL     1     -24.316  -0.442  -6.915  0.00  0.00    +0.007 A 
ATOM     34  C   UNL     1     -23.559  -1.402  -6.164  0.00  0.00    -0.029 A 
ATOM     35  C   UNL     1     -22.993  -0.980  -4.787  0.00  0.00    +0.045 C 
ENDROOT
BRANCH  10   9
ATOM      4  C   UNL     1     -19.973  -6.130  -6.556  0.00  0.00    +0.077 A 
ATOM      5  C   UNL     1     -19.646  -5.961  -7.942  0.00  0.00    +0.048 A 
ATOM      6  C   UNL     1     -20.379  -4.997  -8.670  0.00  0.00    +0.116 A 
ATOM      7  N   UNL     1     -21.363  -4.260  -8.046  0.00  0.00    -0.223 NA
ATOM      8  C   UNL     1     -21.654  -4.449  -6.708  0.00  0.00    +0.220 A 
ATOM      9  N   UNL     1     -22.635  -3.714  -6.059  0.00  0.00    -0.283 N 
ATOM     36  H   UNL     1     -22.825  -3.888  -5.072  0.00  0.00    +0.155 HD
ATOM     37  N   UNL     1     -20.970  -5.365  -5.992  0.00  0.00    -0.214 NA
BRANCH   4   3
ATOM      1  C   UNL     1     -17.867  -9.151  -5.238  0.00  0.00    +0.020 A 
ATOM      2  C   UNL     1     -18.512  -8.237  -6.152  0.00  0.00    +0.013 A 
ATOM      3  C   UNL     1     -19.286  -7.107  -5.653  0.00  0.00    +0.019 A 
ATOM     38  C   UNL     1     -19.388  -6.929  -4.213  0.00  0.00    +0.120 A 
ATOM     39  N   UNL     1     -18.758  -7.826  -3.357  0.00  0.00    -0.263 NA
ATOM     40  C   UNL     1     -18.012  -8.918  -3.825  0.00  0.00    +0.111 A 
ENDBRANCH   4   3
ENDBRANCH  10   9
BRANCH  12  13
ATOM     13  N   UNL     1     -25.279  -2.356 -10.049  0.00  0.00    -0.281 N 
ATOM     14  C   UNL     1     -24.644  -2.445 -11.277  0.00  0.00    +0.248 C 
ATOM     30  O   UNL     1     -23.494  -2.090 -11.488  0.00  0.00    -0.270 OA
ATOM     31  H   UNL     1     -26.288  -2.501 -10.054  0.00  0.00    +0.155 HD
BRANCH  14  15
ATOM     15  C   UNL     1     -25.402  -2.993 -12.443  0.00  0.00    +0.037 A 
ATOM     16  C   UNL     1     -26.005  -4.328 -12.397  0.00  0.00    +0.013 A 
ATOM     17  C   UNL     1     -26.716  -4.840 -13.542  0.00  0.00    +0.005 A 
ATOM     18  C   UNL     1     -26.828  -4.015 -14.743  0.00  0.00    -0.033 A 
ATOM     28  C   UNL     1     -26.225  -2.693 -14.759  0.00  0.00    +0.005 A 
ATOM     29  C   UNL     1     -25.526  -2.188 -13.639  0.00  0.00    +0.013 A 
BRANCH  18  19
ATOM     19  C   UNL     1     -27.550  -4.489 -16.018  0.00  0.00    +0.119 C 
BRANCH  19  20
ATOM     20  N   UNL     1     -29.043  -4.518 -15.988  0.00  0.00    -0.302 NA
ATOM     21  C   UNL     1     -29.580  -5.811 -15.369  0.00  0.00    +0.066 C 
ATOM     22  C   UNL     1     -31.143  -5.815 -15.325  0.00  0.00    -0.064 C 
ATOM     23  N   UNL     1     -31.690  -5.624 -16.740  0.00  0.00    +0.379 N 
ATOM     24  C   UNL     1     -33.159  -5.686 -16.710  0.00  0.00    -0.096 C 
ATOM     25  H   UNL     1     -31.329  -6.477 -17.360  0.00  0.00    -0.082 HD
ATOM     26  C   UNL     1     -31.159  -4.342 -17.365  0.00  0.00    -0.064 C 
ATOM     27  C   UNL     1     -29.605  -4.336 -17.377  0.00  0.00    +0.066 C 
ENDBRANCH  19  20
ENDBRANCH  18  19
ENDBRANCH  14  15
ENDBRANCH  12  13
TORSDOF 6
ENDMDL
MODEL 5
REMARK VINA RESULT:      -7.5     19.412     25.831
REMARK  Name = C:\Users\Docking\Desktop\test protocol\1iep_ligandH.pdb
REMARK  8 active torsions:
REMARK  status: ('A' for Active; 'I' for Inactive)
REMARK    1  A    between atoms: _5  and  _11
REMARK    2  A    between atoms: _19  and  _21
REMARK    3  A    between atoms: _22  and  _66
REMARK    4  A    between atoms: _27  and  _30
REMARK    5  A    between atoms: _32  and  _33
REMARK    6  A    between atoms: _38  and  _43
REMARK    7  A    between atoms: _43  and  _46
REMARK    8  A    between atoms: _53  and  _55
REMARK                            x       y       z     vdW  Elec       q    Type
REMARK                         _______ _______ _______ _____ _____    ______ ____
ROOT
ATOM     10  C   UNL     1     -28.517  10.199 -16.344  0.00  0.00    +0.038 A 
ATOM     11  C   UNL     1     -27.534  11.183 -16.070  0.00  0.00    +0.047 A 
ATOM     12  C   UNL     1     -27.178  11.531 -14.703  0.00  0.00    +0.035 A 
ATOM     32  C   UNL     1     -27.841  10.853 -13.639  0.00  0.00    +0.024 A 
ATOM     33  C   UNL     1     -28.844   9.850 -13.900  0.00  0.00    +0.007 A 
ATOM     34  C   UNL     1     -29.201   9.505 -15.246  0.00  0.00    -0.029 A 
ATOM     35  C   UNL     1     -30.287   8.427 -15.467  0.00  0.00    +0.045 C 
ENDROOT
BRANCH  10   9
ATOM      4  C   UNL     1     -27.732   7.816 -20.436  0.00  0.00    +0.077 A 
ATOM      5  C   UNL     1     -26.608   7.118 -19.883  0.00  0.00    +0.048 A 
ATOM      6  C   UNL     1     -26.259   7.406 -18.545  0.00  0.00    +0.116 A 
ATOM      7  N   UNL     1     -26.989   8.325 -17.822  0.00  0.00    -0.223 NA
ATOM      8  C   UNL     1     -28.067   8.982 -18.386  0.00  0.00    +0.220 A 
ATOM      9  N   UNL     1     -28.819   9.904 -17.676  0.00  0.00    -0.283 N 
ATOM     36  H   UNL     1     -29.603  10.373 -18.130  0.00  0.00    +0.155 HD
ATOM     37  N   UNL     1     -28.419   8.726 -19.663  0.00  0.00    -0.214 NA
BRANCH   4   3
ATOM      1  C   UNL     1     -28.778   6.173 -23.829  0.00  0.00    +0.020 A 
ATOM      2  C   UNL     1     -28.293   6.310 -22.474  0.00  0.00    +0.013 A 
ATOM      3  C   UNL     1     -28.225   7.618 -21.836  0.00  0.00    +0.019 A 
ATOM     38  C   UNL     1     -28.659   8.777 -22.601  0.00  0.00    +0.120 A 
ATOM     39  N   UNL     1     -29.120   8.615 -23.904  0.00  0.00    -0.263 NA
ATOM     40  C   UNL     1     -29.188   7.361 -24.529  0.00  0.00    +0.111 A 
ENDBRANCH   4   3
ENDBRANCH  10   9
BRANCH  12  13
ATOM     13  N   UNL     1     -26.193  12.528 -14.363  0.00  0.00    -0.281 N 
ATOM     14  C   UNL     1     -24.900  12.328 -13.910  0.00  0.00    +0.248 C 
ATOM     30  O   UNL     1     -24.461  11.255 -13.522  0.00  0.00    -0.270 OA
ATOM     31  H   UNL     1     -26.486  13.499 -14.469  0.00  0.00    +0.155 HD
BRANCH  14  15
ATOM     15  C   UNL     1     -23.962  13.491 -13.867  0.00  0.00    +0.037 A 
ATOM     16  C   UNL     1     -24.208  14.696 -14.663  0.00  0.00    +0.013 A 
ATOM     17  C   UNL     1     -23.278  15.796 -14.617  0.00  0.00    +0.005 A 
ATOM     18  C   UNL     1     -22.093  15.697 -13.768  0.00  0.00    -0.033 A 
ATOM     28  C   UNL     1     -21.876  14.492 -12.985  0.00  0.00    +0.005 A 
ATOM     29  C   UNL     1     -22.784  13.411 -13.029  0.00  0.00    +0.013 A 
BRANCH  18  19
ATOM     19  C   UNL     1     -21.037  16.814 -13.673  0.00  0.00    +0.119 C 
BRANCH  19  20
ATOM     20  N   UNL     1     -20.441  17.079 -12.330  0.00  0.00    -0.302 NA
ATOM     21  C   UNL     1     -20.942  18.395 -11.729  0.00  0.00    +0.066 C 
ATOM     22  C   UNL     1     -20.327  18.645 -10.314  0.00  0.00    -0.064 C 
ATOM     23  N   UNL     1     -18.801  18.644 -10.417  0.00  0.00    +0.379 N 
ATOM     24  C   UNL     1     -18.219  18.937  -9.099  0.00  0.00    -0.096 C 
ATOM     25  H   UNL     1     -18.508  19.469 -11.107  0.00  0.00    -0.082 HD
ATOM     26  C   UNL     1     -18.294  17.340 -11.016  0.00  0.00    -0.064 C 
ATOM     27  C   UNL     1     -18.934  17.086 -12.409  0.00  0.00    +0.066 C 
ENDBRANCH  19  20
ENDBRANCH  18  19
ENDBRANCH  14  15
ENDBRANCH  12  13
TORSDOF 6
ENDMDL
