MODEL 1
REMARK VINA RESULT:     -10.0      0.000      0.000
REMARK  Name = C:\Users\Docking\Desktop\test protocol\1iep_ligandH.pdb
REMARK  8 active torsions:
REMARK  status: ('A' for Active; 'I' for Inactive)
REMARK    1  A    between atoms: _5  and  _11
REMARK    2  A    between atoms: _19  and  _21
REMARK    3  A    between atoms: _22  and  _66
REMARK    4  A    between atoms: _27  and  _30
REMARK    5  A    between atoms: _32  and  _33
REMARK    6  A    between atoms: _38  and  _43
REMARK    7  A    between atoms: _43  and  _46
REMARK    8  A    between atoms: _53  and  _55
REMARK                            x       y       z     vdW  Elec       q    Type
REMARK                         _______ _______ _______ _____ _____    ______ ____
ROOT
ATOM     10  C   UNL     1      12.737  17.031  32.342  0.00  0.00    +0.038 A 
ATOM     11  C   UNL     1      12.753  18.259  33.052  0.00  0.00    +0.047 A 
ATOM     12  C   UNL     1      13.469  18.390  34.311  0.00  0.00    +0.035 A 
ATOM     32  C   UNL     1      14.160  17.251  34.818  0.00  0.00    +0.024 A 
ATOM     33  C   UNL     1      14.153  15.995  34.109  0.00  0.00    +0.007 A 
ATOM     34  C   UNL     1      13.447  15.859  32.868  0.00  0.00    -0.029 A 
ATOM     35  C   UNL     1      13.468  14.487  32.155  0.00  0.00    +0.045 C 
ENDROOT
BRANCH  10   9
ATOM      4  C   UNL     1      12.460  17.470  27.570  0.00  0.00    +0.077 A 
ATOM      5  C   UNL     1      13.825  17.901  27.472  0.00  0.00    +0.048 A 
ATOM      6  C   UNL     1      14.562  18.003  28.673  0.00  0.00    +0.116 A 
ATOM      7  N   UNL     1      13.968  17.695  29.878  0.00  0.00    -0.223 NA
ATOM      8  C   UNL     1      12.649  17.284  29.938  0.00  0.00    +0.220 A 
ATOM      9  N   UNL     1      12.033  16.962  31.137  0.00  0.00    -0.283 N 
ATOM     36  H   UNL     1      11.056  16.670  31.140  0.00  0.00    +0.155 HD
ATOM     37  N   UNL     1      11.924  17.180  28.805  0.00  0.00    -0.214 NA
BRANCH   4   3
ATOM      1  C   UNL     1       9.574  17.991  24.982  0.00  0.00    +0.020 A 
ATOM      2  C   UNL     1      10.419  18.189  26.137  0.00  0.00    +0.013 A 
ATOM      3  C   UNL     1      11.554  17.310  26.390  0.00  0.00    +0.019 A 
ATOM     38  C   UNL     1      11.809  16.232  25.446  0.00  0.00    +0.120 A 
ATOM     39  N   UNL     1      10.977  16.065  24.343  0.00  0.00    -0.263 NA
ATOM     40  C   UNL     1       9.882  16.903  24.091  0.00  0.00    +0.111 A 
ENDBRANCH   4   3
ENDBRANCH  10   9
BRANCH  12  13
ATOM     13  N   UNL     1      13.515  19.609  35.081  0.00  0.00    -0.281 N 
ATOM     14  C   UNL     1      12.863  19.890  36.271  0.00  0.00    +0.248 C 
ATOM     30  O   UNL     1      11.969  19.207  36.747  0.00  0.00    -0.270 OA
ATOM     31  H   UNL     1      14.098  20.355  34.702  0.00  0.00    +0.155 HD
BRANCH  14  15
ATOM     15  C   UNL     1      13.252  21.114  37.035  0.00  0.00    +0.037 A 
ATOM     16  C   UNL     1      13.146  22.448  36.439  0.00  0.00    +0.013 A 
ATOM     17  C   UNL     1      13.544  23.611  37.193  0.00  0.00    +0.005 A 
ATOM     18  C   UNL     1      14.051  23.443  38.553  0.00  0.00    -0.033 A 
ATOM     28  C   UNL     1      14.141  22.109  39.121  0.00  0.00    +0.005 A 
ATOM     29  C   UNL     1      13.753  20.967  38.385  0.00  0.00    +0.013 A 
BRANCH  18  19
ATOM     19  C   UNL     1      14.518  24.626  39.422  0.00  0.00    +0.119 C 
BRANCH  19  20
ATOM     20  N   UNL     1      15.966  24.680  39.782  0.00  0.00    -0.302 NA
ATOM     21  C   UNL     1      16.193  24.483  41.283  0.00  0.00    +0.066 C 
ATOM     22  C   UNL     1      17.715  24.520  41.639  0.00  0.00    -0.064 C 
ATOM     23  N   UNL     1      18.314  25.847  41.169  0.00  0.00    +0.379 N 
ATOM     24  C   UNL     1      19.732  25.909  41.554  0.00  0.00    -0.096 C 
ATOM     25  H   UNL     1      17.782  26.667  41.706  0.00  0.00    -0.082 HD
ATOM     26  C   UNL     1      18.090  26.052  39.678  0.00  0.00    -0.064 C 
ATOM     27  C   UNL     1      16.577  25.984  39.331  0.00  0.00    +0.066 C 
ENDBRANCH  19  20
ENDBRANCH  18  19
ENDBRANCH  14  15
ENDBRANCH  12  13
TORSDOF 6
ENDMDL
MODEL 2
REMARK VINA RESULT:      -9.6      3.455     13.360
REMARK  Name = C:\Users\Docking\Desktop\test protocol\1iep_ligandH.pdb
REMARK  8 active torsions:
REMARK  status: ('A' for Active; 'I' for Inactive)
REMARK    1  A    between atoms: _5  and  _11
REMARK    2  A    between atoms: _19  and  _21
REMARK    3  A    between atoms: _22  and  _66
REMARK    4  A    between atoms: _27  and  _30
REMARK    5  A    between atoms: _32  and  _33
REMARK    6  A    between atoms: _38  and  _43
REMARK    7  A    between atoms: _43  and  _46
REMARK    8  A    between atoms: _53  and  _55
REMARK                            x       y       z     vdW  Elec       q    Type
REMARK                         _______ _______ _______ _____ _____    ______ ____
ROOT
ATOM     10  C   UNL     1      14.812  18.007  31.879  0.00  0.00    +0.038 A 
ATOM     11  C   UNL     1      14.412  18.290  30.548  0.00  0.00    +0.047 A 
ATOM     12  C   UNL     1      14.532  17.291  29.498  0.00  0.00    +0.035 A 
ATOM     32  C   UNL     1      15.061  16.012  29.839  0.00  0.00    +0.024 A 
ATOM     33  C   UNL     1      15.474  15.708  31.187  0.00  0.00    +0.007 A 
ATOM     34  C   UNL     1      15.360  16.691  32.226  0.00  0.00    -0.029 A 
ATOM     35  C   UNL     1      15.824  16.312  33.652  0.00  0.00    +0.045 C 
ENDROOT
BRANCH  10   9
ATOM      4  C   UNL     1      12.601  19.949  35.671  0.00  0.00    +0.077 A 
ATOM      5  C   UNL     1      11.620  18.903  35.709  0.00  0.00    +0.048 A 
ATOM      6  C   UNL     1      11.715  17.888  34.730  0.00  0.00    +0.116 A 
ATOM      7  N   UNL     1      12.721  17.926  33.789  0.00  0.00    -0.223 NA
ATOM      8  C   UNL     1      13.650  18.950  33.780  0.00  0.00    +0.220 A 
ATOM      9  N   UNL     1      14.675  19.004  32.848  0.00  0.00    -0.283 N 
ATOM     36  H   UNL     1      15.336  19.780  32.870  0.00  0.00    +0.155 HD
ATOM     37  N   UNL     1      13.580  19.932  34.703  0.00  0.00    -0.214 NA
BRANCH   4   3
ATOM      1  C   UNL     1      12.080  22.159  38.856  0.00  0.00    +0.020 A 
ATOM      2  C   UNL     1      12.018  21.028  37.958  0.00  0.00    +0.013 A 
ATOM      3  C   UNL     1      12.635  21.090  36.639  0.00  0.00    +0.019 A 
ATOM     38  C   UNL     1      13.314  22.319  36.257  0.00  0.00    +0.120 A 
ATOM     39  N   UNL     1      13.356  23.392  37.142  0.00  0.00    -0.263 NA
ATOM     40  C   UNL     1      12.764  23.345  38.413  0.00  0.00    +0.111 A 
ENDBRANCH   4   3
ENDBRANCH  10   9
BRANCH  12  13
ATOM     13  N   UNL     1      14.149  17.523  28.127  0.00  0.00    -0.281 N 
ATOM     14  C   UNL     1      12.882  17.775  27.627  0.00  0.00    +0.248 C 
ATOM     30  O   UNL     1      11.847  17.627  28.261  0.00  0.00    -0.270 OA
ATOM     31  H   UNL     1      14.905  17.499  27.442  0.00  0.00    +0.155 HD
BRANCH  14  15
ATOM     15  C   UNL     1      12.743  18.247  26.216  0.00  0.00    +0.037 A 
ATOM     16  C   UNL     1      11.488  18.080  25.479  0.00  0.00    +0.013 A 
ATOM     17  C   UNL     1      11.386  18.528  24.113  0.00  0.00    +0.005 A 
ATOM     18  C   UNL     1      12.544  19.149  23.475  0.00  0.00    -0.033 A 
ATOM     28  C   UNL     1      13.775  19.307  24.231  0.00  0.00    +0.005 A 
ATOM     29  C   UNL     1      13.879  18.868  25.570  0.00  0.00    +0.013 A 
BRANCH  18  19
ATOM     19  C   UNL     1      12.532  19.638  22.014  0.00  0.00    +0.119 C 
BRANCH  19  20
ATOM     20  N   UNL     1      13.106  18.723  20.982  0.00  0.00    -0.302 NA
ATOM     21  C   UNL     1      12.684  17.268  21.207  0.00  0.00    +0.066 C 
ATOM     22  C   UNL     1      13.274  16.328  20.106  0.00  0.00    -0.064 C 
ATOM     23  N   UNL     1      14.799  16.455  20.095  0.00  0.00    +0.379 N 
ATOM     24  C   UNL     1      15.361  15.529  19.100  0.00  0.00    -0.096 C 
ATOM     25  H   UNL     1      15.171  16.141  21.097  0.00  0.00    -0.082 HD
ATOM     26  C   UNL     1      15.227  17.899  19.875  0.00  0.00    -0.064 C 
ATOM     27  C   UNL     1      14.611  18.829  20.957  0.00  0.00    +0.066 C 
ENDBRANCH  19  20
ENDBRANCH  18  19
ENDBRANCH  14  15
ENDBRANCH  12  13
TORSDOF 6
ENDMDL
MODEL 3
REMARK VINA RESULT:      -8.9      3.435     14.078
REMARK  Name = C:\Users\Docking\Desktop\test protocol\1iep_ligandH.pdb
REMARK  8 active torsions:
REMARK  status: ('A' for Active; 'I' for Inactive)
REMARK    1  A    between atoms: _5  and  _11
REMARK    2  A    between atoms: _19  and  _21
REMARK    3  A    between atoms: _22  and  _66
REMARK    4  A    between atoms: _27  and  _30
REMARK    5  A    between atoms: _32  and  _33
REMARK    6  A    between atoms: _38  and  _43
REMARK    7  A    between atoms: _43  and  _46
REMARK    8  A    between atoms: _53  and  _55
REMARK                            x       y       z     vdW  Elec       q    Type
REMARK                         _______ _______ _______ _____ _____    ______ ____
ROOT
ATOM     10  C   UNL     1      14.368  18.273  31.602  0.00  0.00    +0.038 A 
ATOM     11  C   UNL     1      13.599  18.626  30.464  0.00  0.00    +0.047 A 
ATOM     12  C   UNL     1      13.449  17.710  29.343  0.00  0.00    +0.035 A 
ATOM     32  C   UNL     1      14.095  16.442  29.417  0.00  0.00    +0.024 A 
ATOM     33  C   UNL     1      14.881  16.067  30.566  0.00  0.00    +0.007 A 
ATOM     34  C   UNL     1      15.034  16.968  31.673  0.00  0.00    -0.029 A 
ATOM     35  C   UNL     1      15.895  16.516  32.876  0.00  0.00    +0.045 C 
ENDROOT
BRANCH  10   9
ATOM      4  C   UNL     1      13.035  19.994  35.880  0.00  0.00    +0.077 A 
ATOM      5  C   UNL     1      12.015  18.995  36.030  0.00  0.00    +0.048 A 
ATOM      6  C   UNL     1      11.862  18.062  34.980  0.00  0.00    +0.116 A 
ATOM      7  N   UNL     1      12.673  18.131  33.868  0.00  0.00    -0.223 NA
ATOM      8  C   UNL     1      13.645  19.108  33.754  0.00  0.00    +0.220 A 
ATOM      9  N   UNL     1      14.478  19.191  32.649  0.00  0.00    -0.283 N 
ATOM     36  H   UNL     1      15.178  19.931  32.599  0.00  0.00    +0.155 HD
ATOM     37  N   UNL     1      13.811  20.012  34.743  0.00  0.00    -0.214 NA
BRANCH   4   3
ATOM      1  C   UNL     1      13.542  23.450  37.639  0.00  0.00    +0.020 A 
ATOM      2  C   UNL     1      13.256  22.474  36.613  0.00  0.00    +0.013 A 
ATOM      3  C   UNL     1      13.322  21.047  36.904  0.00  0.00    +0.019 A 
ATOM     38  C   UNL     1      13.681  20.639  38.254  0.00  0.00    +0.120 A 
ATOM     39  N   UNL     1      13.953  21.602  39.221  0.00  0.00    -0.263 NA
ATOM     40  C   UNL     1      13.894  22.978  38.952  0.00  0.00    +0.111 A 
ENDBRANCH   4   3
ENDBRANCH  10   9
BRANCH  12  13
ATOM     13  N   UNL     1      12.687  18.016  28.158  0.00  0.00    -0.281 N 
ATOM     14  C   UNL     1      13.164  18.295  26.887  0.00  0.00    +0.248 C 
ATOM     30  O   UNL     1      14.333  18.533  26.625  0.00  0.00    -0.270 OA
ATOM     31  H   UNL     1      11.673  18.030  28.269  0.00  0.00    +0.155 HD
BRANCH  14  15
ATOM     15  C   UNL     1      12.200  18.326  25.745  0.00  0.00    +0.037 A 
ATOM     16  C   UNL     1      12.192  19.436  24.789  0.00  0.00    +0.013 A 
ATOM     17  C   UNL     1      11.241  19.450  23.706  0.00  0.00    +0.005 A 
ATOM     18  C   UNL     1      10.290  18.349  23.574  0.00  0.00    -0.033 A 
ATOM     28  C   UNL     1      10.323  17.258  24.534  0.00  0.00    +0.005 A 
ATOM     29  C   UNL     1      11.254  17.241  25.597  0.00  0.00    +0.013 A 
BRANCH  18  19
ATOM     19  C   UNL     1       9.225  18.292  22.462  0.00  0.00    +0.119 C 
BRANCH  19  20
ATOM     20  N   UNL     1       9.605  18.836  21.124  0.00  0.00    -0.302 NA
ATOM     21  C   UNL     1       8.754  20.048  20.734  0.00  0.00    +0.066 C 
ATOM     22  C   UNL     1       9.179  20.619  19.342  0.00  0.00    -0.064 C 
ATOM     23  N   UNL     1       9.067  19.517  18.287  0.00  0.00    +0.379 N 
ATOM     24  C   UNL     1       9.410  20.065  16.967  0.00  0.00    -0.096 C 
ATOM     25  H   UNL     1       8.002  19.191  18.251  0.00  0.00    -0.082 HD
ATOM     26  C   UNL     1       9.908  18.307  18.668  0.00  0.00    -0.064 C 
ATOM     27  C   UNL     1       9.497  17.766  20.066  0.00  0.00    +0.066 C 
ENDBRANCH  19  20
ENDBRANCH  18  19
ENDBRANCH  14  15
ENDBRANCH  12  13
TORSDOF 6
ENDMDL
MODEL 4
REMARK VINA RESULT:      -8.9      2.262      3.661
REMARK  Name = C:\Users\Docking\Desktop\test protocol\1iep_ligandH.pdb
REMARK  8 active torsions:
REMARK  status: ('A' for Active; 'I' for Inactive)
REMARK    1  A    between atoms: _5  and  _11
REMARK    2  A    between atoms: _19  and  _21
REMARK    3  A    between atoms: _22  and  _66
REMARK    4  A    between atoms: _27  and  _30
REMARK    5  A    between atoms: _32  and  _33
REMARK    6  A    between atoms: _38  and  _43
REMARK    7  A    between atoms: _43  and  _46
REMARK    8  A    between atoms: _53  and  _55
REMARK                            x       y       z     vdW  Elec       q    Type
REMARK                         _______ _______ _______ _____ _____    ______ ____
ROOT
ATOM     10  C   UNL     1      12.419  15.342  29.342  0.00  0.00    +0.038 A 
ATOM     11  C   UNL     1      12.447  16.363  30.326  0.00  0.00    +0.047 A 
ATOM     12  C   UNL     1      12.597  16.044  31.737  0.00  0.00    +0.035 A 
ATOM     32  C   UNL     1      12.719  14.674  32.111  0.00  0.00    +0.024 A 
ATOM     33  C   UNL     1      12.692  13.623  31.123  0.00  0.00    +0.007 A 
ATOM     34  C   UNL     1      12.542  13.932  29.730  0.00  0.00    -0.029 A 
ATOM     35  C   UNL     1      12.513  12.765  28.716  0.00  0.00    +0.045 C 
ENDROOT
BRANCH  10   9
ATOM      4  C   UNL     1      12.586  18.562  25.787  0.00  0.00    +0.077 A 
ATOM      5  C   UNL     1      12.972  19.617  26.680  0.00  0.00    +0.048 A 
ATOM      6  C   UNL     1      13.109  19.290  28.048  0.00  0.00    +0.116 A 
ATOM      7  N   UNL     1      12.876  18.002  28.479  0.00  0.00    -0.223 NA
ATOM      8  C   UNL     1      12.505  17.009  27.591  0.00  0.00    +0.220 A 
ATOM      9  N   UNL     1      12.273  15.705  28.001  0.00  0.00    -0.283 N 
ATOM     36  H   UNL     1      11.993  15.004  27.316  0.00  0.00    +0.155 HD
ATOM     37  N   UNL     1      12.365  17.296  26.280  0.00  0.00    -0.214 NA
BRANCH   4   3
ATOM      1  C   UNL     1      10.971  19.038  22.256  0.00  0.00    +0.020 A 
ATOM      2  C   UNL     1      11.093  18.857  23.684  0.00  0.00    +0.013 A 
ATOM      3  C   UNL     1      12.403  18.750  24.312  0.00  0.00    +0.019 A 
ATOM     38  C   UNL     1      13.580  18.831  23.461  0.00  0.00    +0.120 A 
ATOM     39  N   UNL     1      13.432  19.003  22.088  0.00  0.00    -0.263 NA
ATOM     40  C   UNL     1      12.176  19.106  21.472  0.00  0.00    +0.111 A 
ENDBRANCH   4   3
ENDBRANCH  10   9
BRANCH  12  13
ATOM     13  N   UNL     1      12.624  17.037  32.782  0.00  0.00    -0.281 N 
ATOM     14  C   UNL     1      13.612  17.973  33.042  0.00  0.00    +0.248 C 
ATOM     30  O   UNL     1      14.727  17.957  32.543  0.00  0.00    -0.270 OA
ATOM     31  H   UNL     1      11.817  17.052  33.405  0.00  0.00    +0.155 HD
BRANCH  14  15
ATOM     15  C   UNL     1      13.324  19.077  34.007  0.00  0.00    +0.037 A 
ATOM     16  C   UNL     1      12.648  18.817  35.281  0.00  0.00    +0.013 A 
ATOM     17  C   UNL     1      12.367  19.903  36.185  0.00  0.00    +0.005 A 
ATOM     18  C   UNL     1      12.764  21.261  35.820  0.00  0.00    -0.033 A 
ATOM     28  C   UNL     1      13.437  21.490  34.553  0.00  0.00    +0.005 A 
ATOM     29  C   UNL     1      13.714  20.428  33.663  0.00  0.00    +0.013 A 
BRANCH  18  19
ATOM     19  C   UNL     1      12.485  22.483  36.715  0.00  0.00    +0.119 C 
BRANCH  19  20
ATOM     20  N   UNL     1      13.583  22.930  37.623  0.00  0.00    -0.302 NA
ATOM     21  C   UNL     1      13.524  22.228  38.983  0.00  0.00    +0.066 C 
ATOM     22  C   UNL     1      14.693  22.691  39.913  0.00  0.00    -0.064 C 
ATOM     23  N   UNL     1      14.634  24.210  40.084  0.00  0.00    +0.379 N 
ATOM     24  C   UNL     1      15.697  24.641  41.004  0.00  0.00    -0.096 C 
ATOM     25  H   UNL     1      13.656  24.459  40.556  0.00  0.00    -0.082 HD
ATOM     26  C   UNL     1      14.689  24.915  38.737  0.00  0.00    -0.064 C 
ATOM     27  C   UNL     1      13.541  24.427  37.810  0.00  0.00    +0.066 C 
ENDBRANCH  19  20
ENDBRANCH  18  19
ENDBRANCH  14  15
ENDBRANCH  12  13
TORSDOF 6
ENDMDL
MODEL 5
REMARK VINA RESULT:      -8.9      6.412     13.049
REMARK  Name = C:\Users\Docking\Desktop\test protocol\1iep_ligandH.pdb
REMARK  8 active torsions:
REMARK  status: ('A' for Active; 'I' for Inactive)
REMARK    1  A    between atoms: _5  and  _11
REMARK    2  A    between atoms: _19  and  _21
REMARK    3  A    between atoms: _22  and  _66
REMARK    4  A    between atoms: _27  and  _30
REMARK    5  A    between atoms: _32  and  _33
REMARK    6  A    between atoms: _38  and  _43
REMARK    7  A    between atoms: _43  and  _46
REMARK    8  A    between atoms: _53  and  _55
REMARK                            x       y       z     vdW  Elec       q    Type
REMARK                         _______ _______ _______ _____ _____    ______ ____
ROOT
ATOM     10  C   UNL     1      14.803  15.863  32.068  0.00  0.00    +0.038 A 
ATOM     11  C   UNL     1      14.596  16.068  30.680  0.00  0.00    +0.047 A 
ATOM     12  C   UNL     1      14.314  17.393  30.148  0.00  0.00    +0.035 A 
ATOM     32  C   UNL     1      14.253  18.487  31.060  0.00  0.00    +0.024 A 
ATOM     33  C   UNL     1      14.461  18.296  32.474  0.00  0.00    +0.007 A 
ATOM     34  C   UNL     1      14.736  16.992  33.004  0.00  0.00    -0.029 A 
ATOM     35  C   UNL     1      14.944  16.845  34.529  0.00  0.00    +0.045 C 
ENDROOT
BRANCH  10   9
ATOM      4  C   UNL     1      13.431  11.683  33.986  0.00  0.00    +0.077 A 
ATOM      5  C   UNL     1      12.071  12.122  34.117  0.00  0.00    +0.048 A 
ATOM      6  C   UNL     1      11.768  13.433  33.685  0.00  0.00    +0.116 A 
ATOM      7  N   UNL     1      12.759  14.236  33.163  0.00  0.00    -0.223 NA
ATOM      8  C   UNL     1      14.060  13.782  33.052  0.00  0.00    +0.220 A 
ATOM      9  N   UNL     1      15.071  14.570  32.523  0.00  0.00    -0.283 N 
ATOM     36  H   UNL     1      16.020  14.201  32.465  0.00  0.00    +0.155 HD
ATOM     37  N   UNL     1      14.376  12.535  33.459  0.00  0.00    -0.214 NA
BRANCH   4   3
ATOM      1  C   UNL     1      15.724   8.635  34.851  0.00  0.00    +0.020 A 
ATOM      2  C   UNL     1      15.318   9.962  34.450  0.00  0.00    +0.013 A 
ATOM      3  C   UNL     1      13.907  10.324  34.394  0.00  0.00    +0.019 A 
ATOM     38  C   UNL     1      12.925   9.312  34.756  0.00  0.00    +0.120 A 
ATOM     39  N   UNL     1      13.346   8.042  35.137  0.00  0.00    -0.263 NA
ATOM     40  C   UNL     1      14.701   7.682  35.192  0.00  0.00    +0.111 A 
ENDBRANCH   4   3
ENDBRANCH  10   9
BRANCH  12  13
ATOM     13  N   UNL     1      14.087  17.661  28.750  0.00  0.00    -0.281 N 
ATOM     14  C   UNL     1      12.877  17.695  28.075  0.00  0.00    +0.248 C 
ATOM     30  O   UNL     1      11.819  17.289  28.532  0.00  0.00    -0.270 OA
ATOM     31  H   UNL     1      14.918  17.847  28.190  0.00  0.00    +0.155 HD
BRANCH  14  15
ATOM     15  C   UNL     1      12.841  18.248  26.687  0.00  0.00    +0.037 A 
ATOM     16  C   UNL     1      11.593  18.297  25.921  0.00  0.00    +0.013 A 
ATOM     17  C   UNL     1      11.588  18.820  24.578  0.00  0.00    +0.005 A 
ATOM     18  C   UNL     1      12.838  19.300  23.992  0.00  0.00    -0.033 A 
ATOM     28  C   UNL     1      14.060  19.245  24.777  0.00  0.00    +0.005 A 
ATOM     29  C   UNL     1      14.069  18.733  26.093  0.00  0.00    +0.013 A 
BRANCH  18  19
ATOM     19  C   UNL     1      12.930  19.855  22.559  0.00  0.00    +0.119 C 
BRANCH  19  20
ATOM     20  N   UNL     1      13.343  18.905  21.483  0.00  0.00    -0.302 NA
ATOM     21  C   UNL     1      13.145  17.445  21.900  0.00  0.00    +0.066 C 
ATOM     22  C   UNL     1      13.561  16.464  20.755  0.00  0.00    -0.064 C 
ATOM     23  N   UNL     1      15.018  16.725  20.368  0.00  0.00    +0.379 N 
ATOM     24  C   UNL     1      15.429  15.766  19.332  0.00  0.00    -0.096 C 
ATOM     25  H   UNL     1      15.645  16.538  21.271  0.00  0.00    -0.082 HD
ATOM     26  C   UNL     1      15.224  18.175  19.955  0.00  0.00    -0.064 C 
ATOM     27  C   UNL     1      14.780  19.141  21.089  0.00  0.00    +0.066 C 
ENDBRANCH  19  20
ENDBRANCH  18  19
ENDBRANCH  14  15
ENDBRANCH  12  13
TORSDOF 6
ENDMDL
