MODEL 1
REMARK VINA RESULT:     -10.0      0.000      0.000
REMARK  Name = C:\Users\Docking\Desktop\test protocol\1iep_ligandH.pdb
REMARK  8 active torsions:
REMARK  status: ('A' for Active; 'I' for Inactive)
REMARK    1  A    between atoms: _5  and  _11
REMARK    2  A    between atoms: _19  and  _21
REMARK    3  A    between atoms: _22  and  _66
REMARK    4  A    between atoms: _27  and  _30
REMARK    5  A    between atoms: _32  and  _33
REMARK    6  A    between atoms: _38  and  _43
REMARK    7  A    between atoms: _43  and  _46
REMARK    8  A    between atoms: _53  and  _55
REMARK                            x       y       z     vdW  Elec       q    Type
REMARK                         _______ _______ _______ _____ _____    ______ ____
ROOT
ATOM     10  C   UNL     1      12.752  17.015  32.352  0.00  0.00    +0.038 A 
ATOM     11  C   UNL     1      12.767  18.243  33.061  0.00  0.00    +0.047 A 
ATOM     12  C   UNL     1      13.479  18.375  34.323  0.00  0.00    +0.035 A 
ATOM     32  C   UNL     1      14.168  17.236  34.832  0.00  0.00    +0.024 A 
ATOM     33  C   UNL     1      14.163  15.979  34.125  0.00  0.00    +0.007 A 
ATOM     34  C   UNL     1      13.460  15.842  32.882  0.00  0.00    -0.029 A 
ATOM     35  C   UNL     1      13.483  14.470  32.170  0.00  0.00    +0.045 C 
ENDROOT
BRANCH  10   9
ATOM      4  C   UNL     1      12.492  17.443  27.579  0.00  0.00    +0.077 A 
ATOM      5  C   UNL     1      13.859  17.870  27.484  0.00  0.00    +0.048 A 
ATOM      6  C   UNL     1      14.592  17.973  28.687  0.00  0.00    +0.116 A 
ATOM      7  N   UNL     1      13.993  17.669  29.890  0.00  0.00    -0.223 NA
ATOM      8  C   UNL     1      12.673  17.262  29.947  0.00  0.00    +0.220 A 
ATOM      9  N   UNL     1      12.052  16.944  31.146  0.00  0.00    -0.283 N 
ATOM     36  H   UNL     1      11.075  16.655  31.146  0.00  0.00    +0.155 HD
ATOM     37  N   UNL     1      11.951  17.157  28.812  0.00  0.00    -0.214 NA
BRANCH   4   3
ATOM      1  C   UNL     1       9.311  17.037  25.339  0.00  0.00    +0.020 A 
ATOM      2  C   UNL     1      10.139  17.191  26.513  0.00  0.00    +0.013 A 
ATOM      3  C   UNL     1      11.589  17.283  26.396  0.00  0.00    +0.019 A 
ATOM     38  C   UNL     1      12.174  17.216  25.066  0.00  0.00    +0.120 A 
ATOM     39  N   UNL     1      11.352  17.066  23.953  0.00  0.00    -0.263 NA
ATOM     40  C   UNL     1       9.956  16.974  24.054  0.00  0.00    +0.111 A 
ENDBRANCH   4   3
ENDBRANCH  10   9
BRANCH  12  13
ATOM     13  N   UNL     1      13.523  19.594  35.091  0.00  0.00    -0.281 N 
ATOM     14  C   UNL     1      12.845  19.887  36.263  0.00  0.00    +0.248 C 
ATOM     30  O   UNL     1      11.929  19.218  36.717  0.00  0.00    -0.270 OA
ATOM     31  H   UNL     1      14.127  20.331  34.727  0.00  0.00    +0.155 HD
BRANCH  14  15
ATOM     15  C   UNL     1      13.233  21.106  37.036  0.00  0.00    +0.037 A 
ATOM     16  C   UNL     1      13.126  22.444  36.448  0.00  0.00    +0.013 A 
ATOM     17  C   UNL     1      13.522  23.602  37.209  0.00  0.00    +0.005 A 
ATOM     18  C   UNL     1      14.028  23.427  38.569  0.00  0.00    -0.033 A 
ATOM     28  C   UNL     1      14.118  22.089  39.129  0.00  0.00    +0.005 A 
ATOM     29  C   UNL     1      13.732  20.952  38.386  0.00  0.00    +0.013 A 
BRANCH  18  19
ATOM     19  C   UNL     1      14.493  24.605  39.446  0.00  0.00    +0.119 C 
BRANCH  19  20
ATOM     20  N   UNL     1      15.942  24.660  39.803  0.00  0.00    -0.302 NA
ATOM     21  C   UNL     1      16.171  24.463  41.304  0.00  0.00    +0.066 C 
ATOM     22  C   UNL     1      17.694  24.501  41.657  0.00  0.00    -0.064 C 
ATOM     23  N   UNL     1      18.290  25.830  41.188  0.00  0.00    +0.379 N 
ATOM     24  C   UNL     1      19.708  25.893  41.570  0.00  0.00    -0.096 C 
ATOM     25  H   UNL     1      17.757  26.648  41.727  0.00  0.00    -0.082 HD
ATOM     26  C   UNL     1      18.064  26.035  39.697  0.00  0.00    -0.064 C 
ATOM     27  C   UNL     1      16.550  25.966  39.353  0.00  0.00    +0.066 C 
ENDBRANCH  19  20
ENDBRANCH  18  19
ENDBRANCH  14  15
ENDBRANCH  12  13
TORSDOF 6
ENDMDL
MODEL 2
REMARK VINA RESULT:      -9.8      1.665      2.705
REMARK  Name = C:\Users\Docking\Desktop\test protocol\1iep_ligandH.pdb
REMARK  8 active torsions:
REMARK  status: ('A' for Active; 'I' for Inactive)
REMARK    1  A    between atoms: _5  and  _11
REMARK    2  A    between atoms: _19  and  _21
REMARK    3  A    between atoms: _22  and  _66
REMARK    4  A    between atoms: _27  and  _30
REMARK    5  A    between atoms: _32  and  _33
REMARK    6  A    between atoms: _38  and  _43
REMARK    7  A    between atoms: _43  and  _46
REMARK    8  A    between atoms: _53  and  _55
REMARK                            x       y       z     vdW  Elec       q    Type
REMARK                         _______ _______ _______ _____ _____    ______ ____
ROOT
ATOM     10  C   UNL     1      12.495  17.965  34.577  0.00  0.00    +0.038 A 
ATOM     11  C   UNL     1      12.958  19.207  35.084  0.00  0.00    +0.047 A 
ATOM     12  C   UNL     1      13.314  19.362  36.486  0.00  0.00    +0.035 A 
ATOM     32  C   UNL     1      13.188  18.231  37.344  0.00  0.00    +0.024 A 
ATOM     33  C   UNL     1      12.718  16.962  36.846  0.00  0.00    +0.007 A 
ATOM     34  C   UNL     1      12.364  16.803  35.465  0.00  0.00    -0.029 A 
ATOM     35  C   UNL     1      11.859  15.422  34.988  0.00  0.00    +0.045 C 
ENDROOT
BRANCH  10   9
ATOM      4  C   UNL     1      13.685  17.354  29.968  0.00  0.00    +0.077 A 
ATOM      5  C   UNL     1      15.080  17.236  30.282  0.00  0.00    +0.048 A 
ATOM      6  C   UNL     1      15.450  17.346  31.641  0.00  0.00    +0.116 A 
ATOM      7  N   UNL     1      14.489  17.557  32.606  0.00  0.00    -0.223 NA
ATOM      8  C   UNL     1      13.153  17.668  32.268  0.00  0.00    +0.220 A 
ATOM      9  N   UNL     1      12.168  17.873  33.223  0.00  0.00    -0.283 N 
ATOM     36  H   UNL     1      11.194  17.956  32.933  0.00  0.00    +0.155 HD
ATOM     37  N   UNL     1      12.773  17.568  30.977  0.00  0.00    -0.214 NA
BRANCH   4   3
ATOM      1  C   UNL     1      12.797  18.145  26.241  0.00  0.00    +0.020 A 
ATOM      2  C   UNL     1      13.348  18.288  27.569  0.00  0.00    +0.013 A 
ATOM      3  C   UNL     1      13.137  17.257  28.578  0.00  0.00    +0.019 A 
ATOM     38  C   UNL     1      12.358  16.085  28.208  0.00  0.00    +0.120 A 
ATOM     39  N   UNL     1      11.838  15.976  26.922  0.00  0.00    -0.263 NA
ATOM     40  C   UNL     1      12.034  16.962  25.943  0.00  0.00    +0.111 A 
ENDBRANCH   4   3
ENDBRANCH  10   9
BRANCH  12  13
ATOM     13  N   UNL     1      13.782  20.600  37.058  0.00  0.00    -0.281 N 
ATOM     14  C   UNL     1      13.025  21.647  37.557  0.00  0.00    +0.248 C 
ATOM     30  O   UNL     1      11.821  21.770  37.391  0.00  0.00    -0.270 OA
ATOM     31  H   UNL     1      14.794  20.718  37.101  0.00  0.00    +0.155 HD
BRANCH  14  15
ATOM     15  C   UNL     1      13.707  22.721  38.343  0.00  0.00    +0.037 A 
ATOM     16  C   UNL     1      13.757  24.102  37.858  0.00  0.00    +0.013 A 
ATOM     17  C   UNL     1      14.436  25.115  38.627  0.00  0.00    +0.005 A 
ATOM     18  C   UNL     1      15.070  24.749  39.891  0.00  0.00    -0.033 A 
ATOM     28  C   UNL     1      15.001  23.372  40.351  0.00  0.00    +0.005 A 
ATOM     29  C   UNL     1      14.337  22.376  39.600  0.00  0.00    +0.013 A 
BRANCH  18  19
ATOM     19  C   UNL     1      15.834  25.759  40.767  0.00  0.00    +0.119 C 
BRANCH  19  20
ATOM     20  N   UNL     1      17.326  25.698  40.738  0.00  0.00    -0.302 NA
ATOM     21  C   UNL     1      17.880  25.871  39.321  0.00  0.00    +0.066 C 
ATOM     22  C   UNL     1      19.443  25.827  39.312  0.00  0.00    -0.064 C 
ATOM     23  N   UNL     1      19.917  24.507  39.922  0.00  0.00    +0.379 N 
ATOM     24  C   UNL     1      21.384  24.437  39.863  0.00  0.00    -0.096 C 
ATOM     25  H   UNL     1      19.513  23.680  39.293  0.00  0.00    -0.082 HD
ATOM     26  C   UNL     1      19.368  24.326  41.330  0.00  0.00    -0.064 C 
ATOM     27  C   UNL     1      17.815  24.400  41.332  0.00  0.00    +0.066 C 
ENDBRANCH  19  20
ENDBRANCH  18  19
ENDBRANCH  14  15
ENDBRANCH  12  13
TORSDOF 6
ENDMDL
MODEL 3
REMARK VINA RESULT:      -9.6      3.406     13.331
REMARK  Name = C:\Users\Docking\Desktop\test protocol\1iep_ligandH.pdb
REMARK  8 active torsions:
REMARK  status: ('A' for Active; 'I' for Inactive)
REMARK    1  A    between atoms: _5  and  _11
REMARK    2  A    between atoms: _19  and  _21
REMARK    3  A    between atoms: _22  and  _66
REMARK    4  A    between atoms: _27  and  _30
REMARK    5  A    between atoms: _32  and  _33
REMARK    6  A    between atoms: _38  and  _43
REMARK    7  A    between atoms: _43  and  _46
REMARK    8  A    between atoms: _53  and  _55
REMARK                            x       y       z     vdW  Elec       q    Type
REMARK                         _______ _______ _______ _____ _____    ______ ____
ROOT
ATOM     10  C   UNL     1      14.847  17.995  31.898  0.00  0.00    +0.038 A 
ATOM     11  C   UNL     1      14.438  18.280  30.570  0.00  0.00    +0.047 A 
ATOM     12  C   UNL     1      14.580  17.292  29.511  0.00  0.00    +0.035 A 
ATOM     32  C   UNL     1      15.140  16.024  29.841  0.00  0.00    +0.024 A 
ATOM     33  C   UNL     1      15.562  15.718  31.185  0.00  0.00    +0.007 A 
ATOM     34  C   UNL     1      15.427  16.689  32.233  0.00  0.00    -0.029 A 
ATOM     35  C   UNL     1      15.902  16.309  33.655  0.00  0.00    +0.045 C 
ENDROOT
BRANCH  10   9
ATOM      4  C   UNL     1      12.579  19.865  35.692  0.00  0.00    +0.077 A 
ATOM      5  C   UNL     1      11.614  18.804  35.713  0.00  0.00    +0.048 A 
ATOM      6  C   UNL     1      11.731  17.801  34.725  0.00  0.00    +0.116 A 
ATOM      7  N   UNL     1      12.744  17.863  33.792  0.00  0.00    -0.223 NA
ATOM      8  C   UNL     1      13.657  18.901  33.799  0.00  0.00    +0.220 A 
ATOM      9  N   UNL     1      14.688  18.980  32.876  0.00  0.00    -0.283 N 
ATOM     36  H   UNL     1      15.337  19.765  32.910  0.00  0.00    +0.155 HD
ATOM     37  N   UNL     1      13.565  19.873  34.731  0.00  0.00    -0.214 NA
BRANCH   4   3
ATOM      1  C   UNL     1      12.211  21.969  38.970  0.00  0.00    +0.020 A 
ATOM      2  C   UNL     1      12.183  20.843  38.064  0.00  0.00    +0.013 A 
ATOM      3  C   UNL     1      12.589  20.997  36.673  0.00  0.00    +0.019 A 
ATOM     38  C   UNL     1      13.023  22.312  36.226  0.00  0.00    +0.120 A 
ATOM     39  N   UNL     1      13.039  23.378  37.121  0.00  0.00    -0.263 NA
ATOM     40  C   UNL     1      12.648  23.242  38.462  0.00  0.00    +0.111 A 
ENDBRANCH   4   3
ENDBRANCH  10   9
BRANCH  12  13
ATOM     13  N   UNL     1      14.189  17.527  28.143  0.00  0.00    -0.281 N 
ATOM     14  C   UNL     1      12.923  17.802  27.654  0.00  0.00    +0.248 C 
ATOM     30  O   UNL     1      11.891  17.676  28.297  0.00  0.00    -0.270 OA
ATOM     31  H   UNL     1      14.938  17.486  27.451  0.00  0.00    +0.155 HD
BRANCH  14  15
ATOM     15  C   UNL     1      12.780  18.271  26.242  0.00  0.00    +0.037 A 
ATOM     16  C   UNL     1      11.516  18.125  25.517  0.00  0.00    +0.013 A 
ATOM     17  C   UNL     1      11.410  18.570  24.150  0.00  0.00    +0.005 A 
ATOM     18  C   UNL     1      12.574  19.168  23.500  0.00  0.00    -0.033 A 
ATOM     28  C   UNL     1      13.814  19.305  24.244  0.00  0.00    +0.005 A 
ATOM     29  C   UNL     1      13.922  18.869  25.584  0.00  0.00    +0.013 A 
BRANCH  18  19
ATOM     19  C   UNL     1      12.558  19.651  22.037  0.00  0.00    +0.119 C 
BRANCH  19  20
ATOM     20  N   UNL     1      13.141  18.739  21.009  0.00  0.00    -0.302 NA
ATOM     21  C   UNL     1      12.739  17.280  21.242  0.00  0.00    +0.066 C 
ATOM     22  C   UNL     1      13.339  16.342  20.144  0.00  0.00    -0.064 C 
ATOM     23  N   UNL     1      14.861  16.489  20.128  0.00  0.00    +0.379 N 
ATOM     24  C   UNL     1      15.433  15.565  19.137  0.00  0.00    -0.096 C 
ATOM     25  H   UNL     1      15.241  16.185  21.132  0.00  0.00    -0.082 HD
ATOM     26  C   UNL     1      15.269  17.937  19.900  0.00  0.00    -0.064 C 
ATOM     27  C   UNL     1      14.644  18.864  20.979  0.00  0.00    +0.066 C 
ENDBRANCH  19  20
ENDBRANCH  18  19
ENDBRANCH  14  15
ENDBRANCH  12  13
TORSDOF 6
ENDMDL
MODEL 4
REMARK VINA RESULT:      -9.2      2.979      5.681
REMARK  Name = C:\Users\Docking\Desktop\test protocol\1iep_ligandH.pdb
REMARK  8 active torsions:
REMARK  status: ('A' for Active; 'I' for Inactive)
REMARK    1  A    between atoms: _5  and  _11
REMARK    2  A    between atoms: _19  and  _21
REMARK    3  A    between atoms: _22  and  _66
REMARK    4  A    between atoms: _27  and  _30
REMARK    5  A    between atoms: _32  and  _33
REMARK    6  A    between atoms: _38  and  _43
REMARK    7  A    between atoms: _43  and  _46
REMARK    8  A    between atoms: _53  and  _55
REMARK                            x       y       z     vdW  Elec       q    Type
REMARK                         _______ _______ _______ _____ _____    ______ ____
ROOT
ATOM     10  C   UNL     1      12.829  16.644  32.512  0.00  0.00    +0.038 A 
ATOM     11  C   UNL     1      12.826  17.598  33.562  0.00  0.00    +0.047 A 
ATOM     12  C   UNL     1      13.421  18.913  33.387  0.00  0.00    +0.035 A 
ATOM     32  C   UNL     1      14.010  19.225  32.127  0.00  0.00    +0.024 A 
ATOM     33  C   UNL     1      14.024  18.268  31.049  0.00  0.00    +0.007 A 
ATOM     34  C   UNL     1      13.440  16.968  31.217  0.00  0.00    -0.029 A 
ATOM     35  C   UNL     1      13.489  15.979  30.029  0.00  0.00    +0.045 C 
ENDROOT
BRANCH  10   9
ATOM      4  C   UNL     1      13.082  12.001  33.700  0.00  0.00    +0.077 A 
ATOM      5  C   UNL     1      14.507  12.060  33.864  0.00  0.00    +0.048 A 
ATOM      6  C   UNL     1      15.137  13.302  33.626  0.00  0.00    +0.116 A 
ATOM      7  N   UNL     1      14.388  14.397  33.253  0.00  0.00    -0.223 NA
ATOM      8  C   UNL     1      13.017  14.306  33.102  0.00  0.00    +0.220 A 
ATOM      9  N   UNL     1      12.243  15.397  32.736  0.00  0.00    -0.283 N 
ATOM     36  H   UNL     1      11.235  15.287  32.628  0.00  0.00    +0.155 HD
ATOM     37  N   UNL     1      12.392  13.131  33.322  0.00  0.00    -0.214 NA
BRANCH   4   3
ATOM      1  C   UNL     1      11.985   8.255  33.953  0.00  0.00    +0.020 A 
ATOM      2  C   UNL     1      12.810   9.420  33.728  0.00  0.00    +0.013 A 
ATOM      3  C   UNL     1      12.273  10.761  33.919  0.00  0.00    +0.019 A 
ATOM     38  C   UNL     1      10.886  10.890  34.342  0.00  0.00    +0.120 A 
ATOM     39  N   UNL     1      10.116   9.750  34.550  0.00  0.00    -0.263 NA
ATOM     40  C   UNL     1      10.622   8.454  34.368  0.00  0.00    +0.111 A 
ENDBRANCH   4   3
ENDBRANCH  10   9
BRANCH  12  13
ATOM     13  N   UNL     1      13.455  19.919  34.419  0.00  0.00    -0.281 N 
ATOM     14  C   UNL     1      12.851  19.880  35.666  0.00  0.00    +0.248 C 
ATOM     30  O   UNL     1      12.009  19.061  36.000  0.00  0.00    -0.270 OA
ATOM     31  H   UNL     1      13.988  20.762  34.206  0.00  0.00    +0.155 HD
BRANCH  14  15
ATOM     15  C   UNL     1      13.226  20.910  36.682  0.00  0.00    +0.037 A 
ATOM     16  C   UNL     1      13.552  20.534  38.060  0.00  0.00    +0.013 A 
ATOM     17  C   UNL     1      13.894  21.548  39.025  0.00  0.00    +0.005 A 
ATOM     18  C   UNL     1      13.914  22.950  38.614  0.00  0.00    -0.033 A 
ATOM     28  C   UNL     1      13.592  23.295  37.239  0.00  0.00    +0.005 A 
ATOM     29  C   UNL     1      13.255  22.303  36.291  0.00  0.00    +0.013 A 
BRANCH  18  19
ATOM     19  C   UNL     1      14.247  24.101  39.582  0.00  0.00    +0.119 C 
BRANCH  19  20
ATOM     20  N   UNL     1      15.684  24.485  39.718  0.00  0.00    -0.302 NA
ATOM     21  C   UNL     1      16.148  24.464  41.177  0.00  0.00    +0.066 C 
ATOM     22  C   UNL     1      17.659  24.846  41.300  0.00  0.00    -0.064 C 
ATOM     23  N   UNL     1      17.885  26.226  40.679  0.00  0.00    +0.379 N 
ATOM     24  C   UNL     1      19.294  26.614  40.844  0.00  0.00    -0.096 C 
ATOM     25  H   UNL     1      17.264  26.958  41.247  0.00  0.00    -0.082 HD
ATOM     26  C   UNL     1      17.424  26.257  39.229  0.00  0.00    -0.064 C 
ATOM     27  C   UNL     1      15.929  25.846  39.116  0.00  0.00    +0.066 C 
ENDBRANCH  19  20
ENDBRANCH  18  19
ENDBRANCH  14  15
ENDBRANCH  12  13
TORSDOF 6
ENDMDL
MODEL 5
REMARK VINA RESULT:      -8.9      3.475      6.481
REMARK  Name = C:\Users\Docking\Desktop\test protocol\1iep_ligandH.pdb
REMARK  8 active torsions:
REMARK  status: ('A' for Active; 'I' for Inactive)
REMARK    1  A    between atoms: _5  and  _11
REMARK    2  A    between atoms: _19  and  _21
REMARK    3  A    between atoms: _22  and  _66
REMARK    4  A    between atoms: _27  and  _30
REMARK    5  A    between atoms: _32  and  _33
REMARK    6  A    between atoms: _38  and  _43
REMARK    7  A    between atoms: _43  and  _46
REMARK    8  A    between atoms: _53  and  _55
REMARK                            x       y       z     vdW  Elec       q    Type
REMARK                         _______ _______ _______ _____ _____    ______ ____
ROOT
ATOM     10  C   UNL     1      14.068  15.896  32.911  0.00  0.00    +0.038 A 
ATOM     11  C   UNL     1      14.001  16.916  33.895  0.00  0.00    +0.047 A 
ATOM     12  C   UNL     1      13.473  18.234  33.578  0.00  0.00    +0.035 A 
ATOM     32  C   UNL     1      13.017  18.477  32.249  0.00  0.00    +0.024 A 
ATOM     33  C   UNL     1      13.079  17.453  31.237  0.00  0.00    +0.007 A 
ATOM     34  C   UNL     1      13.602  16.152  31.543  0.00  0.00    -0.029 A 
ATOM     35  C   UNL     1      13.649  15.093  30.416  0.00  0.00    +0.045 C 
ENDROOT
BRANCH  10   9
ATOM      4  C   UNL     1      13.544  11.385  34.463  0.00  0.00    +0.077 A 
ATOM      5  C   UNL     1      12.123  11.532  34.594  0.00  0.00    +0.048 A 
ATOM      6  C   UNL     1      11.567  12.787  34.259  0.00  0.00    +0.116 A 
ATOM      7  N   UNL     1      12.381  13.811  33.826  0.00  0.00    -0.223 NA
ATOM      8  C   UNL     1      13.748  13.636  33.712  0.00  0.00    +0.220 A 
ATOM      9  N   UNL     1      14.585  14.650  33.270  0.00  0.00    -0.283 N 
ATOM     36  H   UNL     1      15.589  14.483  33.207  0.00  0.00    +0.155 HD
ATOM     37  N   UNL     1      14.303  12.447  34.027  0.00  0.00    -0.214 NA
BRANCH   4   3
ATOM      1  C   UNL     1      16.257   8.849  35.691  0.00  0.00    +0.020 A 
ATOM      2  C   UNL     1      15.590  10.099  35.411  0.00  0.00    +0.013 A 
ATOM      3  C   UNL     1      14.279  10.118  34.775  0.00  0.00    +0.019 A 
ATOM     38  C   UNL     1      13.665   8.844  34.433  0.00  0.00    +0.120 A 
ATOM     39  N   UNL     1      14.332   7.655  34.714  0.00  0.00    -0.263 NA
ATOM     40  C   UNL     1      15.595   7.625  35.324  0.00  0.00    +0.111 A 
ENDBRANCH   4   3
ENDBRANCH  10   9
BRANCH  12  13
ATOM     13  N   UNL     1      13.388  19.311  34.533  0.00  0.00    -0.281 N 
ATOM     14  C   UNL     1      13.122  19.227  35.890  0.00  0.00    +0.248 C 
ATOM     30  O   UNL     1      12.703  18.226  36.451  0.00  0.00    -0.270 OA
ATOM     31  H   UNL     1      13.543  20.249  34.163  0.00  0.00    +0.155 HD
BRANCH  14  15
ATOM     15  C   UNL     1      13.339  20.434  36.744  0.00  0.00    +0.037 A 
ATOM     16  C   UNL     1      13.268  21.785  36.182  0.00  0.00    +0.013 A 
ATOM     17  C   UNL     1      13.498  22.932  37.024  0.00  0.00    +0.005 A 
ATOM     18  C   UNL     1      13.800  22.732  38.440  0.00  0.00    -0.033 A 
ATOM     28  C   UNL     1      13.858  21.381  38.972  0.00  0.00    +0.005 A 
ATOM     29  C   UNL     1      13.634  20.254  38.149  0.00  0.00    +0.013 A 
BRANCH  18  19
ATOM     19  C   UNL     1      14.080  23.896  39.408  0.00  0.00    +0.119 C 
BRANCH  19  20
ATOM     20  N   UNL     1      15.503  24.314  39.582  0.00  0.00    -0.302 NA
ATOM     21  C   UNL     1      15.958  24.213  41.040  0.00  0.00    +0.066 C 
ATOM     22  C   UNL     1      17.455  24.633  41.200  0.00  0.00    -0.064 C 
ATOM     23  N   UNL     1      17.642  26.056  40.672  0.00  0.00    +0.379 N 
ATOM     24  C   UNL     1      19.037  26.475  40.873  0.00  0.00    -0.096 C 
ATOM     25  H   UNL     1      16.995  26.730  41.280  0.00  0.00    -0.082 HD
ATOM     26  C   UNL     1      17.190  26.166  39.222  0.00  0.00    -0.064 C 
ATOM     27  C   UNL     1      15.709  25.719  39.070  0.00  0.00    +0.066 C 
ENDBRANCH  19  20
ENDBRANCH  18  19
ENDBRANCH  14  15
ENDBRANCH  12  13
TORSDOF 6
ENDMDL
