MODEL 1
REMARK VINA RESULT:      -9.8      0.000      0.000
REMARK  Name = C:\Users\Docking\Desktop\test protocol\1iep_ligandH.pdb
REMARK  8 active torsions:
REMARK  status: ('A' for Active; 'I' for Inactive)
REMARK    1  A    between atoms: _5  and  _11
REMARK    2  A    between atoms: _19  and  _21
REMARK    3  A    between atoms: _22  and  _66
REMARK    4  A    between atoms: _27  and  _30
REMARK    5  A    between atoms: _32  and  _33
REMARK    6  A    between atoms: _38  and  _43
REMARK    7  A    between atoms: _43  and  _46
REMARK    8  A    between atoms: _53  and  _55
REMARK                            x       y       z     vdW  Elec       q    Type
REMARK                         _______ _______ _______ _____ _____    ______ ____
ROOT
ATOM     10  C   UNL     1      12.681  16.949  32.096  0.00  0.00    +0.038 A 
ATOM     11  C   UNL     1      12.705  18.135  32.872  0.00  0.00    +0.047 A 
ATOM     12  C   UNL     1      13.416  18.191  34.140  0.00  0.00    +0.035 A 
ATOM     32  C   UNL     1      14.094  17.019  34.586  0.00  0.00    +0.024 A 
ATOM     33  C   UNL     1      14.079  15.804  33.810  0.00  0.00    +0.007 A 
ATOM     34  C   UNL     1      13.377  15.743  32.560  0.00  0.00    -0.029 A 
ATOM     35  C   UNL     1      13.390  14.411  31.773  0.00  0.00    +0.045 C 
ENDROOT
BRANCH  10   9
ATOM      4  C   UNL     1      12.448  17.595  27.345  0.00  0.00    +0.077 A 
ATOM      5  C   UNL     1      13.826  17.985  27.271  0.00  0.00    +0.048 A 
ATOM      6  C   UNL     1      14.558  18.014  28.479  0.00  0.00    +0.116 A 
ATOM      7  N   UNL     1      13.947  17.675  29.667  0.00  0.00    -0.223 NA
ATOM      8  C   UNL     1      12.616  17.304  29.704  0.00  0.00    +0.220 A 
ATOM      9  N   UNL     1      11.983  16.951  30.886  0.00  0.00    -0.283 N 
ATOM     36  H   UNL     1      10.997  16.691  30.872  0.00  0.00    +0.155 HD
ATOM     37  N   UNL     1      11.895  17.270  28.564  0.00  0.00    -0.214 NA
BRANCH   4   3
ATOM      1  C   UNL     1       9.471  18.162  24.872  0.00  0.00    +0.020 A 
ATOM      2  C   UNL     1      10.308  18.277  26.044  0.00  0.00    +0.013 A 
ATOM      3  C   UNL     1      11.544  17.512  26.155  0.00  0.00    +0.019 A 
ATOM     38  C   UNL     1      11.906  16.633  25.053  0.00  0.00    +0.120 A 
ATOM     39  N   UNL     1      11.079  16.541  23.938  0.00  0.00    -0.263 NA
ATOM     40  C   UNL     1       9.887  17.271  23.821  0.00  0.00    +0.111 A 
ENDBRANCH   4   3
ENDBRANCH  10   9
BRANCH  12  13
ATOM     13  N   UNL     1      13.469  19.365  34.975  0.00  0.00    -0.281 N 
ATOM     14  C   UNL     1      12.836  19.576  36.189  0.00  0.00    +0.248 C 
ATOM     30  O   UNL     1      11.952  18.863  36.641  0.00  0.00    -0.270 OA
ATOM     31  H   UNL     1      14.042  20.135  34.629  0.00  0.00    +0.155 HD
BRANCH  14  15
ATOM     15  C   UNL     1      13.231  20.757  37.014  0.00  0.00    +0.037 A 
ATOM     16  C   UNL     1      13.504  20.626  38.448  0.00  0.00    +0.013 A 
ATOM     17  C   UNL     1      13.867  21.785  39.224  0.00  0.00    +0.005 A 
ATOM     18  C   UNL     1      13.962  23.087  38.567  0.00  0.00    -0.033 A 
ATOM     28  C   UNL     1      13.691  23.187  37.142  0.00  0.00    +0.005 A 
ATOM     29  C   UNL     1      13.334  22.054  36.378  0.00  0.00    +0.013 A 
BRANCH  18  19
ATOM     19  C   UNL     1      14.323  24.380  39.321  0.00  0.00    +0.119 C 
BRANCH  19  20
ATOM     20  N   UNL     1      15.772  24.655  39.553  0.00  0.00    -0.302 NA
ATOM     21  C   UNL     1      16.155  24.508  41.028  0.00  0.00    +0.066 C 
ATOM     22  C   UNL     1      17.680  24.777  41.249  0.00  0.00    -0.064 C 
ATOM     23  N   UNL     1      18.028  26.175  40.736  0.00  0.00    +0.379 N 
ATOM     24  C   UNL     1      19.448  26.454  40.995  0.00  0.00    -0.096 C 
ATOM     25  H   UNL     1      17.427  26.910  41.320  0.00  0.00    -0.082 HD
ATOM     26  C   UNL     1      17.647  26.331  39.270  0.00  0.00    -0.064 C 
ATOM     27  C   UNL     1      16.137  26.032  39.056  0.00  0.00    +0.066 C 
ENDBRANCH  19  20
ENDBRANCH  18  19
ENDBRANCH  14  15
ENDBRANCH  12  13
TORSDOF 6
ENDMDL
MODEL 2
REMARK VINA RESULT:      -9.5      3.317     13.428
REMARK  Name = C:\Users\Docking\Desktop\test protocol\1iep_ligandH.pdb
REMARK  8 active torsions:
REMARK  status: ('A' for Active; 'I' for Inactive)
REMARK    1  A    between atoms: _5  and  _11
REMARK    2  A    between atoms: _19  and  _21
REMARK    3  A    between atoms: _22  and  _66
REMARK    4  A    between atoms: _27  and  _30
REMARK    5  A    between atoms: _32  and  _33
REMARK    6  A    between atoms: _38  and  _43
REMARK    7  A    between atoms: _43  and  _46
REMARK    8  A    between atoms: _53  and  _55
REMARK                            x       y       z     vdW  Elec       q    Type
REMARK                         _______ _______ _______ _____ _____    ______ ____
ROOT
ATOM     10  C   UNL     1      14.665  18.123  31.641  0.00  0.00    +0.038 A 
ATOM     11  C   UNL     1      14.121  18.354  30.351  0.00  0.00    +0.047 A 
ATOM     12  C   UNL     1      14.232  17.358  29.298  0.00  0.00    +0.035 A 
ATOM     32  C   UNL     1      14.902  16.135  29.593  0.00  0.00    +0.024 A 
ATOM     33  C   UNL     1      15.462  15.883  30.897  0.00  0.00    +0.007 A 
ATOM     34  C   UNL     1      15.358  16.864  31.940  0.00  0.00    -0.029 A 
ATOM     35  C   UNL     1      15.983  16.544  33.318  0.00  0.00    +0.045 C 
ENDROOT
BRANCH  10   9
ATOM      4  C   UNL     1      12.668  19.891  35.631  0.00  0.00    +0.077 A 
ATOM      5  C   UNL     1      11.803  18.756  35.772  0.00  0.00    +0.048 A 
ATOM      6  C   UNL     1      11.898  17.742  34.792  0.00  0.00    +0.116 A 
ATOM      7  N   UNL     1      12.795  17.865  33.754  0.00  0.00    -0.223 NA
ATOM      8  C   UNL     1      13.614  18.974  33.646  0.00  0.00    +0.220 A 
ATOM      9  N   UNL     1      14.530  19.115  32.615  0.00  0.00    -0.283 N 
ATOM     36  H   UNL     1      15.110  19.951  32.567  0.00  0.00    +0.155 HD
ATOM     37  N   UNL     1      13.542  19.957  34.568  0.00  0.00    -0.214 NA
BRANCH   4   3
ATOM      1  C   UNL     1      12.050  22.158  38.758  0.00  0.00    +0.020 A 
ATOM      2  C   UNL     1      11.999  21.019  37.871  0.00  0.00    +0.013 A 
ATOM      3  C   UNL     1      12.688  21.043  36.587  0.00  0.00    +0.019 A 
ATOM     38  C   UNL     1      13.426  22.245  36.228  0.00  0.00    +0.120 A 
ATOM     39  N   UNL     1      13.456  23.327  37.102  0.00  0.00    -0.263 NA
ATOM     40  C   UNL     1      12.796  23.316  38.339  0.00  0.00    +0.111 A 
ENDBRANCH   4   3
ENDBRANCH  10   9
BRANCH  12  13
ATOM     13  N   UNL     1      13.706  17.540  27.968  0.00  0.00    -0.281 N 
ATOM     14  C   UNL     1      13.128  18.678  27.429  0.00  0.00    +0.248 C 
ATOM     30  O   UNL     1      12.780  19.651  28.081  0.00  0.00    -0.270 OA
ATOM     31  H   UNL     1      13.767  16.732  27.348  0.00  0.00    +0.155 HD
BRANCH  14  15
ATOM     15  C   UNL     1      12.889  18.737  25.955  0.00  0.00    +0.037 A 
ATOM     16  C   UNL     1      12.192  17.655  25.254  0.00  0.00    +0.013 A 
ATOM     17  C   UNL     1      11.990  17.730  23.828  0.00  0.00    +0.005 A 
ATOM     18  C   UNL     1      12.484  18.892  23.095  0.00  0.00    -0.033 A 
ATOM     28  C   UNL     1      13.167  19.954  23.816  0.00  0.00    +0.005 A 
ATOM     29  C   UNL     1      13.368  19.884  25.213  0.00  0.00    +0.013 A 
BRANCH  18  19
ATOM     19  C   UNL     1      12.331  19.046  21.570  0.00  0.00    +0.119 C 
BRANCH  19  20
ATOM     20  N   UNL     1      13.187  18.179  20.706  0.00  0.00    -0.302 NA
ATOM     21  C   UNL     1      12.535  16.822  20.429  0.00  0.00    +0.066 C 
ATOM     22  C   UNL     1      13.434  15.936  19.506  0.00  0.00    -0.064 C 
ATOM     23  N   UNL     1      14.806  15.755  20.156  0.00  0.00    +0.379 N 
ATOM     24  C   UNL     1      15.634  14.876  19.318  0.00  0.00    -0.096 C 
ATOM     25  H   UNL     1      14.652  15.244  21.134  0.00  0.00    -0.082 HD
ATOM     26  C   UNL     1      15.461  17.101  20.437  0.00  0.00    -0.064 C 
ATOM     27  C   UNL     1      14.546  17.984  21.331  0.00  0.00    +0.066 C 
ENDBRANCH  19  20
ENDBRANCH  18  19
ENDBRANCH  14  15
ENDBRANCH  12  13
TORSDOF 6
ENDMDL
MODEL 3
REMARK VINA RESULT:      -9.3      3.947      7.875
REMARK  Name = C:\Users\Docking\Desktop\test protocol\1iep_ligandH.pdb
REMARK  8 active torsions:
REMARK  status: ('A' for Active; 'I' for Inactive)
REMARK    1  A    between atoms: _5  and  _11
REMARK    2  A    between atoms: _19  and  _21
REMARK    3  A    between atoms: _22  and  _66
REMARK    4  A    between atoms: _27  and  _30
REMARK    5  A    between atoms: _32  and  _33
REMARK    6  A    between atoms: _38  and  _43
REMARK    7  A    between atoms: _43  and  _46
REMARK    8  A    between atoms: _53  and  _55
REMARK                            x       y       z     vdW  Elec       q    Type
REMARK                         _______ _______ _______ _____ _____    ______ ____
ROOT
ATOM     10  C   UNL     1      11.808  16.788  24.695  0.00  0.00    +0.038 A 
ATOM     11  C   UNL     1      12.210  16.644  26.047  0.00  0.00    +0.047 A 
ATOM     12  C   UNL     1      11.658  17.493  27.091  0.00  0.00    +0.035 A 
ATOM     32  C   UNL     1      10.696  18.477  26.723  0.00  0.00    +0.024 A 
ATOM     33  C   UNL     1      10.275  18.638  25.354  0.00  0.00    +0.007 A 
ATOM     34  C   UNL     1      10.818  17.805  24.319  0.00  0.00    -0.029 A 
ATOM     35  C   UNL     1      10.336  18.027  22.866  0.00  0.00    +0.045 C 
ENDROOT
BRANCH  10   9
ATOM      4  C   UNL     1      14.746  15.962  20.990  0.00  0.00    +0.077 A 
ATOM      5  C   UNL     1      15.176  17.330  20.951  0.00  0.00    +0.048 A 
ATOM      6  C   UNL     1      14.613  18.216  21.896  0.00  0.00    +0.116 A 
ATOM      7  N   UNL     1      13.688  17.756  22.809  0.00  0.00    -0.223 NA
ATOM      8  C   UNL     1      13.293  16.431  22.819  0.00  0.00    +0.220 A 
ATOM      9  N   UNL     1      12.370  15.946  23.733  0.00  0.00    -0.283 N 
ATOM     36  H   UNL     1      12.099  14.964  23.703  0.00  0.00    +0.155 HD
ATOM     37  N   UNL     1      13.815  15.566  21.925  0.00  0.00    -0.214 NA
BRANCH   4   3
ATOM      1  C   UNL     1      15.028  13.411  18.039  0.00  0.00    +0.020 A 
ATOM      2  C   UNL     1      14.493  14.434  18.908  0.00  0.00    +0.013 A 
ATOM      3  C   UNL     1      15.252  14.906  20.059  0.00  0.00    +0.019 A 
ATOM     38  C   UNL     1      16.561  14.318  20.304  0.00  0.00    +0.120 A 
ATOM     39  N   UNL     1      17.050  13.334  19.450  0.00  0.00    -0.263 NA
ATOM     40  C   UNL     1      16.327  12.871  18.341  0.00  0.00    +0.111 A 
ENDBRANCH   4   3
ENDBRANCH  10   9
BRANCH  12  13
ATOM     13  N   UNL     1      12.035  17.398  28.480  0.00  0.00    -0.281 N 
ATOM     14  C   UNL     1      13.273  17.654  29.046  0.00  0.00    +0.248 C 
ATOM     30  O   UNL     1      14.307  17.799  28.410  0.00  0.00    -0.270 OA
ATOM     31  H   UNL     1      11.300  17.106  29.124  0.00  0.00    +0.155 HD
BRANCH  14  15
ATOM     15  C   UNL     1      13.382  17.749  30.534  0.00  0.00    +0.037 A 
ATOM     16  C   UNL     1      12.529  16.943  31.411  0.00  0.00    +0.013 A 
ATOM     17  C   UNL     1      12.642  17.066  32.842  0.00  0.00    +0.005 A 
ATOM     18  C   UNL     1      13.614  17.999  33.406  0.00  0.00    -0.033 A 
ATOM     28  C   UNL     1      14.451  18.783  32.513  0.00  0.00    +0.005 A 
ATOM     29  C   UNL     1      14.343  18.666  31.109  0.00  0.00    +0.013 A 
BRANCH  18  19
ATOM     19  C   UNL     1      13.788  18.211  34.922  0.00  0.00    +0.119 C 
BRANCH  19  20
ATOM     20  N   UNL     1      12.942  19.259  35.567  0.00  0.00    -0.302 NA
ATOM     21  C   UNL     1      13.497  20.667  35.338  0.00  0.00    +0.066 C 
ATOM     22  C   UNL     1      12.587  21.752  36.001  0.00  0.00    -0.064 C 
ATOM     23  N   UNL     1      12.456  21.459  37.497  0.00  0.00    +0.379 N 
ATOM     24  C   UNL     1      11.649  22.509  38.134  0.00  0.00    -0.096 C 
ATOM     25  H   UNL     1      13.477  21.501  37.941  0.00  0.00    -0.082 HD
ATOM     26  C   UNL     1      11.907  20.059  37.734  0.00  0.00    -0.064 C 
ATOM     27  C   UNL     1      12.802  18.990  37.046  0.00  0.00    +0.066 C 
ENDBRANCH  19  20
ENDBRANCH  18  19
ENDBRANCH  14  15
ENDBRANCH  12  13
TORSDOF 6
ENDMDL
MODEL 4
REMARK VINA RESULT:      -9.0      3.348     13.810
REMARK  Name = C:\Users\Docking\Desktop\test protocol\1iep_ligandH.pdb
REMARK  8 active torsions:
REMARK  status: ('A' for Active; 'I' for Inactive)
REMARK    1  A    between atoms: _5  and  _11
REMARK    2  A    between atoms: _19  and  _21
REMARK    3  A    between atoms: _22  and  _66
REMARK    4  A    between atoms: _27  and  _30
REMARK    5  A    between atoms: _32  and  _33
REMARK    6  A    between atoms: _38  and  _43
REMARK    7  A    between atoms: _43  and  _46
REMARK    8  A    between atoms: _53  and  _55
REMARK                            x       y       z     vdW  Elec       q    Type
REMARK                         _______ _______ _______ _____ _____    ______ ____
ROOT
ATOM     10  C   UNL     1      14.637  18.127  31.604  0.00  0.00    +0.038 A 
ATOM     11  C   UNL     1      14.099  18.413  30.323  0.00  0.00    +0.047 A 
ATOM     12  C   UNL     1      14.171  17.441  29.243  0.00  0.00    +0.035 A 
ATOM     32  C   UNL     1      14.797  16.187  29.503  0.00  0.00    +0.024 A 
ATOM     33  C   UNL     1      15.350  15.881  30.799  0.00  0.00    +0.007 A 
ATOM     34  C   UNL     1      15.284  16.836  31.868  0.00  0.00    -0.029 A 
ATOM     35  C   UNL     1      15.899  16.456  33.234  0.00  0.00    +0.045 C 
ENDROOT
BRANCH  10   9
ATOM      4  C   UNL     1      12.639  19.914  35.586  0.00  0.00    +0.077 A 
ATOM      5  C   UNL     1      11.692  18.839  35.664  0.00  0.00    +0.048 A 
ATOM      6  C   UNL     1      11.747  17.851  34.656  0.00  0.00    +0.116 A 
ATOM      7  N   UNL     1      12.685  17.940  33.650  0.00  0.00    -0.223 NA
ATOM      8  C   UNL     1      13.583  18.991  33.603  0.00  0.00    +0.220 A 
ATOM      9  N   UNL     1      14.539  19.096  32.605  0.00  0.00    -0.283 N 
ATOM     36  H   UNL     1      15.179  19.891  32.602  0.00  0.00    +0.155 HD
ATOM     37  N   UNL     1      13.549  19.948  34.553  0.00  0.00    -0.214 NA
BRANCH   4   3
ATOM      1  C   UNL     1      13.350  23.372  37.270  0.00  0.00    +0.020 A 
ATOM      2  C   UNL     1      13.309  22.325  36.275  0.00  0.00    +0.013 A 
ATOM      3  C   UNL     1      12.708  21.032  36.579  0.00  0.00    +0.019 A 
ATOM     38  C   UNL     1      12.153  20.830  37.908  0.00  0.00    +0.120 A 
ATOM     39  N   UNL     1      12.208  21.856  38.846  0.00  0.00    -0.263 NA
ATOM     40  C   UNL     1      12.785  23.104  38.566  0.00  0.00    +0.111 A 
ENDBRANCH   4   3
ENDBRANCH  10   9
BRANCH  12  13
ATOM     13  N   UNL     1      13.650  17.678  27.920  0.00  0.00    -0.281 N 
ATOM     14  C   UNL     1      13.120  18.853  27.411  0.00  0.00    +0.248 C 
ATOM     30  O   UNL     1      12.817  19.824  28.087  0.00  0.00    -0.270 OA
ATOM     31  H   UNL     1      13.674  16.884  27.281  0.00  0.00    +0.155 HD
BRANCH  14  15
ATOM     15  C   UNL     1      12.879  18.958  25.940  0.00  0.00    +0.037 A 
ATOM     16  C   UNL     1      11.525  18.895  25.385  0.00  0.00    +0.013 A 
ATOM     17  C   UNL     1      11.322  18.982  23.960  0.00  0.00    +0.005 A 
ATOM     18  C   UNL     1      12.478  19.135  23.080  0.00  0.00    -0.033 A 
ATOM     28  C   UNL     1      13.810  19.201  23.658  0.00  0.00    +0.005 A 
ATOM     29  C   UNL     1      14.013  19.115  25.053  0.00  0.00    +0.013 A 
BRANCH  18  19
ATOM     19  C   UNL     1      12.357  19.216  21.547  0.00  0.00    +0.119 C 
BRANCH  19  20
ATOM     20  N   UNL     1      11.139  18.617  20.925  0.00  0.00    -0.302 NA
ATOM     21  C   UNL     1      11.487  17.486  19.953  0.00  0.00    +0.066 C 
ATOM     22  C   UNL     1      10.199  16.856  19.328  0.00  0.00    -0.064 C 
ATOM     23  N   UNL     1       9.391  17.947  18.623  0.00  0.00    +0.379 N 
ATOM     24  C   UNL     1       8.210  17.348  17.986  0.00  0.00    -0.096 C 
ATOM     25  H   UNL     1      10.032  18.373  17.817  0.00  0.00    -0.082 HD
ATOM     26  C   UNL     1       9.044  19.077  19.582  0.00  0.00    -0.064 C 
ATOM     27  C   UNL     1      10.328  19.676  20.219  0.00  0.00    +0.066 C 
ENDBRANCH  19  20
ENDBRANCH  18  19
ENDBRANCH  14  15
ENDBRANCH  12  13
TORSDOF 6
ENDMDL
MODEL 5
REMARK VINA RESULT:      -9.0      3.473     12.990
REMARK  Name = C:\Users\Docking\Desktop\test protocol\1iep_ligandH.pdb
REMARK  8 active torsions:
REMARK  status: ('A' for Active; 'I' for Inactive)
REMARK    1  A    between atoms: _5  and  _11
REMARK    2  A    between atoms: _19  and  _21
REMARK    3  A    between atoms: _22  and  _66
REMARK    4  A    between atoms: _27  and  _30
REMARK    5  A    between atoms: _32  and  _33
REMARK    6  A    between atoms: _38  and  _43
REMARK    7  A    between atoms: _43  and  _46
REMARK    8  A    between atoms: _53  and  _55
REMARK                            x       y       z     vdW  Elec       q    Type
REMARK                         _______ _______ _______ _____ _____    ______ ____
ROOT
ATOM     10  C   UNL     1      12.633  16.244  32.564  0.00  0.00    +0.038 A 
ATOM     11  C   UNL     1      12.507  17.012  31.378  0.00  0.00    +0.047 A 
ATOM     12  C   UNL     1      12.599  16.391  30.066  0.00  0.00    +0.035 A 
ATOM     32  C   UNL     1      12.816  14.984  29.999  0.00  0.00    +0.024 A 
ATOM     33  C   UNL     1      12.947  14.188  31.194  0.00  0.00    +0.007 A 
ATOM     34  C   UNL     1      12.860  14.796  32.491  0.00  0.00    -0.029 A 
ATOM     35  C   UNL     1      13.014  13.895  33.738  0.00  0.00    +0.045 C 
ENDROOT
BRANCH  10   9
ATOM      4  C   UNL     1      13.216  20.084  35.385  0.00  0.00    +0.077 A 
ATOM      5  C   UNL     1      13.785  20.855  34.317  0.00  0.00    +0.048 A 
ATOM      6  C   UNL     1      13.916  20.224  33.060  0.00  0.00    +0.116 A 
ATOM      7  N   UNL     1      13.506  18.919  32.894  0.00  0.00    -0.223 NA
ATOM      8  C   UNL     1      12.963  18.203  33.944  0.00  0.00    +0.220 A 
ATOM      9  N   UNL     1      12.537  16.892  33.798  0.00  0.00    -0.283 N 
ATOM     36  H   UNL     1      12.148  16.396  34.599  0.00  0.00    +0.155 HD
ATOM     37  N   UNL     1      12.828  18.782  35.155  0.00  0.00    -0.214 NA
BRANCH   4   3
ATOM      1  C   UNL     1      13.334  20.518  39.270  0.00  0.00    +0.020 A 
ATOM      2  C   UNL     1      13.564  19.968  37.954  0.00  0.00    +0.013 A 
ATOM      3  C   UNL     1      13.008  20.611  36.770  0.00  0.00    +0.019 A 
ATOM     38  C   UNL     1      12.219  21.820  36.954  0.00  0.00    +0.120 A 
ATOM     39  N   UNL     1      12.013  22.326  38.233  0.00  0.00    -0.263 NA
ATOM     40  C   UNL     1      12.542  21.715  39.380  0.00  0.00    +0.111 A 
ENDBRANCH   4   3
ENDBRANCH  10   9
BRANCH  12  13
ATOM     13  N   UNL     1      12.487  17.121  28.828  0.00  0.00    -0.281 N 
ATOM     14  C   UNL     1      13.499  17.733  28.106  0.00  0.00    +0.248 C 
ATOM     30  O   UNL     1      14.628  17.929  28.529  0.00  0.00    -0.270 OA
ATOM     31  H   UNL     1      11.548  17.195  28.436  0.00  0.00    +0.155 HD
BRANCH  14  15
ATOM     15  C   UNL     1      13.210  18.209  26.719  0.00  0.00    +0.037 A 
ATOM     16  C   UNL     1      11.863  18.117  26.149  0.00  0.00    +0.013 A 
ATOM     17  C   UNL     1      11.615  18.568  24.802  0.00  0.00    +0.005 A 
ATOM     18  C   UNL     1      12.717  19.117  24.017  0.00  0.00    -0.033 A 
ATOM     28  C   UNL     1      14.042  19.202  24.609  0.00  0.00    +0.005 A 
ATOM     29  C   UNL     1      14.289  18.760  25.928  0.00  0.00    +0.013 A 
BRANCH  18  19
ATOM     19  C   UNL     1      12.549  19.602  22.565  0.00  0.00    +0.119 C 
BRANCH  19  20
ATOM     20  N   UNL     1      13.078  18.720  21.483  0.00  0.00    -0.302 NA
ATOM     21  C   UNL     1      12.976  17.237  21.850  0.00  0.00    +0.066 C 
ATOM     22  C   UNL     1      13.513  16.327  20.697  0.00  0.00    -0.064 C 
ATOM     23  N   UNL     1      14.961  16.708  20.383  0.00  0.00    +0.379 N 
ATOM     24  C   UNL     1      15.488  15.816  19.340  0.00  0.00    -0.096 C 
ATOM     25  H   UNL     1      15.562  16.541  21.307  0.00  0.00    -0.082 HD
ATOM     26  C   UNL     1      15.072  18.182  20.020  0.00  0.00    -0.064 C 
ATOM     27  C   UNL     1      14.509  19.076  21.160  0.00  0.00    +0.066 C 
ENDBRANCH  19  20
ENDBRANCH  18  19
ENDBRANCH  14  15
ENDBRANCH  12  13
TORSDOF 6
ENDMDL
