MODEL 1
REMARK VINA RESULT:      -7.0      0.000      0.000
REMARK  Name = C:\Users\Docking\Desktop\test protocol\1iep_ligandH.pdb
REMARK  8 active torsions:
REMARK  status: ('A' for Active; 'I' for Inactive)
REMARK    1  A    between atoms: _5  and  _11
REMARK    2  A    between atoms: _19  and  _21
REMARK    3  A    between atoms: _22  and  _66
REMARK    4  A    between atoms: _27  and  _30
REMARK    5  A    between atoms: _32  and  _33
REMARK    6  A    between atoms: _38  and  _43
REMARK    7  A    between atoms: _43  and  _46
REMARK    8  A    between atoms: _53  and  _55
REMARK                            x       y       z     vdW  Elec       q    Type
REMARK                         _______ _______ _______ _____ _____    ______ ____
ROOT
ATOM     10  C   UNL     1      56.812  -0.768  30.236  0.00  0.00    +0.038 A 
ATOM     11  C   UNL     1      55.748  -1.694  30.086  0.00  0.00    +0.047 A 
ATOM     12  C   UNL     1      55.049  -1.839  28.819  0.00  0.00    +0.035 A 
ATOM     32  C   UNL     1      55.462  -1.027  27.723  0.00  0.00    +0.024 A 
ATOM     33  C   UNL     1      56.541  -0.079  27.858  0.00  0.00    +0.007 A 
ATOM     34  C   UNL     1      57.232   0.070  29.106  0.00  0.00    -0.029 A 
ATOM     35  C   UNL     1      58.377   1.105  29.195  0.00  0.00    +0.045 C 
ENDROOT
BRANCH  10   9
ATOM      4  C   UNL     1      59.353  -2.646  33.849  0.00  0.00    +0.077 A 
ATOM      5  C   UNL     1      59.395  -3.938  33.226  0.00  0.00    +0.048 A 
ATOM      6  C   UNL     1      58.744  -4.079  31.980  0.00  0.00    +0.116 A 
ATOM      7  N   UNL     1      58.102  -3.002  31.409  0.00  0.00    -0.223 NA
ATOM      8  C   UNL     1      58.080  -1.770  32.036  0.00  0.00    +0.220 A 
ATOM      9  N   UNL     1      57.448  -0.671  31.475  0.00  0.00    -0.283 N 
ATOM     36  H   UNL     1      57.447   0.219  31.974  0.00  0.00    +0.155 HD
ATOM     37  N   UNL     1      58.693  -1.609  33.227  0.00  0.00    -0.214 NA
BRANCH   4   3
ATOM      1  C   UNL     1      61.503  -0.962  36.650  0.00  0.00    +0.020 A 
ATOM      2  C   UNL     1      60.908  -1.216  35.358  0.00  0.00    +0.013 A 
ATOM      3  C   UNL     1      59.997  -2.337  35.165  0.00  0.00    +0.019 A 
ATOM     38  C   UNL     1      59.707  -3.189  36.308  0.00  0.00    +0.120 A 
ATOM     39  N   UNL     1      60.296  -2.920  37.540  0.00  0.00    -0.263 NA
ATOM     40  C   UNL     1      61.175  -1.845  37.737  0.00  0.00    +0.111 A 
ENDBRANCH   4   3
ENDBRANCH  10   9
BRANCH  12  13
ATOM     13  N   UNL     1      53.957  -2.757  28.609  0.00  0.00    -0.281 N 
ATOM     14  C   UNL     1      53.598  -3.401  27.437  0.00  0.00    +0.248 C 
ATOM     30  O   UNL     1      54.038  -3.120  26.332  0.00  0.00    -0.270 OA
ATOM     31  H   UNL     1      53.377  -2.955  29.425  0.00  0.00    +0.155 HD
BRANCH  14  15
ATOM     15  C   UNL     1      52.597  -4.509  27.499  0.00  0.00    +0.037 A 
ATOM     16  C   UNL     1      52.745  -5.615  28.448  0.00  0.00    +0.013 A 
ATOM     17  C   UNL     1      51.773  -6.680  28.476  0.00  0.00    +0.005 A 
ATOM     18  C   UNL     1      50.644  -6.642  27.550  0.00  0.00    -0.033 A 
ATOM     28  C   UNL     1      50.519  -5.531  26.621  0.00  0.00    +0.005 A 
ATOM     29  C   UNL     1      51.470  -4.486  26.591  0.00  0.00    +0.013 A 
BRANCH  18  19
ATOM     19  C   UNL     1      49.571  -7.746  27.494  0.00  0.00    +0.119 C 
BRANCH  19  20
ATOM     20  N   UNL     1      49.329  -8.399  26.173  0.00  0.00    -0.302 NA
ATOM     21  C   UNL     1      48.404  -9.613  26.293  0.00  0.00    +0.066 C 
ATOM     22  C   UNL     1      48.144 -10.270  24.898  0.00  0.00    -0.064 C 
ATOM     23  N   UNL     1      49.480 -10.667  24.267  0.00  0.00    +0.379 N 
ATOM     24  C   UNL     1      49.235 -11.337  22.981  0.00  0.00    -0.096 C 
ATOM     25  H   UNL     1      49.969 -11.404  24.946  0.00  0.00    -0.082 HD
ATOM     26  C   UNL     1      50.407  -9.465  24.146  0.00  0.00    -0.064 C 
ATOM     27  C   UNL     1      50.635  -8.802  25.534  0.00  0.00    +0.066 C 
ENDBRANCH  19  20
ENDBRANCH  18  19
ENDBRANCH  14  15
ENDBRANCH  12  13
TORSDOF 6
ENDMDL
MODEL 2
REMARK VINA RESULT:      -6.6     15.979     22.641
REMARK  Name = C:\Users\Docking\Desktop\test protocol\1iep_ligandH.pdb
REMARK  8 active torsions:
REMARK  status: ('A' for Active; 'I' for Inactive)
REMARK    1  A    between atoms: _5  and  _11
REMARK    2  A    between atoms: _19  and  _21
REMARK    3  A    between atoms: _22  and  _66
REMARK    4  A    between atoms: _27  and  _30
REMARK    5  A    between atoms: _32  and  _33
REMARK    6  A    between atoms: _38  and  _43
REMARK    7  A    between atoms: _43  and  _46
REMARK    8  A    between atoms: _53  and  _55
REMARK                            x       y       z     vdW  Elec       q    Type
REMARK                         _______ _______ _______ _____ _____    ______ ____
ROOT
ATOM     10  C   UNL     1      67.822  -4.847  39.754  0.00  0.00    +0.038 A 
ATOM     11  C   UNL     1      68.800  -3.902  40.155  0.00  0.00    +0.047 A 
ATOM     12  C   UNL     1      68.747  -2.523  39.695  0.00  0.00    +0.035 A 
ATOM     32  C   UNL     1      67.681  -2.140  38.829  0.00  0.00    +0.024 A 
ATOM     33  C   UNL     1      66.679  -3.088  38.411  0.00  0.00    +0.007 A 
ATOM     34  C   UNL     1      66.727  -4.451  38.860  0.00  0.00    -0.029 A 
ATOM     35  C   UNL     1      65.629  -5.425  38.374  0.00  0.00    +0.045 C 
ENDROOT
BRANCH  10   9
ATOM      4  C   UNL     1      66.992  -8.232  43.055  0.00  0.00    +0.077 A 
ATOM      5  C   UNL     1      66.328  -7.305  43.925  0.00  0.00    +0.048 A 
ATOM      6  C   UNL     1      66.228  -5.964  43.489  0.00  0.00    +0.116 A 
ATOM      7  N   UNL     1      66.755  -5.591  42.272  0.00  0.00    -0.223 NA
ATOM      8  C   UNL     1      67.390  -6.510  41.458  0.00  0.00    +0.220 A 
ATOM      9  N   UNL     1      67.921  -6.158  40.226  0.00  0.00    -0.283 N 
ATOM     36  H   UNL     1      68.389  -6.864  39.658  0.00  0.00    +0.155 HD
ATOM     37  N   UNL     1      67.501  -7.796  41.852  0.00  0.00    -0.214 NA
BRANCH   4   3
ATOM      1  C   UNL     1      66.440 -12.096  43.315  0.00  0.00    +0.020 A 
ATOM      2  C   UNL     1      66.215 -10.708  42.982  0.00  0.00    +0.013 A 
ATOM      3  C   UNL     1      67.175  -9.683  43.374  0.00  0.00    +0.019 A 
ATOM     38  C   UNL     1      68.362 -10.100  44.105  0.00  0.00    +0.120 A 
ATOM     39  N   UNL     1      68.551 -11.444  44.413  0.00  0.00    -0.263 NA
ATOM     40  C   UNL     1      67.633 -12.438  44.043  0.00  0.00    +0.111 A 
ENDBRANCH   4   3
ENDBRANCH  10   9
BRANCH  12  13
ATOM     13  N   UNL     1      69.717  -1.521  40.062  0.00  0.00    -0.281 N 
ATOM     14  C   UNL     1      69.913  -0.940  41.304  0.00  0.00    +0.248 C 
ATOM     30  O   UNL     1      69.138  -1.040  42.244  0.00  0.00    -0.270 OA
ATOM     31  H   UNL     1      70.334  -1.202  39.315  0.00  0.00    +0.155 HD
BRANCH  14  15
ATOM     15  C   UNL     1      71.140  -0.118  41.531  0.00  0.00    +0.037 A 
ATOM     16  C   UNL     1      72.096  -0.455  42.589  0.00  0.00    +0.013 A 
ATOM     17  C   UNL     1      73.263   0.366  42.797  0.00  0.00    +0.005 A 
ATOM     18  C   UNL     1      73.481   1.531  41.943  0.00  0.00    -0.033 A 
ATOM     28  C   UNL     1      72.520   1.839  40.898  0.00  0.00    +0.005 A 
ATOM     29  C   UNL     1      71.374   1.038  40.691  0.00  0.00    +0.013 A 
BRANCH  18  19
ATOM     19  C   UNL     1      74.688   2.474  42.108  0.00  0.00    +0.119 C 
BRANCH  19  20
ATOM     20  N   UNL     1      76.048   1.863  42.034  0.00  0.00    -0.302 NA
ATOM     21  C   UNL     1      77.154   2.888  42.302  0.00  0.00    +0.066 C 
ATOM     22  C   UNL     1      78.569   2.228  42.243  0.00  0.00    -0.064 C 
ATOM     23  N   UNL     1      78.764   1.566  40.878  0.00  0.00    +0.379 N 
ATOM     24  C   UNL     1      80.116   0.994  40.798  0.00  0.00    -0.096 C 
ATOM     25  H   UNL     1      78.687   2.363  40.102  0.00  0.00    -0.082 HD
ATOM     26  C   UNL     1      77.667   0.547  40.602  0.00  0.00    -0.064 C 
ATOM     27  C   UNL     1      76.263   1.208  40.692  0.00  0.00    +0.066 C 
ENDBRANCH  19  20
ENDBRANCH  18  19
ENDBRANCH  14  15
ENDBRANCH  12  13
TORSDOF 6
ENDMDL
MODEL 3
REMARK VINA RESULT:      -6.6     40.576     45.488
REMARK  Name = C:\Users\Docking\Desktop\test protocol\1iep_ligandH.pdb
REMARK  8 active torsions:
REMARK  status: ('A' for Active; 'I' for Inactive)
REMARK    1  A    between atoms: _5  and  _11
REMARK    2  A    between atoms: _19  and  _21
REMARK    3  A    between atoms: _22  and  _66
REMARK    4  A    between atoms: _27  and  _30
REMARK    5  A    between atoms: _32  and  _33
REMARK    6  A    between atoms: _38  and  _43
REMARK    7  A    between atoms: _43  and  _46
REMARK    8  A    between atoms: _53  and  _55
REMARK                            x       y       z     vdW  Elec       q    Type
REMARK                         _______ _______ _______ _____ _____    ______ ____
ROOT
ATOM     10  C   UNL     1      52.476 -31.543  62.193  0.00  0.00    +0.038 A 
ATOM     11  C   UNL     1      53.657 -31.586  62.976  0.00  0.00    +0.047 A 
ATOM     12  C   UNL     1      53.623 -32.008  64.368  0.00  0.00    +0.035 A 
ATOM     32  C   UNL     1      52.367 -32.383  64.929  0.00  0.00    +0.024 A 
ATOM     33  C   UNL     1      51.156 -32.344  64.147  0.00  0.00    +0.007 A 
ATOM     34  C   UNL     1      51.184 -31.926  62.775  0.00  0.00    -0.029 A 
ATOM     35  C   UNL     1      49.854 -31.898  61.987  0.00  0.00    +0.045 C 
ENDROOT
BRANCH  10   9
ATOM      4  C   UNL     1      53.824 -32.213  57.635  0.00  0.00    +0.077 A 
ATOM      5  C   UNL     1      54.421 -33.482  57.937  0.00  0.00    +0.048 A 
ATOM      6  C   UNL     1      54.366 -33.923  59.278  0.00  0.00    +0.116 A 
ATOM      7  N   UNL     1      53.756 -33.145  60.238  0.00  0.00    -0.223 NA
ATOM      8  C   UNL     1      53.192 -31.925  59.914  0.00  0.00    +0.220 A 
ATOM      9  N   UNL     1      52.567 -31.129  60.862  0.00  0.00    -0.283 N 
ATOM     36  H   UNL     1      52.170 -30.232  60.585  0.00  0.00    +0.155 HD
ATOM     37  N   UNL     1      53.233 -31.481  58.641  0.00  0.00    -0.214 NA
BRANCH   4   3
ATOM      1  C   UNL     1      54.905 -30.922  54.105  0.00  0.00    +0.020 A 
ATOM      2  C   UNL     1      54.984 -31.511  55.422  0.00  0.00    +0.013 A 
ATOM      3  C   UNL     1      53.799 -31.612  56.264  0.00  0.00    +0.019 A 
ATOM     38  C   UNL     1      52.540 -31.106  55.739  0.00  0.00    +0.120 A 
ATOM     39  N   UNL     1      52.495 -30.543  54.468  0.00  0.00    -0.263 NA
ATOM     40  C   UNL     1      53.629 -30.438  53.649  0.00  0.00    +0.111 A 
ENDBRANCH   4   3
ENDBRANCH  10   9
BRANCH  12  13
ATOM     13  N   UNL     1      54.788 -32.064  65.215  0.00  0.00    -0.281 N 
ATOM     14  C   UNL     1      55.393 -33.186  65.759  0.00  0.00    +0.248 C 
ATOM     30  O   UNL     1      54.893 -34.301  65.774  0.00  0.00    -0.270 OA
ATOM     31  H   UNL     1      55.221 -31.168  65.440  0.00  0.00    +0.155 HD
BRANCH  14  15
ATOM     15  C   UNL     1      56.740 -33.045  66.391  0.00  0.00    +0.037 A 
ATOM     16  C   UNL     1      57.423 -31.750  66.445  0.00  0.00    +0.013 A 
ATOM     17  C   UNL     1      58.729 -31.646  67.044  0.00  0.00    +0.005 A 
ATOM     18  C   UNL     1      59.361 -32.841  67.597  0.00  0.00    -0.033 A 
ATOM     28  C   UNL     1      58.659 -34.113  67.534  0.00  0.00    +0.005 A 
ATOM     29  C   UNL     1      57.379 -34.219  66.946  0.00  0.00    +0.013 A 
BRANCH  18  19
ATOM     19  C   UNL     1      60.762 -32.827  68.236  0.00  0.00    +0.119 C 
BRANCH  19  20
ATOM     20  N   UNL     1      61.700 -33.925  67.853  0.00  0.00    -0.302 NA
ATOM     21  C   UNL     1      62.078 -34.801  69.050  0.00  0.00    +0.066 C 
ATOM     22  C   UNL     1      63.042 -35.958  68.627  0.00  0.00    -0.064 C 
ATOM     23  N   UNL     1      64.291 -35.363  67.975  0.00  0.00    +0.379 N 
ATOM     24  C   UNL     1      65.225 -36.445  67.628  0.00  0.00    -0.096 C 
ATOM     25  H   UNL     1      64.791 -34.714  68.731  0.00  0.00    -0.082 HD
ATOM     26  C   UNL     1      63.924 -34.488  66.785  0.00  0.00    -0.064 C 
ATOM     27  C   UNL     1      62.943 -33.360  67.211  0.00  0.00    +0.066 C 
ENDBRANCH  19  20
ENDBRANCH  18  19
ENDBRANCH  14  15
ENDBRANCH  12  13
TORSDOF 6
ENDMDL
MODEL 4
REMARK VINA RESULT:      -6.6     31.712     32.826
REMARK  Name = C:\Users\Docking\Desktop\test protocol\1iep_ligandH.pdb
REMARK  8 active torsions:
REMARK  status: ('A' for Active; 'I' for Inactive)
REMARK    1  A    between atoms: _5  and  _11
REMARK    2  A    between atoms: _19  and  _21
REMARK    3  A    between atoms: _22  and  _66
REMARK    4  A    between atoms: _27  and  _30
REMARK    5  A    between atoms: _32  and  _33
REMARK    6  A    between atoms: _38  and  _43
REMARK    7  A    between atoms: _43  and  _46
REMARK    8  A    between atoms: _53  and  _55
REMARK                            x       y       z     vdW  Elec       q    Type
REMARK                         _______ _______ _______ _____ _____    ______ ____
ROOT
ATOM     10  C   UNL     1      83.153  -2.815  14.784  0.00  0.00    +0.038 A 
ATOM     11  C   UNL     1      82.421  -2.946  13.576  0.00  0.00    +0.047 A 
ATOM     12  C   UNL     1      82.134  -1.789  12.742  0.00  0.00    +0.035 A 
ATOM     32  C   UNL     1      82.609  -0.514  13.167  0.00  0.00    +0.024 A 
ATOM     33  C   UNL     1      83.353  -0.364  14.393  0.00  0.00    +0.007 A 
ATOM     34  C   UNL     1      83.637  -1.500  15.221  0.00  0.00    -0.029 A 
ATOM     35  C   UNL     1      84.433  -1.279  16.529  0.00  0.00    +0.045 C 
ENDROOT
BRANCH  10   9
ATOM      4  C   UNL     1      85.723  -6.732  15.827  0.00  0.00    +0.077 A 
ATOM      5  C   UNL     1      86.635  -6.494  14.745  0.00  0.00    +0.048 A 
ATOM      6  C   UNL     1      86.403  -5.356  13.940  0.00  0.00    +0.116 A 
ATOM      7  N   UNL     1      85.336  -4.526  14.206  0.00  0.00    -0.223 NA
ATOM      8  C   UNL     1      84.475  -4.785  15.256  0.00  0.00    +0.220 A 
ATOM      9  N   UNL     1      83.400  -3.959  15.546  0.00  0.00    -0.283 N 
ATOM     36  H   UNL     1      82.783  -4.189  16.325  0.00  0.00    +0.155 HD
ATOM     37  N   UNL     1      84.674  -5.866  16.039  0.00  0.00    -0.214 NA
BRANCH   4   3
ATOM      1  C   UNL     1      86.181 -10.339  17.270  0.00  0.00    +0.020 A 
ATOM      2  C   UNL     1      86.078  -9.256  16.319  0.00  0.00    +0.013 A 
ATOM      3  C   UNL     1      85.838  -7.891  16.768  0.00  0.00    +0.019 A 
ATOM     38  C   UNL     1      85.705  -7.653  18.198  0.00  0.00    +0.120 A 
ATOM     39  N   UNL     1      85.807  -8.716  19.090  0.00  0.00    -0.263 NA
ATOM     40  C   UNL     1      86.037 -10.034  18.669  0.00  0.00    +0.111 A 
ENDBRANCH   4   3
ENDBRANCH  10   9
BRANCH  12  13
ATOM     13  N   UNL     1      81.390  -1.859  11.509  0.00  0.00    -0.281 N 
ATOM     14  C   UNL     1      81.039  -2.989  10.789  0.00  0.00    +0.248 C 
ATOM     30  O   UNL     1      81.498  -4.104  10.985  0.00  0.00    -0.270 OA
ATOM     31  H   UNL     1      81.084  -0.967  11.119  0.00  0.00    +0.155 HD
BRANCH  14  15
ATOM     15  C   UNL     1      80.044  -2.860   9.680  0.00  0.00    +0.037 A 
ATOM     16  C   UNL     1      79.010  -1.822   9.705  0.00  0.00    +0.013 A 
ATOM     17  C   UNL     1      78.052  -1.730   8.632  0.00  0.00    +0.005 A 
ATOM     18  C   UNL     1      78.126  -2.678   7.523  0.00  0.00    -0.033 A 
ATOM     28  C   UNL     1      79.166  -3.694   7.521  0.00  0.00    +0.005 A 
ATOM     29  C   UNL     1      80.106  -3.788   8.572  0.00  0.00    +0.013 A 
BRANCH  18  19
ATOM     19  C   UNL     1      77.133  -2.667   6.345  0.00  0.00    +0.119 C 
BRANCH  19  20
ATOM     20  N   UNL     1      77.052  -1.418   5.531  0.00  0.00    -0.302 NA
ATOM     21  C   UNL     1      75.604  -0.993   5.273  0.00  0.00    +0.066 C 
ATOM     22  C   UNL     1      75.538   0.328   4.439  0.00  0.00    -0.064 C 
ATOM     23  N   UNL     1      76.288   0.132   3.120  0.00  0.00    +0.379 N 
ATOM     24  C   UNL     1      76.179   1.353   2.308  0.00  0.00    -0.096 C 
ATOM     25  H   UNL     1      75.784  -0.691   2.563  0.00  0.00    -0.082 HD
ATOM     26  C   UNL     1      77.729  -0.293   3.367  0.00  0.00    -0.064 C 
ATOM     27  C   UNL     1      77.783  -1.590   4.222  0.00  0.00    +0.066 C 
ENDBRANCH  19  20
ENDBRANCH  18  19
ENDBRANCH  14  15
ENDBRANCH  12  13
TORSDOF 6
ENDMDL
MODEL 5
REMARK VINA RESULT:      -6.5     20.146     24.981
REMARK  Name = C:\Users\Docking\Desktop\test protocol\1iep_ligandH.pdb
REMARK  8 active torsions:
REMARK  status: ('A' for Active; 'I' for Inactive)
REMARK    1  A    between atoms: _5  and  _11
REMARK    2  A    between atoms: _19  and  _21
REMARK    3  A    between atoms: _22  and  _66
REMARK    4  A    between atoms: _27  and  _30
REMARK    5  A    between atoms: _32  and  _33
REMARK    6  A    between atoms: _38  and  _43
REMARK    7  A    between atoms: _43  and  _46
REMARK    8  A    between atoms: _53  and  _55
REMARK                            x       y       z     vdW  Elec       q    Type
REMARK                         _______ _______ _______ _____ _____    ______ ____
ROOT
ATOM     10  C   UNL     1      79.838  -7.080  39.042  0.00  0.00    +0.038 A 
ATOM     11  C   UNL     1      79.071  -6.563  37.966  0.00  0.00    +0.047 A 
ATOM     12  C   UNL     1      79.552  -6.639  36.595  0.00  0.00    +0.035 A 
ATOM     32  C   UNL     1      80.817  -7.249  36.355  0.00  0.00    +0.024 A 
ATOM     33  C   UNL     1      81.610  -7.779  37.437  0.00  0.00    +0.007 A 
ATOM     34  C   UNL     1      81.142  -7.705  38.791  0.00  0.00    -0.029 A 
ATOM     35  C   UNL     1      82.038  -8.283  39.912  0.00  0.00    +0.045 C 
ENDROOT
BRANCH  10   9
ATOM      4  C   UNL     1      77.835  -8.996  42.960  0.00  0.00    +0.077 A 
ATOM      5  C   UNL     1      77.774 -10.300  42.363  0.00  0.00    +0.048 A 
ATOM      6  C   UNL     1      78.262 -10.433  41.044  0.00  0.00    +0.116 A 
ATOM      7  N   UNL     1      78.771  -9.338  40.380  0.00  0.00    -0.223 NA
ATOM      8  C   UNL     1      78.814  -8.094  40.984  0.00  0.00    +0.220 A 
ATOM      9  N   UNL     1      79.328  -6.981  40.338  0.00  0.00    -0.283 N 
ATOM     36  H   UNL     1      79.335  -6.080  40.815  0.00  0.00    +0.155 HD
ATOM     37  N   UNL     1      78.352  -7.941  42.243  0.00  0.00    -0.214 NA
BRANCH   4   3
ATOM      1  C   UNL     1      76.529  -7.123  46.135  0.00  0.00    +0.020 A 
ATOM      2  C   UNL     1      76.980  -7.359  44.783  0.00  0.00    +0.013 A 
ATOM      3  C   UNL     1      77.361  -8.696  44.348  0.00  0.00    +0.019 A 
ATOM     38  C   UNL     1      77.273  -9.782  45.313  0.00  0.00    +0.120 A 
ATOM     39  N   UNL     1      76.837  -9.525  46.608  0.00  0.00    -0.263 NA
ATOM     40  C   UNL     1      76.469  -8.241  47.039  0.00  0.00    +0.111 A 
ENDBRANCH   4   3
ENDBRANCH  10   9
BRANCH  12  13
ATOM     13  N   UNL     1      78.821  -6.124  35.463  0.00  0.00    -0.281 N 
ATOM     14  C   UNL     1      78.626  -4.800  35.106  0.00  0.00    +0.248 C 
ATOM     30  O   UNL     1      78.873  -3.846  35.828  0.00  0.00    -0.270 OA
ATOM     31  H   UNL     1      78.395  -6.821  34.852  0.00  0.00    +0.155 HD
BRANCH  14  15
ATOM     15  C   UNL     1      78.063  -4.492  33.756  0.00  0.00    +0.037 A 
ATOM     16  C   UNL     1      78.661  -3.466  32.899  0.00  0.00    +0.013 A 
ATOM     17  C   UNL     1      78.087  -3.176  31.609  0.00  0.00    +0.005 A 
ATOM     18  C   UNL     1      76.907  -3.916  31.168  0.00  0.00    -0.033 A 
ATOM     28  C   UNL     1      76.337  -4.933  32.036  0.00  0.00    +0.005 A 
ATOM     29  C   UNL     1      76.896  -5.218  33.302  0.00  0.00    +0.013 A 
BRANCH  18  19
ATOM     19  C   UNL     1      76.216  -3.659  29.815  0.00  0.00    +0.119 C 
BRANCH  19  20
ATOM     20  N   UNL     1      75.703  -2.280  29.561  0.00  0.00    -0.302 NA
ATOM     21  C   UNL     1      74.879  -1.748  30.738  0.00  0.00    +0.066 C 
ATOM     22  C   UNL     1      74.369  -0.295  30.464  0.00  0.00    -0.064 C 
ATOM     23  N   UNL     1      73.545  -0.281  29.176  0.00  0.00    +0.379 N 
ATOM     24  C   UNL     1      73.015   1.071  28.947  0.00  0.00    -0.096 C 
ATOM     25  H   UNL     1      72.676  -0.965  29.323  0.00  0.00    -0.082 HD
ATOM     26  C   UNL     1      74.355  -0.812  28.002  0.00  0.00    -0.064 C 
ATOM     27  C   UNL     1      74.882  -2.244  28.296  0.00  0.00    +0.066 C 
ENDBRANCH  19  20
ENDBRANCH  18  19
ENDBRANCH  14  15
ENDBRANCH  12  13
TORSDOF 6
ENDMDL
