MODEL 1
REMARK VINA RESULT:      -7.6      0.000      0.000
REMARK  Name = C:\Users\Docking\Desktop\test protocol\1iep_ligandH.pdb
REMARK  8 active torsions:
REMARK  status: ('A' for Active; 'I' for Inactive)
REMARK    1  A    between atoms: _5  and  _11
REMARK    2  A    between atoms: _19  and  _21
REMARK    3  A    between atoms: _22  and  _66
REMARK    4  A    between atoms: _27  and  _30
REMARK    5  A    between atoms: _32  and  _33
REMARK    6  A    between atoms: _38  and  _43
REMARK    7  A    between atoms: _43  and  _46
REMARK    8  A    between atoms: _53  and  _55
REMARK                            x       y       z     vdW  Elec       q    Type
REMARK                         _______ _______ _______ _____ _____    ______ ____
ROOT
ATOM     10  C   UNL     1      47.368 -29.098  27.279  0.00  0.00    +0.038 A 
ATOM     11  C   UNL     1      48.055 -28.996  26.042  0.00  0.00    +0.047 A 
ATOM     12  C   UNL     1      49.234 -29.804  25.768  0.00  0.00    +0.035 A 
ATOM     32  C   UNL     1      49.684 -30.707  26.775  0.00  0.00    +0.024 A 
ATOM     33  C   UNL     1      48.998 -30.822  28.038  0.00  0.00    +0.007 A 
ATOM     34  C   UNL     1      47.836 -30.026  28.315  0.00  0.00    -0.029 A 
ATOM     35  C   UNL     1      47.144 -30.186  29.689  0.00  0.00    +0.045 C 
ENDROOT
BRANCH  10   9
ATOM      4  C   UNL     1      42.831 -27.846  26.339  0.00  0.00    +0.077 A 
ATOM      5  C   UNL     1      42.701 -28.853  25.324  0.00  0.00    +0.048 A 
ATOM      6  C   UNL     1      43.828 -29.666  25.070  0.00  0.00    +0.116 A 
ATOM      7  N   UNL     1      44.992 -29.480  25.783  0.00  0.00    -0.223 NA
ATOM      8  C   UNL     1      45.084 -28.499  26.754  0.00  0.00    +0.220 A 
ATOM      9  N   UNL     1      46.242 -28.299  27.489  0.00  0.00    -0.283 N 
ATOM     36  H   UNL     1      46.272 -27.560  28.191  0.00  0.00    +0.155 HD
ATOM     37  N   UNL     1      44.023 -27.708  27.014  0.00  0.00    -0.214 NA
BRANCH   4   3
ATOM      1  C   UNL     1      40.101 -25.047  26.229  0.00  0.00    +0.020 A 
ATOM      2  C   UNL     1      41.166 -25.928  25.807  0.00  0.00    +0.013 A 
ATOM      3  C   UNL     1      41.728 -26.910  26.724  0.00  0.00    +0.019 A 
ATOM     38  C   UNL     1      41.186 -26.978  28.073  0.00  0.00    +0.120 A 
ATOM     39  N   UNL     1      40.161 -26.116  28.452  0.00  0.00    -0.263 NA
ATOM     40  C   UNL     1      39.613 -25.165  27.578  0.00  0.00    +0.111 A 
ENDBRANCH   4   3
ENDBRANCH  10   9
BRANCH  12  13
ATOM     13  N   UNL     1      49.977 -29.738  24.534  0.00  0.00    -0.281 N 
ATOM     14  C   UNL     1      50.062 -30.698  23.539  0.00  0.00    +0.248 C 
ATOM     30  O   UNL     1      49.679 -31.852  23.657  0.00  0.00    -0.270 OA
ATOM     31  H   UNL     1      50.505 -28.880  24.376  0.00  0.00    +0.155 HD
BRANCH  14  15
ATOM     15  C   UNL     1      50.673 -30.325  22.227  0.00  0.00    +0.037 A 
ATOM     16  C   UNL     1      51.665 -29.251  22.128  0.00  0.00    +0.013 A 
ATOM     17  C   UNL     1      52.226 -28.900  20.847  0.00  0.00    +0.005 A 
ATOM     18  C   UNL     1      51.797 -29.626  19.654  0.00  0.00    -0.033 A 
ATOM     28  C   UNL     1      50.815 -30.690  19.782  0.00  0.00    +0.005 A 
ATOM     29  C   UNL     1      50.262 -31.036  21.035  0.00  0.00    +0.013 A 
BRANCH  18  19
ATOM     19  C   UNL     1      52.326 -29.305  18.244  0.00  0.00    +0.119 C 
BRANCH  19  20
ATOM     20  N   UNL     1      51.891 -28.017  17.627  0.00  0.00    -0.302 NA
ATOM     21  C   UNL     1      50.399 -27.749  17.849  0.00  0.00    +0.066 C 
ATOM     22  C   UNL     1      49.965 -26.386  17.217  0.00  0.00    -0.064 C 
ATOM     23  N   UNL     1      50.298 -26.392  15.724  0.00  0.00    +0.379 N 
ATOM     24  C   UNL     1      49.839 -25.135  15.114  0.00  0.00    -0.096 C 
ATOM     25  H   UNL     1      49.726 -27.225  15.253  0.00  0.00    -0.082 HD
ATOM     26  C   UNL     1      51.778 -26.660  15.493  0.00  0.00    -0.064 C 
ATOM     27  C   UNL     1      52.206 -28.002  16.151  0.00  0.00    +0.066 C 
ENDBRANCH  19  20
ENDBRANCH  18  19
ENDBRANCH  14  15
ENDBRANCH  12  13
TORSDOF 6
ENDMDL
MODEL 2
REMARK VINA RESULT:      -7.3     31.359     36.411
REMARK  Name = C:\Users\Docking\Desktop\test protocol\1iep_ligandH.pdb
REMARK  8 active torsions:
REMARK  status: ('A' for Active; 'I' for Inactive)
REMARK    1  A    between atoms: _5  and  _11
REMARK    2  A    between atoms: _19  and  _21
REMARK    3  A    between atoms: _22  and  _66
REMARK    4  A    between atoms: _27  and  _30
REMARK    5  A    between atoms: _32  and  _33
REMARK    6  A    between atoms: _38  and  _43
REMARK    7  A    between atoms: _43  and  _46
REMARK    8  A    between atoms: _53  and  _55
REMARK                            x       y       z     vdW  Elec       q    Type
REMARK                         _______ _______ _______ _____ _____    ______ ____
ROOT
ATOM     10  C   UNL     1      54.074 -32.147  61.765  0.00  0.00    +0.038 A 
ATOM     11  C   UNL     1      54.360 -31.946  60.390  0.00  0.00    +0.047 A 
ATOM     12  C   UNL     1      54.385 -33.060  59.456  0.00  0.00    +0.035 A 
ATOM     32  C   UNL     1      54.111 -34.367  59.956  0.00  0.00    +0.024 A 
ATOM     33  C   UNL     1      53.819 -34.590  61.350  0.00  0.00    +0.007 A 
ATOM     34  C   UNL     1      53.796 -33.494  62.277  0.00  0.00    -0.029 A 
ATOM     35  C   UNL     1      53.484 -33.792  63.762  0.00  0.00    +0.045 C 
ENDROOT
BRANCH  10   9
ATOM      4  C   UNL     1      56.174 -29.245  64.959  0.00  0.00    +0.077 A 
ATOM      5  C   UNL     1      57.386 -30.013  64.949  0.00  0.00    +0.048 A 
ATOM      6  C   UNL     1      57.425 -31.151  64.113  0.00  0.00    +0.116 A 
ATOM      7  N   UNL     1      56.329 -31.487  63.349  0.00  0.00    -0.223 NA
ATOM      8  C   UNL     1      55.175 -30.726  63.384  0.00  0.00    +0.220 A 
ATOM      9  N   UNL     1      54.063 -31.041  62.617  0.00  0.00    -0.283 N 
ATOM     36  H   UNL     1      53.229 -30.458  62.677  0.00  0.00    +0.155 HD
ATOM     37  N   UNL     1      55.112 -29.635  64.175  0.00  0.00    -0.214 NA
BRANCH   4   3
ATOM      1  C   UNL     1      55.778 -25.514  66.065  0.00  0.00    +0.020 A 
ATOM      2  C   UNL     1      55.970 -26.670  65.221  0.00  0.00    +0.013 A 
ATOM      3  C   UNL     1      55.979 -28.013  65.788  0.00  0.00    +0.019 A 
ATOM     38  C   UNL     1      55.789 -28.152  67.224  0.00  0.00    +0.120 A 
ATOM     39  N   UNL     1      55.608 -27.020  68.012  0.00  0.00    -0.263 NA
ATOM     40  C   UNL     1      55.598 -25.723  67.478  0.00  0.00    +0.111 A 
ENDBRANCH   4   3
ENDBRANCH  10   9
BRANCH  12  13
ATOM     13  N   UNL     1      54.677 -32.919  58.051  0.00  0.00    -0.281 N 
ATOM     14  C   UNL     1      53.827 -32.494  57.043  0.00  0.00    +0.248 C 
ATOM     30  O   UNL     1      52.617 -32.374  57.164  0.00  0.00    -0.270 OA
ATOM     31  H   UNL     1      55.626 -33.161  57.765  0.00  0.00    +0.155 HD
BRANCH  14  15
ATOM     15  C   UNL     1      54.402 -32.169  55.703  0.00  0.00    +0.037 A 
ATOM     16  C   UNL     1      55.585 -31.314  55.570  0.00  0.00    +0.013 A 
ATOM     17  C   UNL     1      56.110 -31.002  54.264  0.00  0.00    +0.005 A 
ATOM     18  C   UNL     1      55.451 -31.547  53.079  0.00  0.00    -0.033 A 
ATOM     28  C   UNL     1      54.283 -32.396  53.240  0.00  0.00    +0.005 A 
ATOM     29  C   UNL     1      53.765 -32.703  54.518  0.00  0.00    +0.013 A 
BRANCH  18  19
ATOM     19  C   UNL     1      55.930 -31.250  51.646  0.00  0.00    +0.119 C 
BRANCH  19  20
ATOM     20  N   UNL     1      55.197 -31.917  50.528  0.00  0.00    -0.302 NA
ATOM     21  C   UNL     1      56.151 -32.586  49.535  0.00  0.00    +0.066 C 
ATOM     22  C   UNL     1      55.368 -33.298  48.385  0.00  0.00    -0.064 C 
ATOM     23  N   UNL     1      54.472 -32.281  47.675  0.00  0.00    +0.379 N 
ATOM     24  C   UNL     1      53.778 -32.935  46.556  0.00  0.00    -0.096 C 
ATOM     25  H   UNL     1      55.132 -31.490  47.248  0.00  0.00    -0.082 HD
ATOM     26  C   UNL     1      53.522 -31.609  48.656  0.00  0.00    -0.064 C 
ATOM     27  C   UNL     1      54.310 -30.929  49.811  0.00  0.00    +0.066 C 
ENDBRANCH  19  20
ENDBRANCH  18  19
ENDBRANCH  14  15
ENDBRANCH  12  13
TORSDOF 6
ENDMDL
MODEL 3
REMARK VINA RESULT:      -7.2     37.052     39.541
REMARK  Name = C:\Users\Docking\Desktop\test protocol\1iep_ligandH.pdb
REMARK  8 active torsions:
REMARK  status: ('A' for Active; 'I' for Inactive)
REMARK    1  A    between atoms: _5  and  _11
REMARK    2  A    between atoms: _19  and  _21
REMARK    3  A    between atoms: _22  and  _66
REMARK    4  A    between atoms: _27  and  _30
REMARK    5  A    between atoms: _32  and  _33
REMARK    6  A    between atoms: _38  and  _43
REMARK    7  A    between atoms: _43  and  _46
REMARK    8  A    between atoms: _53  and  _55
REMARK                            x       y       z     vdW  Elec       q    Type
REMARK                         _______ _______ _______ _____ _____    ______ ____
ROOT
ATOM     10  C   UNL     1      78.914  -4.792  32.306  0.00  0.00    +0.038 A 
ATOM     11  C   UNL     1      77.771  -4.052  31.908  0.00  0.00    +0.047 A 
ATOM     12  C   UNL     1      77.401  -3.935  30.507  0.00  0.00    +0.035 A 
ATOM     32  C   UNL     1      78.216  -4.587  29.536  0.00  0.00    +0.024 A 
ATOM     33  C   UNL     1      79.381  -5.343  29.922  0.00  0.00    +0.007 A 
ATOM     34  C   UNL     1      79.753  -5.459  31.303  0.00  0.00    -0.029 A 
ATOM     35  C   UNL     1      81.017  -6.277  31.659  0.00  0.00    +0.045 C 
ENDROOT
BRANCH  10   9
ATOM      4  C   UNL     1      77.758  -5.777  36.859  0.00  0.00    +0.077 A 
ATOM      5  C   UNL     1      76.416  -6.139  36.502  0.00  0.00    +0.048 A 
ATOM      6  C   UNL     1      76.062  -6.051  35.137  0.00  0.00    +0.116 A 
ATOM      7  N   UNL     1      76.988  -5.631  34.207  0.00  0.00    -0.223 NA
ATOM      8  C   UNL     1      78.273  -5.288  34.585  0.00  0.00    +0.220 A 
ATOM      9  N   UNL     1      79.223  -4.871  33.666  0.00  0.00    -0.283 N 
ATOM     36  H   UNL     1      80.158  -4.620  33.986  0.00  0.00    +0.155 HD
ATOM     37  N   UNL     1      78.636  -5.363  35.883  0.00  0.00    -0.214 NA
BRANCH   4   3
ATOM      1  C   UNL     1      78.430  -6.841  40.563  0.00  0.00    +0.020 A 
ATOM      2  C   UNL     1      77.892  -6.843  39.222  0.00  0.00    +0.013 A 
ATOM      3  C   UNL     1      78.284  -5.821  38.260  0.00  0.00    +0.019 A 
ATOM     38  C   UNL     1      79.231  -4.804  38.689  0.00  0.00    +0.120 A 
ATOM     39  N   UNL     1      79.732  -4.826  39.987  0.00  0.00    -0.263 NA
ATOM     40  C   UNL     1      79.360  -5.803  40.922  0.00  0.00    +0.111 A 
ENDBRANCH   4   3
ENDBRANCH  10   9
BRANCH  12  13
ATOM     13  N   UNL     1      76.257  -3.190  30.043  0.00  0.00    -0.281 N 
ATOM     14  C   UNL     1      76.040  -1.824  30.123  0.00  0.00    +0.248 C 
ATOM     30  O   UNL     1      76.707  -1.057  30.802  0.00  0.00    -0.270 OA
ATOM     31  H   UNL     1      75.517  -3.736  29.601  0.00  0.00    +0.155 HD
BRANCH  14  15
ATOM     15  C   UNL     1      74.910  -1.225  29.349  0.00  0.00    +0.037 A 
ATOM     16  C   UNL     1      74.670  -1.590  27.950  0.00  0.00    +0.013 A 
ATOM     17  C   UNL     1      73.584  -0.985  27.221  0.00  0.00    +0.005 A 
ATOM     18  C   UNL     1      72.728  -0.009  27.891  0.00  0.00    -0.033 A 
ATOM     28  C   UNL     1      72.986   0.331  29.280  0.00  0.00    +0.005 A 
ATOM     29  C   UNL     1      74.050  -0.259  29.998  0.00  0.00    +0.013 A 
BRANCH  18  19
ATOM     19  C   UNL     1      71.559   0.703  27.184  0.00  0.00    +0.119 C 
BRANCH  19  20
ATOM     20  N   UNL     1      70.311  -0.087  26.963  0.00  0.00    -0.302 NA
ATOM     21  C   UNL     1      69.777   0.070  25.537  0.00  0.00    +0.066 C 
ATOM     22  C   UNL     1      68.483  -0.781  25.317  0.00  0.00    -0.064 C 
ATOM     23  N   UNL     1      67.424  -0.368  26.340  0.00  0.00    +0.379 N 
ATOM     24  C   UNL     1      66.187  -1.125  26.099  0.00  0.00    -0.096 C 
ATOM     25  H   UNL     1      67.198   0.711  26.176  0.00  0.00    -0.082 HD
ATOM     26  C   UNL     1      67.949  -0.519  27.761  0.00  0.00    -0.064 C 
ATOM     27  C   UNL     1      69.250   0.307  27.961  0.00  0.00    +0.066 C 
ENDBRANCH  19  20
ENDBRANCH  18  19
ENDBRANCH  14  15
ENDBRANCH  12  13
TORSDOF 6
ENDMDL
MODEL 4
REMARK VINA RESULT:      -7.2     39.998     43.614
REMARK  Name = C:\Users\Docking\Desktop\test protocol\1iep_ligandH.pdb
REMARK  8 active torsions:
REMARK  status: ('A' for Active; 'I' for Inactive)
REMARK    1  A    between atoms: _5  and  _11
REMARK    2  A    between atoms: _19  and  _21
REMARK    3  A    between atoms: _22  and  _66
REMARK    4  A    between atoms: _27  and  _30
REMARK    5  A    between atoms: _32  and  _33
REMARK    6  A    between atoms: _38  and  _43
REMARK    7  A    between atoms: _43  and  _46
REMARK    8  A    between atoms: _53  and  _55
REMARK                            x       y       z     vdW  Elec       q    Type
REMARK                         _______ _______ _______ _____ _____    ______ ____
ROOT
ATOM     10  C   UNL     1      81.282  -4.454   9.103  0.00  0.00    +0.038 A 
ATOM     11  C   UNL     1      80.383  -3.745   8.267  0.00  0.00    +0.047 A 
ATOM     12  C   UNL     1      79.565  -2.661   8.790  0.00  0.00    +0.035 A 
ATOM     32  C   UNL     1      79.691  -2.325  10.169  0.00  0.00    +0.024 A 
ATOM     33  C   UNL     1      80.600  -3.036  11.034  0.00  0.00    +0.007 A 
ATOM     34  C   UNL     1      81.407  -4.108  10.524  0.00  0.00    -0.029 A 
ATOM     35  C   UNL     1      82.359  -4.840  11.498  0.00  0.00    +0.045 C 
ENDROOT
BRANCH  10   9
ATOM      4  C   UNL     1      82.007  -9.078   8.040  0.00  0.00    +0.077 A 
ATOM      5  C   UNL     1      80.779  -9.476   8.666  0.00  0.00    +0.048 A 
ATOM      6  C   UNL     1      79.993  -8.461   9.256  0.00  0.00    +0.116 A 
ATOM      7  N   UNL     1      80.414  -7.149   9.217  0.00  0.00    -0.223 NA
ATOM      8  C   UNL     1      81.605  -6.800   8.607  0.00  0.00    +0.220 A 
ATOM      9  N   UNL     1      82.043  -5.486   8.549  0.00  0.00    -0.283 N 
ATOM     36  H   UNL     1      82.931  -5.270   8.096  0.00  0.00    +0.155 HD
ATOM     37  N   UNL     1      82.374  -7.751   8.037  0.00  0.00    -0.214 NA
BRANCH   4   3
ATOM      1  C   UNL     1      83.441 -11.968   5.827  0.00  0.00    +0.020 A 
ATOM      2  C   UNL     1      82.495 -11.070   6.448  0.00  0.00    +0.013 A 
ATOM      3  C   UNL     1      82.944 -10.034   7.370  0.00  0.00    +0.019 A 
ATOM     38  C   UNL     1      84.370  -9.933   7.643  0.00  0.00    +0.120 A 
ATOM     39  N   UNL     1      85.258 -10.812   7.032  0.00  0.00    -0.263 NA
ATOM     40  C   UNL     1      84.837 -11.814   6.145  0.00  0.00    +0.111 A 
ENDBRANCH   4   3
ENDBRANCH  10   9
BRANCH  12  13
ATOM     13  N   UNL     1      78.629  -1.910   7.991  0.00  0.00    -0.281 N 
ATOM     14  C   UNL     1      77.488  -2.373   7.357  0.00  0.00    +0.248 C 
ATOM     30  O   UNL     1      77.213  -3.554   7.203  0.00  0.00    -0.270 OA
ATOM     31  H   UNL     1      78.832  -0.917   7.879  0.00  0.00    +0.155 HD
BRANCH  14  15
ATOM     15  C   UNL     1      76.519  -1.381   6.800  0.00  0.00    +0.037 A 
ATOM     16  C   UNL     1      75.420  -0.853   7.613  0.00  0.00    +0.013 A 
ATOM     17  C   UNL     1      74.489   0.091   7.046  0.00  0.00    +0.005 A 
ATOM     18  C   UNL     1      74.654   0.513   5.657  0.00  0.00    -0.033 A 
ATOM     28  C   UNL     1      75.756  -0.023   4.875  0.00  0.00    +0.005 A 
ATOM     29  C   UNL     1      76.669  -0.948   5.427  0.00  0.00    +0.013 A 
BRANCH  18  19
ATOM     19  C   UNL     1      73.696   1.499   4.964  0.00  0.00    +0.119 C 
BRANCH  19  20
ATOM     20  N   UNL     1      72.322   1.007   4.644  0.00  0.00    -0.302 NA
ATOM     21  C   UNL     1      71.402   1.036   5.867  0.00  0.00    +0.066 C 
ATOM     22  C   UNL     1      69.964   0.539   5.509  0.00  0.00    -0.064 C 
ATOM     23  N   UNL     1      70.045  -0.872   4.925  0.00  0.00    +0.379 N 
ATOM     24  C   UNL     1      68.689  -1.364   4.641  0.00  0.00    -0.096 C 
ATOM     25  H   UNL     1      70.489  -1.535   5.703  0.00  0.00    -0.082 HD
ATOM     26  C   UNL     1      70.960  -0.910   3.709  0.00  0.00    -0.064 C 
ATOM     27  C   UNL     1      72.379  -0.387   4.069  0.00  0.00    +0.066 C 
ENDBRANCH  19  20
ENDBRANCH  18  19
ENDBRANCH  14  15
ENDBRANCH  12  13
TORSDOF 6
ENDMDL
MODEL 5
REMARK VINA RESULT:      -7.0      1.756      2.284
REMARK  Name = C:\Users\Docking\Desktop\test protocol\1iep_ligandH.pdb
REMARK  8 active torsions:
REMARK  status: ('A' for Active; 'I' for Inactive)
REMARK    1  A    between atoms: _5  and  _11
REMARK    2  A    between atoms: _19  and  _21
REMARK    3  A    between atoms: _22  and  _66
REMARK    4  A    between atoms: _27  and  _30
REMARK    5  A    between atoms: _32  and  _33
REMARK    6  A    between atoms: _38  and  _43
REMARK    7  A    between atoms: _43  and  _46
REMARK    8  A    between atoms: _53  and  _55
REMARK                            x       y       z     vdW  Elec       q    Type
REMARK                         _______ _______ _______ _____ _____    ______ ____
ROOT
ATOM     10  C   UNL     1      47.754 -30.684  26.566  0.00  0.00    +0.038 A 
ATOM     11  C   UNL     1      48.300 -30.435  25.281  0.00  0.00    +0.047 A 
ATOM     12  C   UNL     1      49.723 -30.187  25.104  0.00  0.00    +0.035 A 
ATOM     32  C   UNL     1      50.560 -30.202  26.257  0.00  0.00    +0.024 A 
ATOM     33  C   UNL     1      50.021 -30.452  27.571  0.00  0.00    +0.007 A 
ATOM     34  C   UNL     1      48.619 -30.696  27.752  0.00  0.00    -0.029 A 
ATOM     35  C   UNL     1      48.095 -30.952  29.185  0.00  0.00    +0.045 C 
ENDROOT
BRANCH  10   9
ATOM      4  C   UNL     1      43.213 -29.157  26.859  0.00  0.00    +0.077 A 
ATOM      5  C   UNL     1      43.610 -27.780  26.811  0.00  0.00    +0.048 A 
ATOM      6  C   UNL     1      44.994 -27.507  26.718  0.00  0.00    +0.116 A 
ATOM      7  N   UNL     1      45.902 -28.542  26.677  0.00  0.00    -0.223 NA
ATOM      8  C   UNL     1      45.485 -29.859  26.727  0.00  0.00    +0.220 A 
ATOM      9  N   UNL     1      46.381 -30.916  26.679  0.00  0.00    -0.283 N 
ATOM     36  H   UNL     1      46.034 -31.874  26.726  0.00  0.00    +0.155 HD
ATOM     37  N   UNL     1      44.170 -30.146  26.817  0.00  0.00    -0.214 NA
BRANCH   4   3
ATOM      1  C   UNL     1      39.301 -29.199  26.826  0.00  0.00    +0.020 A 
ATOM      2  C   UNL     1      40.659 -28.715  26.722  0.00  0.00    +0.013 A 
ATOM      3  C   UNL     1      41.788 -29.607  26.954  0.00  0.00    +0.019 A 
ATOM     38  C   UNL     1      41.507 -30.994  27.292  0.00  0.00    +0.120 A 
ATOM     39  N   UNL     1      40.190 -31.432  27.386  0.00  0.00    -0.263 NA
ATOM     40  C   UNL     1      39.095 -30.582  27.167  0.00  0.00    +0.111 A 
ENDBRANCH   4   3
ENDBRANCH  10   9
BRANCH  12  13
ATOM     13  N   UNL     1      50.333 -29.920  23.825  0.00  0.00    -0.281 N 
ATOM     14  C   UNL     1      50.876 -30.831  22.934  0.00  0.00    +0.248 C 
ATOM     30  O   UNL     1      51.112 -32.001  23.199  0.00  0.00    -0.270 OA
ATOM     31  H   UNL     1      50.370 -28.941  23.543  0.00  0.00    +0.155 HD
BRANCH  14  15
ATOM     15  C   UNL     1      51.220 -30.374  21.553  0.00  0.00    +0.037 A 
ATOM     16  C   UNL     1      50.693 -31.062  20.372  0.00  0.00    +0.013 A 
ATOM     17  C   UNL     1      51.054 -30.610  19.051  0.00  0.00    +0.005 A 
ATOM     18  C   UNL     1      51.947 -29.463  18.906  0.00  0.00    -0.033 A 
ATOM     28  C   UNL     1      52.450 -28.796  20.095  0.00  0.00    +0.005 A 
ATOM     29  C   UNL     1      52.099 -29.236  21.391  0.00  0.00    +0.013 A 
BRANCH  18  19
ATOM     19  C   UNL     1      52.402 -28.925  17.536  0.00  0.00    +0.119 C 
BRANCH  19  20
ATOM     20  N   UNL     1      51.869 -27.597  17.111  0.00  0.00    -0.302 NA
ATOM     21  C   UNL     1      50.434 -27.371  17.597  0.00  0.00    +0.066 C 
ATOM     22  C   UNL     1      49.900 -25.967  17.163  0.00  0.00    -0.064 C 
ATOM     23  N   UNL     1      49.983 -25.841  15.641  0.00  0.00    +0.379 N 
ATOM     24  C   UNL     1      49.428 -24.545  15.225  0.00  0.00    -0.096 C 
ATOM     25  H   UNL     1      49.342 -26.641  15.201  0.00  0.00    -0.082 HD
ATOM     26  C   UNL     1      51.405 -26.067  15.149  0.00  0.00    -0.064 C 
ATOM     27  C   UNL     1      51.937 -27.453  15.611  0.00  0.00    +0.066 C 
ENDBRANCH  19  20
ENDBRANCH  18  19
ENDBRANCH  14  15
ENDBRANCH  12  13
TORSDOF 6
ENDMDL
