MODEL 1
REMARK VINA RESULT:      -7.1      0.000      0.000
REMARK  Name = C:\Users\Docking\Desktop\test protocol\1iep_ligandH.pdb
REMARK  8 active torsions:
REMARK  status: ('A' for Active; 'I' for Inactive)
REMARK    1  A    between atoms: _5  and  _11
REMARK    2  A    between atoms: _19  and  _21
REMARK    3  A    between atoms: _22  and  _66
REMARK    4  A    between atoms: _27  and  _30
REMARK    5  A    between atoms: _32  and  _33
REMARK    6  A    between atoms: _38  and  _43
REMARK    7  A    between atoms: _43  and  _46
REMARK    8  A    between atoms: _53  and  _55
REMARK                            x       y       z     vdW  Elec       q    Type
REMARK                         _______ _______ _______ _____ _____    ______ ____
ROOT
ATOM     10  C   UNL     1      68.653 -35.720  55.795  0.00  0.00    +0.038 A 
ATOM     11  C   UNL     1      69.881 -35.868  56.489  0.00  0.00    +0.047 A 
ATOM     12  C   UNL     1      69.920 -35.959  57.940  0.00  0.00    +0.035 A 
ATOM     32  C   UNL     1      68.688 -35.898  58.654  0.00  0.00    +0.024 A 
ATOM     33  C   UNL     1      67.430 -35.747  57.965  0.00  0.00    +0.007 A 
ATOM     34  C   UNL     1      67.386 -35.654  56.534  0.00  0.00    -0.029 A 
ATOM     35  C   UNL     1      66.010 -35.485  55.849  0.00  0.00    +0.045 C 
ENDROOT
BRANCH  10   9
ATOM      4  C   UNL     1      68.812 -37.727  51.439  0.00  0.00    +0.077 A 
ATOM      5  C   UNL     1      68.886 -39.051  51.986  0.00  0.00    +0.048 A 
ATOM      6  C   UNL     1      68.888 -39.172  53.394  0.00  0.00    +0.116 A 
ATOM      7  N   UNL     1      68.820 -38.045  54.185  0.00  0.00    -0.223 NA
ATOM      8  C   UNL     1      68.751 -36.783  53.625  0.00  0.00    +0.220 A 
ATOM      9  N   UNL     1      68.674 -35.637  54.401  0.00  0.00    -0.283 N 
ATOM     36  H   UNL     1      68.632 -34.724  53.950  0.00  0.00    +0.155 HD
ATOM     37  N   UNL     1      68.749 -36.641  52.283  0.00  0.00    -0.214 NA
BRANCH   4   3
ATOM      1  C   UNL     1      67.707 -36.540  47.879  0.00  0.00    +0.020 A 
ATOM      2  C   UNL     1      67.671 -36.799  49.300  0.00  0.00    +0.013 A 
ATOM      3  C   UNL     1      68.797 -37.437  49.970  0.00  0.00    +0.019 A 
ATOM     38  C   UNL     1      69.954 -37.802  49.167  0.00  0.00    +0.120 A 
ATOM     39  N   UNL     1      69.960 -37.542  47.800  0.00  0.00    -0.263 NA
ATOM     40  C   UNL     1      68.882 -36.930  47.144  0.00  0.00    +0.111 A 
ENDBRANCH   4   3
ENDBRANCH  10   9
BRANCH  12  13
ATOM     13  N   UNL     1      71.138 -36.103  58.699  0.00  0.00    -0.281 N 
ATOM     14  C   UNL     1      71.885 -37.252  58.901  0.00  0.00    +0.248 C 
ATOM     30  O   UNL     1      71.501 -38.381  58.636  0.00  0.00    -0.270 OA
ATOM     31  H   UNL     1      71.492 -35.254  59.140  0.00  0.00    +0.155 HD
BRANCH  14  15
ATOM     15  C   UNL     1      73.249 -37.130  59.499  0.00  0.00    +0.037 A 
ATOM     16  C   UNL     1      73.435 -36.707  60.889  0.00  0.00    +0.013 A 
ATOM     17  C   UNL     1      74.763 -36.581  61.435  0.00  0.00    +0.005 A 
ATOM     18  C   UNL     1      75.917 -36.881  60.590  0.00  0.00    -0.033 A 
ATOM     28  C   UNL     1      75.703 -37.303  59.216  0.00  0.00    +0.005 A 
ATOM     29  C   UNL     1      74.403 -37.427  58.677  0.00  0.00    +0.013 A 
BRANCH  18  19
ATOM     19  C   UNL     1      77.370 -36.753  61.083  0.00  0.00    +0.119 C 
BRANCH  19  20
ATOM     20  N   UNL     1      77.607 -36.876  62.552  0.00  0.00    -0.302 NA
ATOM     21  C   UNL     1      78.839 -36.086  63.003  0.00  0.00    +0.066 C 
ATOM     22  C   UNL     1      79.059 -36.206  64.547  0.00  0.00    -0.064 C 
ATOM     23  N   UNL     1      79.194 -37.682  64.926  0.00  0.00    +0.379 N 
ATOM     24  C   UNL     1      79.458 -37.796  66.367  0.00  0.00    -0.096 C 
ATOM     25  H   UNL     1      80.079 -38.090  64.386  0.00  0.00    -0.082 HD
ATOM     26  C   UNL     1      77.974 -38.476  64.478  0.00  0.00    -0.064 C 
ATOM     27  C   UNL     1      77.747 -38.325  62.948  0.00  0.00    +0.066 C 
ENDBRANCH  19  20
ENDBRANCH  18  19
ENDBRANCH  14  15
ENDBRANCH  12  13
TORSDOF 6
ENDMDL
MODEL 2
REMARK VINA RESULT:      -7.0      1.556      2.045
REMARK  Name = C:\Users\Docking\Desktop\test protocol\1iep_ligandH.pdb
REMARK  8 active torsions:
REMARK  status: ('A' for Active; 'I' for Inactive)
REMARK    1  A    between atoms: _5  and  _11
REMARK    2  A    between atoms: _19  and  _21
REMARK    3  A    between atoms: _22  and  _66
REMARK    4  A    between atoms: _27  and  _30
REMARK    5  A    between atoms: _32  and  _33
REMARK    6  A    between atoms: _38  and  _43
REMARK    7  A    between atoms: _43  and  _46
REMARK    8  A    between atoms: _53  and  _55
REMARK                            x       y       z     vdW  Elec       q    Type
REMARK                         _______ _______ _______ _____ _____    ______ ____
ROOT
ATOM     10  C   UNL     1      68.424 -35.703  55.546  0.00  0.00    +0.038 A 
ATOM     11  C   UNL     1      69.580 -35.817  56.360  0.00  0.00    +0.047 A 
ATOM     12  C   UNL     1      69.475 -35.900  57.809  0.00  0.00    +0.035 A 
ATOM     32  C   UNL     1      68.176 -35.866  58.395  0.00  0.00    +0.024 A 
ATOM     33  C   UNL     1      66.991 -35.748  57.583  0.00  0.00    +0.007 A 
ATOM     34  C   UNL     1      67.088 -35.664  56.153  0.00  0.00    -0.029 A 
ATOM     35  C   UNL     1      65.784 -35.533  55.332  0.00  0.00    +0.045 C 
ENDROOT
BRANCH  10   9
ATOM      4  C   UNL     1      68.664 -37.718  51.197  0.00  0.00    +0.077 A 
ATOM      5  C   UNL     1      68.484 -39.037  51.733  0.00  0.00    +0.048 A 
ATOM      6  C   UNL     1      68.341 -39.154  53.134  0.00  0.00    +0.116 A 
ATOM      7  N   UNL     1      68.376 -38.029  53.929  0.00  0.00    -0.223 NA
ATOM      8  C   UNL     1      68.553 -36.772  53.380  0.00  0.00    +0.220 A 
ATOM      9  N   UNL     1      68.583 -35.627  54.161  0.00  0.00    -0.283 N 
ATOM     36  H   UNL     1      68.723 -34.719  53.718  0.00  0.00    +0.155 HD
ATOM     37  N   UNL     1      68.694 -36.634  52.045  0.00  0.00    -0.214 NA
BRANCH   4   3
ATOM      1  C   UNL     1      67.998 -36.540  47.527  0.00  0.00    +0.020 A 
ATOM      2  C   UNL     1      67.790 -36.795  48.934  0.00  0.00    +0.013 A 
ATOM      3  C   UNL     1      68.827 -37.432  49.736  0.00  0.00    +0.019 A 
ATOM     38  C   UNL     1      70.072 -37.800  49.080  0.00  0.00    +0.120 A 
ATOM     39  N   UNL     1      70.243 -37.544  47.723  0.00  0.00    -0.263 NA
ATOM     40  C   UNL     1      69.252 -36.933  46.940  0.00  0.00    +0.111 A 
ENDBRANCH   4   3
ENDBRANCH  10   9
BRANCH  12  13
ATOM     13  N   UNL     1      70.613 -36.009  58.687  0.00  0.00    -0.281 N 
ATOM     14  C   UNL     1      71.220 -37.163  59.155  0.00  0.00    +0.248 C 
ATOM     30  O   UNL     1      70.742 -38.283  59.059  0.00  0.00    -0.270 OA
ATOM     31  H   UNL     1      71.021 -35.128  59.002  0.00  0.00    +0.155 HD
BRANCH  14  15
ATOM     15  C   UNL     1      72.544 -37.055  59.841  0.00  0.00    +0.037 A 
ATOM     16  C   UNL     1      72.636 -36.737  61.268  0.00  0.00    +0.013 A 
ATOM     17  C   UNL     1      73.925 -36.622  61.902  0.00  0.00    +0.005 A 
ATOM     18  C   UNL     1      75.134 -36.828  61.108  0.00  0.00    -0.033 A 
ATOM     28  C   UNL     1      75.014 -37.147  59.695  0.00  0.00    +0.005 A 
ATOM     29  C   UNL     1      73.752 -37.259  59.071  0.00  0.00    +0.013 A 
BRANCH  18  19
ATOM     19  C   UNL     1      76.552 -36.704  61.697  0.00  0.00    +0.119 C 
BRANCH  19  20
ATOM     20  N   UNL     1      77.678 -37.262  60.890  0.00  0.00    -0.302 NA
ATOM     21  C   UNL     1      78.058 -38.677  61.335  0.00  0.00    +0.066 C 
ATOM     22  C   UNL     1      79.222 -39.254  60.465  0.00  0.00    -0.064 C 
ATOM     23  N   UNL     1      80.429 -38.318  60.549  0.00  0.00    +0.379 N 
ATOM     24  C   UNL     1      81.545 -38.887  59.779  0.00  0.00    -0.096 C 
ATOM     25  H   UNL     1      80.745 -38.268  61.617  0.00  0.00    -0.082 HD
ATOM     26  C   UNL     1      80.060 -36.908  60.111  0.00  0.00    -0.064 C 
ATOM     27  C   UNL     1      78.882 -36.355  60.961  0.00  0.00    +0.066 C 
ENDBRANCH  19  20
ENDBRANCH  18  19
ENDBRANCH  14  15
ENDBRANCH  12  13
TORSDOF 6
ENDMDL
MODEL 3
REMARK VINA RESULT:      -6.7     20.228     27.386
REMARK  Name = C:\Users\Docking\Desktop\test protocol\1iep_ligandH.pdb
REMARK  8 active torsions:
REMARK  status: ('A' for Active; 'I' for Inactive)
REMARK    1  A    between atoms: _5  and  _11
REMARK    2  A    between atoms: _19  and  _21
REMARK    3  A    between atoms: _22  and  _66
REMARK    4  A    between atoms: _27  and  _30
REMARK    5  A    between atoms: _32  and  _33
REMARK    6  A    between atoms: _38  and  _43
REMARK    7  A    between atoms: _43  and  _46
REMARK    8  A    between atoms: _53  and  _55
REMARK                            x       y       z     vdW  Elec       q    Type
REMARK                         _______ _______ _______ _____ _____    ______ ____
ROOT
ATOM     10  C   UNL     1      54.602 -28.491  35.072  0.00  0.00    +0.038 A 
ATOM     11  C   UNL     1      55.935 -28.018  35.175  0.00  0.00    +0.047 A 
ATOM     12  C   UNL     1      57.040 -28.931  35.425  0.00  0.00    +0.035 A 
ATOM     32  C   UNL     1      56.750 -30.320  35.562  0.00  0.00    +0.024 A 
ATOM     33  C   UNL     1      55.401 -30.817  35.461  0.00  0.00    +0.007 A 
ATOM     34  C   UNL     1      54.307 -29.921  35.217  0.00  0.00    -0.029 A 
ATOM     35  C   UNL     1      52.880 -30.510  35.125  0.00  0.00    +0.045 C 
ENDROOT
BRANCH  10   9
ATOM      4  C   UNL     1      51.559 -25.070  36.515  0.00  0.00    +0.077 A 
ATOM      5  C   UNL     1      52.028 -25.142  37.870  0.00  0.00    +0.048 A 
ATOM      6  C   UNL     1      53.048 -26.078  38.154  0.00  0.00    +0.116 A 
ATOM      7  N   UNL     1      53.554 -26.876  37.152  0.00  0.00    -0.223 NA
ATOM      8  C   UNL     1      53.079 -26.782  35.857  0.00  0.00    +0.220 A 
ATOM      9  N   UNL     1      53.579 -27.570  34.831  0.00  0.00    -0.283 N 
ATOM     36  H   UNL     1      53.197 -27.476  33.891  0.00  0.00    +0.155 HD
ATOM     37  N   UNL     1      52.104 -25.898  35.559  0.00  0.00    -0.214 NA
BRANCH   4   3
ATOM      1  C   UNL     1      49.587 -22.348  34.515  0.00  0.00    +0.020 A 
ATOM      2  C   UNL     1      50.653 -23.237  34.917  0.00  0.00    +0.013 A 
ATOM      3  C   UNL     1      50.489 -24.130  36.057  0.00  0.00    +0.019 A 
ATOM     38  C   UNL     1      49.223 -24.099  36.775  0.00  0.00    +0.120 A 
ATOM     39  N   UNL     1      48.215 -23.231  36.365  0.00  0.00    -0.263 NA
ATOM     40  C   UNL     1      48.362 -22.366  35.271  0.00  0.00    +0.111 A 
ENDBRANCH   4   3
ENDBRANCH  10   9
BRANCH  12  13
ATOM     13  N   UNL     1      58.413 -28.508  35.548  0.00  0.00    -0.281 N 
ATOM     14  C   UNL     1      59.132 -28.276  36.709  0.00  0.00    +0.248 C 
ATOM     30  O   UNL     1      58.637 -28.191  37.823  0.00  0.00    -0.270 OA
ATOM     31  H   UNL     1      58.915 -28.361  34.672  0.00  0.00    +0.155 HD
BRANCH  14  15
ATOM     15  C   UNL     1      60.613 -28.099  36.617  0.00  0.00    +0.037 A 
ATOM     16  C   UNL     1      61.290 -26.995  37.303  0.00  0.00    +0.013 A 
ATOM     17  C   UNL     1      62.718 -26.837  37.184  0.00  0.00    +0.005 A 
ATOM     18  C   UNL     1      63.479 -27.788  36.377  0.00  0.00    -0.033 A 
ATOM     28  C   UNL     1      62.783 -28.877  35.712  0.00  0.00    +0.005 A 
ATOM     29  C   UNL     1      61.383 -29.034  35.825  0.00  0.00    +0.013 A 
BRANCH  18  19
ATOM     19  C   UNL     1      65.003 -27.684  36.177  0.00  0.00    +0.119 C 
BRANCH  19  20
ATOM     20  N   UNL     1      65.865 -27.877  37.381  0.00  0.00    -0.302 NA
ATOM     21  C   UNL     1      67.353 -27.912  37.023  0.00  0.00    +0.066 C 
ATOM     22  C   UNL     1      68.241 -28.092  38.296  0.00  0.00    -0.064 C 
ATOM     23  N   UNL     1      67.830 -29.373  39.025  0.00  0.00    +0.379 N 
ATOM     24  C   UNL     1      68.702 -29.575  40.191  0.00  0.00    -0.096 C 
ATOM     25  H   UNL     1      67.994 -30.226  38.327  0.00  0.00    -0.082 HD
ATOM     26  C   UNL     1      66.350 -29.347  39.383  0.00  0.00    -0.064 C 
ATOM     27  C   UNL     1      65.478 -29.138  38.114  0.00  0.00    +0.066 C 
ENDBRANCH  19  20
ENDBRANCH  18  19
ENDBRANCH  14  15
ENDBRANCH  12  13
TORSDOF 6
ENDMDL
MODEL 4
REMARK VINA RESULT:      -6.6     43.436     49.374
REMARK  Name = C:\Users\Docking\Desktop\test protocol\1iep_ligandH.pdb
REMARK  8 active torsions:
REMARK  status: ('A' for Active; 'I' for Inactive)
REMARK    1  A    between atoms: _5  and  _11
REMARK    2  A    between atoms: _19  and  _21
REMARK    3  A    between atoms: _22  and  _66
REMARK    4  A    between atoms: _27  and  _30
REMARK    5  A    between atoms: _32  and  _33
REMARK    6  A    between atoms: _38  and  _43
REMARK    7  A    between atoms: _43  and  _46
REMARK    8  A    between atoms: _53  and  _55
REMARK                            x       y       z     vdW  Elec       q    Type
REMARK                         _______ _______ _______ _____ _____    ______ ____
ROOT
ATOM     10  C   UNL     1      54.625  -2.003  23.162  0.00  0.00    +0.038 A 
ATOM     11  C   UNL     1      55.301  -1.846  24.399  0.00  0.00    +0.047 A 
ATOM     12  C   UNL     1      54.673  -1.163  25.518  0.00  0.00    +0.035 A 
ATOM     32  C   UNL     1      53.353  -0.653  25.344  0.00  0.00    +0.024 A 
ATOM     33  C   UNL     1      52.652  -0.803  24.094  0.00  0.00    +0.007 A 
ATOM     34  C   UNL     1      53.268  -1.474  22.985  0.00  0.00    -0.029 A 
ATOM     35  C   UNL     1      52.471  -1.599  21.665  0.00  0.00    +0.045 C 
ENDROOT
BRANCH  10   9
ATOM      4  C   UNL     1      57.533  -2.065  19.343  0.00  0.00    +0.077 A 
ATOM      5  C   UNL     1      57.753  -0.649  19.414  0.00  0.00    +0.048 A 
ATOM      6  C   UNL     1      57.093   0.060  20.443  0.00  0.00    +0.116 A 
ATOM      7  N   UNL     1      56.278  -0.608  21.330  0.00  0.00    -0.223 NA
ATOM      8  C   UNL     1      56.086  -1.974  21.233  0.00  0.00    +0.220 A 
ATOM      9  N   UNL     1      55.276  -2.667  22.120  0.00  0.00    -0.283 N 
ATOM     36  H   UNL     1      55.155  -3.674  22.010  0.00  0.00    +0.155 HD
ATOM     37  N   UNL     1      56.703  -2.673  20.258  0.00  0.00    -0.214 NA
BRANCH   4   3
ATOM      1  C   UNL     1      58.482  -5.183  17.180  0.00  0.00    +0.020 A 
ATOM      2  C   UNL     1      57.847  -4.370  18.191  0.00  0.00    +0.013 A 
ATOM      3  C   UNL     1      58.162  -2.952  18.314  0.00  0.00    +0.019 A 
ATOM     38  C   UNL     1      59.131  -2.383  17.390  0.00  0.00    +0.120 A 
ATOM     39  N   UNL     1      59.728  -3.190  16.427  0.00  0.00    -0.263 NA
ATOM     40  C   UNL     1      59.434  -4.556  16.300  0.00  0.00    +0.111 A 
ENDBRANCH   4   3
ENDBRANCH  10   9
BRANCH  12  13
ATOM     13  N   UNL     1      55.313  -0.967  26.795  0.00  0.00    -0.281 N 
ATOM     14  C   UNL     1      55.073  -1.641  27.981  0.00  0.00    +0.248 C 
ATOM     30  O   UNL     1      54.115  -2.374  28.177  0.00  0.00    -0.270 OA
ATOM     31  H   UNL     1      56.031  -0.243  26.829  0.00  0.00    +0.155 HD
BRANCH  14  15
ATOM     15  C   UNL     1      56.026  -1.465  29.119  0.00  0.00    +0.037 A 
ATOM     16  C   UNL     1      57.031  -0.398  29.110  0.00  0.00    +0.013 A 
ATOM     17  C   UNL     1      57.949  -0.261  30.212  0.00  0.00    +0.005 A 
ATOM     18  C   UNL     1      57.867  -1.193  31.334  0.00  0.00    -0.033 A 
ATOM     28  C   UNL     1      56.857  -2.238  31.319  0.00  0.00    +0.005 A 
ATOM     29  C   UNL     1      55.955  -2.377  30.240  0.00  0.00    +0.013 A 
BRANCH  18  19
ATOM     19  C   UNL     1      58.820  -1.134  32.542  0.00  0.00    +0.119 C 
BRANCH  19  20
ATOM     20  N   UNL     1      58.402  -1.860  33.778  0.00  0.00    -0.302 NA
ATOM     21  C   UNL     1      57.593  -0.968  34.723  0.00  0.00    +0.066 C 
ATOM     22  C   UNL     1      57.145  -1.751  36.001  0.00  0.00    -0.064 C 
ATOM     23  N   UNL     1      58.379  -2.312  36.710  0.00  0.00    +0.379 N 
ATOM     24  C   UNL     1      57.966  -2.999  37.943  0.00  0.00    -0.096 C 
ATOM     25  H   UNL     1      59.022  -1.450  37.002  0.00  0.00    -0.082 HD
ATOM     26  C   UNL     1      59.191  -3.198  35.777  0.00  0.00    -0.064 C 
ATOM     27  C   UNL     1      59.606  -2.420  34.497  0.00  0.00    +0.066 C 
ENDBRANCH  19  20
ENDBRANCH  18  19
ENDBRANCH  14  15
ENDBRANCH  12  13
TORSDOF 6
ENDMDL
MODEL 5
REMARK VINA RESULT:      -6.5     16.334     18.217
REMARK  Name = C:\Users\Docking\Desktop\test protocol\1iep_ligandH.pdb
REMARK  8 active torsions:
REMARK  status: ('A' for Active; 'I' for Inactive)
REMARK    1  A    between atoms: _5  and  _11
REMARK    2  A    between atoms: _19  and  _21
REMARK    3  A    between atoms: _22  and  _66
REMARK    4  A    between atoms: _27  and  _30
REMARK    5  A    between atoms: _32  and  _33
REMARK    6  A    between atoms: _38  and  _43
REMARK    7  A    between atoms: _43  and  _46
REMARK    8  A    between atoms: _53  and  _55
REMARK                            x       y       z     vdW  Elec       q    Type
REMARK                         _______ _______ _______ _____ _____    ______ ____
ROOT
ATOM     10  C   UNL     1      55.477 -31.596  50.147  0.00  0.00    +0.038 A 
ATOM     11  C   UNL     1      55.395 -32.058  51.485  0.00  0.00    +0.047 A 
ATOM     12  C   UNL     1      54.262 -31.717  52.331  0.00  0.00    +0.035 A 
ATOM     32  C   UNL     1      53.228 -30.905  51.780  0.00  0.00    +0.024 A 
ATOM     33  C   UNL     1      53.295 -30.426  50.422  0.00  0.00    +0.007 A 
ATOM     34  C   UNL     1      54.412 -30.758  49.583  0.00  0.00    -0.029 A 
ATOM     35  C   UNL     1      54.435 -30.211  48.137  0.00  0.00    +0.045 C 
ENDROOT
BRANCH  10   9
ATOM      4  C   UNL     1      57.685 -34.425  46.959  0.00  0.00    +0.077 A 
ATOM      5  C   UNL     1      56.538 -35.277  46.831  0.00  0.00    +0.048 A 
ATOM      6  C   UNL     1      55.402 -34.956  47.609  0.00  0.00    +0.116 A 
ATOM      7  N   UNL     1      55.423 -33.863  48.448  0.00  0.00    -0.223 NA
ATOM      8  C   UNL     1      56.547 -33.063  48.548  0.00  0.00    +0.220 A 
ATOM      9  N   UNL     1      56.587 -31.954  49.379  0.00  0.00    -0.283 N 
ATOM     36  H   UNL     1      57.438 -31.394  49.431  0.00  0.00    +0.155 HD
ATOM     37  N   UNL     1      57.644 -33.349  47.817  0.00  0.00    -0.214 NA
BRANCH   4   3
ATOM      1  C   UNL     1      61.110 -35.864  45.736  0.00  0.00    +0.020 A 
ATOM      2  C   UNL     1      59.893 -35.709  46.499  0.00  0.00    +0.013 A 
ATOM      3  C   UNL     1      58.959 -34.630  46.201  0.00  0.00    +0.019 A 
ATOM     38  C   UNL     1      59.289 -33.719  45.115  0.00  0.00    +0.120 A 
ATOM     39  N   UNL     1      60.469 -33.892  44.399  0.00  0.00    -0.263 NA
ATOM     40  C   UNL     1      61.376 -34.925  44.678  0.00  0.00    +0.111 A 
ENDBRANCH   4   3
ENDBRANCH  10   9
BRANCH  12  13
ATOM     13  N   UNL     1      54.128 -32.150  53.700  0.00  0.00    -0.281 N 
ATOM     14  C   UNL     1      54.719 -31.603  54.827  0.00  0.00    +0.248 C 
ATOM     30  O   UNL     1      55.626 -30.784  54.805  0.00  0.00    -0.270 OA
ATOM     31  H   UNL     1      53.525 -32.957  53.857  0.00  0.00    +0.155 HD
BRANCH  14  15
ATOM     15  C   UNL     1      54.242 -32.039  56.175  0.00  0.00    +0.037 A 
ATOM     16  C   UNL     1      54.750 -33.262  56.802  0.00  0.00    +0.013 A 
ATOM     17  C   UNL     1      54.261 -33.669  58.095  0.00  0.00    +0.005 A 
ATOM     18  C   UNL     1      53.259 -32.850  58.772  0.00  0.00    -0.033 A 
ATOM     28  C   UNL     1      52.776 -31.638  58.130  0.00  0.00    +0.005 A 
ATOM     29  C   UNL     1      53.252 -31.237  56.862  0.00  0.00    +0.013 A 
BRANCH  18  19
ATOM     19  C   UNL     1      52.665 -33.218  60.145  0.00  0.00    +0.119 C 
BRANCH  19  20
ATOM     20  N   UNL     1      53.373 -32.706  61.356  0.00  0.00    -0.302 NA
ATOM     21  C   UNL     1      54.598 -31.863  60.991  0.00  0.00    +0.066 C 
ATOM     22  C   UNL     1      55.314 -31.317  62.269  0.00  0.00    -0.064 C 
ATOM     23  N   UNL     1      55.710 -32.488  63.169  0.00  0.00    +0.379 N 
ATOM     24  C   UNL     1      56.434 -31.982  64.344  0.00  0.00    -0.096 C 
ATOM     25  H   UNL     1      56.411 -33.135  62.593  0.00  0.00    -0.082 HD
ATOM     26  C   UNL     1      54.497 -33.333  63.534  0.00  0.00    -0.064 C 
ATOM     27  C   UNL     1      53.777 -33.847  62.257  0.00  0.00    +0.066 C 
ENDBRANCH  19  20
ENDBRANCH  18  19
ENDBRANCH  14  15
ENDBRANCH  12  13
TORSDOF 6
ENDMDL
