MODEL 1
REMARK VINA RESULT:      -9.5      0.000      0.000
REMARK  Name = C:\Users\Docking\Desktop\test protocol\1iep_ligandH.pdb
REMARK  8 active torsions:
REMARK  status: ('A' for Active; 'I' for Inactive)
REMARK    1  A    between atoms: _5  and  _11
REMARK    2  A    between atoms: _19  and  _21
REMARK    3  A    between atoms: _22  and  _66
REMARK    4  A    between atoms: _27  and  _30
REMARK    5  A    between atoms: _32  and  _33
REMARK    6  A    between atoms: _38  and  _43
REMARK    7  A    between atoms: _43  and  _46
REMARK    8  A    between atoms: _53  and  _55
REMARK                            x       y       z     vdW  Elec       q    Type
REMARK                         _______ _______ _______ _____ _____    ______ ____
ROOT
ATOM     10  C   UNL     1      17.587  76.516  61.021  0.00  0.00    +0.038 A 
ATOM     11  C   UNL     1      17.420  77.216  62.243  0.00  0.00    +0.047 A 
ATOM     12  C   UNL     1      16.116  77.318  62.881  0.00  0.00    +0.035 A 
ATOM     32  C   UNL     1      15.004  76.692  62.247  0.00  0.00    +0.024 A 
ATOM     33  C   UNL     1      15.155  75.977  61.004  0.00  0.00    +0.007 A 
ATOM     34  C   UNL     1      16.438  75.876  60.369  0.00  0.00    -0.029 A 
ATOM     35  C   UNL     1      16.540  75.102  59.034  0.00  0.00    +0.045 C 
ENDROOT
BRANCH  10   9
ATOM      4  C   UNL     1      22.017  74.688  60.767  0.00  0.00    +0.077 A 
ATOM      5  C   UNL     1      21.782  73.809  61.876  0.00  0.00    +0.048 A 
ATOM      6  C   UNL     1      20.510  73.864  62.489  0.00  0.00    +0.116 A 
ATOM      7  N   UNL     1      19.552  74.736  62.019  0.00  0.00    -0.223 NA
ATOM      8  C   UNL     1      19.812  75.571  60.948  0.00  0.00    +0.220 A 
ATOM      9  N   UNL     1      18.861  76.450  60.453  0.00  0.00    -0.283 N 
ATOM     36  H   UNL     1      19.094  77.055  59.666  0.00  0.00    +0.155 HD
ATOM     37  N   UNL     1      21.020  75.539  60.346  0.00  0.00    -0.214 NA
BRANCH   4   3
ATOM      1  C   UNL     1      24.775  75.608  58.149  0.00  0.00    +0.020 A 
ATOM      2  C   UNL     1      23.506  75.589  58.841  0.00  0.00    +0.013 A 
ATOM      3  C   UNL     1      23.309  74.745  60.013  0.00  0.00    +0.019 A 
ATOM     38  C   UNL     1      24.425  73.926  60.463  0.00  0.00    +0.120 A 
ATOM     39  N   UNL     1      25.634  73.964  59.775  0.00  0.00    -0.263 NA
ATOM     40  C   UNL     1      25.835  74.771  58.646  0.00  0.00    +0.111 A 
ENDBRANCH   4   3
ENDBRANCH  10   9
BRANCH  12  13
ATOM     13  N   UNL     1      15.885  78.022  64.117  0.00  0.00    -0.281 N 
ATOM     14  C   UNL     1      15.902  79.390  64.334  0.00  0.00    +0.248 C 
ATOM     30  O   UNL     1      16.332  80.211  63.537  0.00  0.00    -0.270 OA
ATOM     31  H   UNL     1      15.684  77.442  64.932  0.00  0.00    +0.155 HD
BRANCH  14  15
ATOM     15  C   UNL     1      15.379  79.923  65.629  0.00  0.00    +0.037 A 
ATOM     16  C   UNL     1      14.647  79.064  66.564  0.00  0.00    +0.013 A 
ATOM     17  C   UNL     1      14.138  79.607  67.799  0.00  0.00    +0.005 A 
ATOM     18  C   UNL     1      14.362  81.017  68.106  0.00  0.00    -0.033 A 
ATOM     28  C   UNL     1      15.095  81.846  67.164  0.00  0.00    +0.005 A 
ATOM     29  C   UNL     1      15.594  81.317  65.952  0.00  0.00    +0.013 A 
BRANCH  18  19
ATOM     19  C   UNL     1      13.837  81.687  69.390  0.00  0.00    +0.119 C 
BRANCH  19  20
ATOM     20  N   UNL     1      14.617  82.840  69.928  0.00  0.00    -0.302 NA
ATOM     21  C   UNL     1      15.759  82.385  70.842  0.00  0.00    +0.066 C 
ATOM     22  C   UNL     1      16.579  83.603  71.378  0.00  0.00    -0.064 C 
ATOM     23  N   UNL     1      15.642  84.560  72.118  0.00  0.00    +0.379 N 
ATOM     24  C   UNL     1      16.420  85.677  72.673  0.00  0.00    -0.096 C 
ATOM     25  H   UNL     1      15.194  84.002  72.972  0.00  0.00    -0.082 HD
ATOM     26  C   UNL     1      14.502  85.015  71.217  0.00  0.00    -0.064 C 
ATOM     27  C   UNL     1      13.712  83.796  70.666  0.00  0.00    +0.066 C 
ENDBRANCH  19  20
ENDBRANCH  18  19
ENDBRANCH  14  15
ENDBRANCH  12  13
TORSDOF 6
ENDMDL
MODEL 2
REMARK VINA RESULT:      -9.0      1.216      1.747
REMARK  Name = C:\Users\Docking\Desktop\test protocol\1iep_ligandH.pdb
REMARK  8 active torsions:
REMARK  status: ('A' for Active; 'I' for Inactive)
REMARK    1  A    between atoms: _5  and  _11
REMARK    2  A    between atoms: _19  and  _21
REMARK    3  A    between atoms: _22  and  _66
REMARK    4  A    between atoms: _27  and  _30
REMARK    5  A    between atoms: _32  and  _33
REMARK    6  A    between atoms: _38  and  _43
REMARK    7  A    between atoms: _43  and  _46
REMARK    8  A    between atoms: _53  and  _55
REMARK                            x       y       z     vdW  Elec       q    Type
REMARK                         _______ _______ _______ _____ _____    ______ ____
ROOT
ATOM     10  C   UNL     1      17.285  76.422  60.581  0.00  0.00    +0.038 A 
ATOM     11  C   UNL     1      17.008  77.330  61.635  0.00  0.00    +0.047 A 
ATOM     12  C   UNL     1      15.661  77.482  62.162  0.00  0.00    +0.035 A 
ATOM     32  C   UNL     1      14.620  76.691  61.594  0.00  0.00    +0.024 A 
ATOM     33  C   UNL     1      14.884  75.764  60.522  0.00  0.00    +0.007 A 
ATOM     34  C   UNL     1      16.210  75.612  59.996  0.00  0.00    -0.029 A 
ATOM     35  C   UNL     1      16.434  74.608  58.841  0.00  0.00    +0.045 C 
ENDROOT
BRANCH  10   9
ATOM      4  C   UNL     1      21.766  74.731  60.893  0.00  0.00    +0.077 A 
ATOM      5  C   UNL     1      21.477  74.020  62.105  0.00  0.00    +0.048 A 
ATOM      6  C   UNL     1      20.164  74.121  62.619  0.00  0.00    +0.116 A 
ATOM      7  N   UNL     1      19.220  74.879  61.962  0.00  0.00    -0.223 NA
ATOM      8  C   UNL     1      19.533  75.554  60.796  0.00  0.00    +0.220 A 
ATOM      9  N   UNL     1      18.597  76.316  60.114  0.00  0.00    -0.283 N 
ATOM     36  H   UNL     1      18.869  76.804  59.261  0.00  0.00    +0.155 HD
ATOM     37  N   UNL     1      20.780  75.474  60.285  0.00  0.00    -0.214 NA
BRANCH   4   3
ATOM      1  C   UNL     1      24.713  75.457  58.425  0.00  0.00    +0.020 A 
ATOM      2  C   UNL     1      23.403  75.503  59.032  0.00  0.00    +0.013 A 
ATOM      3  C   UNL     1      23.106  74.719  60.225  0.00  0.00    +0.019 A 
ATOM     38  C   UNL     1      24.166  73.894  60.784  0.00  0.00    +0.120 A 
ATOM     39  N   UNL     1      25.418  73.868  60.177  0.00  0.00    -0.263 NA
ATOM     40  C   UNL     1      25.714  74.616  59.028  0.00  0.00    +0.111 A 
ENDBRANCH   4   3
ENDBRANCH  10   9
BRANCH  12  13
ATOM     13  N   UNL     1      15.318  78.393  63.225  0.00  0.00    -0.281 N 
ATOM     14  C   UNL     1      15.124  78.104  64.566  0.00  0.00    +0.248 C 
ATOM     30  O   UNL     1      15.007  76.975  65.020  0.00  0.00    -0.270 OA
ATOM     31  H   UNL     1      15.203  79.371  62.957  0.00  0.00    +0.155 HD
BRANCH  14  15
ATOM     15  C   UNL     1      15.033  79.231  65.543  0.00  0.00    +0.037 A 
ATOM     16  C   UNL     1      15.457  80.586  65.180  0.00  0.00    +0.013 A 
ATOM     17  C   UNL     1      15.375  81.653  66.147  0.00  0.00    +0.005 A 
ATOM     18  C   UNL     1      14.865  81.368  67.486  0.00  0.00    -0.033 A 
ATOM     28  C   UNL     1      14.447  80.015  67.817  0.00  0.00    +0.005 A 
ATOM     29  C   UNL     1      14.527  78.968  66.873  0.00  0.00    +0.013 A 
BRANCH  18  19
ATOM     19  C   UNL     1      14.762  82.439  68.587  0.00  0.00    +0.119 C 
BRANCH  19  20
ATOM     20  N   UNL     1      15.696  82.321  69.746  0.00  0.00    -0.302 NA
ATOM     21  C   UNL     1      15.553  83.493  70.722  0.00  0.00    +0.066 C 
ATOM     22  C   UNL     1      16.522  83.341  71.939  0.00  0.00    -0.064 C 
ATOM     23  N   UNL     1      17.961  83.231  71.432  0.00  0.00    +0.379 N 
ATOM     24  C   UNL     1      18.880  83.147  72.577  0.00  0.00    -0.096 C 
ATOM     25  H   UNL     1      18.196  84.169  70.878  0.00  0.00    -0.082 HD
ATOM     26  C   UNL     1      18.111  82.070  70.459  0.00  0.00    -0.064 C 
ATOM     27  C   UNL     1      17.124  82.215  69.268  0.00  0.00    +0.066 C 
ENDBRANCH  19  20
ENDBRANCH  18  19
ENDBRANCH  14  15
ENDBRANCH  12  13
TORSDOF 6
ENDMDL
MODEL 3
REMARK VINA RESULT:      -8.8     13.893     21.845
REMARK  Name = C:\Users\Docking\Desktop\test protocol\1iep_ligandH.pdb
REMARK  8 active torsions:
REMARK  status: ('A' for Active; 'I' for Inactive)
REMARK    1  A    between atoms: _5  and  _11
REMARK    2  A    between atoms: _19  and  _21
REMARK    3  A    between atoms: _22  and  _66
REMARK    4  A    between atoms: _27  and  _30
REMARK    5  A    between atoms: _32  and  _33
REMARK    6  A    between atoms: _38  and  _43
REMARK    7  A    between atoms: _43  and  _46
REMARK    8  A    between atoms: _53  and  _55
REMARK                            x       y       z     vdW  Elec       q    Type
REMARK                         _______ _______ _______ _____ _____    ______ ____
ROOT
ATOM     10  C   UNL     1      16.438  72.717  48.266  0.00  0.00    +0.038 A 
ATOM     11  C   UNL     1      17.681  72.919  47.614  0.00  0.00    +0.047 A 
ATOM     12  C   UNL     1      17.894  72.474  46.246  0.00  0.00    +0.035 A 
ATOM     32  C   UNL     1      16.817  71.828  45.570  0.00  0.00    +0.024 A 
ATOM     33  C   UNL     1      15.548  71.614  46.219  0.00  0.00    +0.007 A 
ATOM     34  C   UNL     1      15.333  72.048  47.569  0.00  0.00    -0.029 A 
ATOM     35  C   UNL     1      13.953  71.786  48.217  0.00  0.00    +0.045 C 
ENDROOT
BRANCH  10   9
ATOM      4  C   UNL     1      16.831  72.118  53.012  0.00  0.00    +0.077 A 
ATOM      5  C   UNL     1      17.353  70.791  52.861  0.00  0.00    +0.048 A 
ATOM      6  C   UNL     1      17.498  70.296  51.546  0.00  0.00    +0.116 A 
ATOM      7  N   UNL     1      17.145  71.080  50.469  0.00  0.00    -0.223 NA
ATOM      8  C   UNL     1      16.643  72.356  50.650  0.00  0.00    +0.220 A 
ATOM      9  N   UNL     1      16.289  73.165  49.581  0.00  0.00    -0.283 N 
ATOM     36  H   UNL     1      15.915  74.097  49.756  0.00  0.00    +0.155 HD
ATOM     37  N   UNL     1      16.493  72.851  51.896  0.00  0.00    -0.214 NA
BRANCH   4   3
ATOM      1  C   UNL     1      16.473  74.818  55.821  0.00  0.00    +0.020 A 
ATOM      2  C   UNL     1      16.682  74.227  54.519  0.00  0.00    +0.013 A 
ATOM      3  C   UNL     1      16.623  72.782  54.338  0.00  0.00    +0.019 A 
ATOM     38  C   UNL     1      16.346  71.957  55.504  0.00  0.00    +0.120 A 
ATOM     39  N   UNL     1      16.150  72.553  56.746  0.00  0.00    -0.263 NA
ATOM     40  C   UNL     1      16.207  73.943  56.932  0.00  0.00    +0.111 A 
ENDBRANCH   4   3
ENDBRANCH  10   9
BRANCH  12  13
ATOM     13  N   UNL     1      19.137  72.644  45.534  0.00  0.00    -0.281 N 
ATOM     14  C   UNL     1      19.884  71.677  44.883  0.00  0.00    +0.248 C 
ATOM     30  O   UNL     1      19.706  70.473  44.995  0.00  0.00    -0.270 OA
ATOM     31  H   UNL     1      19.511  73.593  45.509  0.00  0.00    +0.155 HD
BRANCH  14  15
ATOM     15  C   UNL     1      21.001  72.109  43.988  0.00  0.00    +0.037 A 
ATOM     16  C   UNL     1      20.737  72.708  42.678  0.00  0.00    +0.013 A 
ATOM     17  C   UNL     1      21.833  73.100  41.827  0.00  0.00    +0.005 A 
ATOM     18  C   UNL     1      23.204  72.896  42.287  0.00  0.00    -0.033 A 
ATOM     28  C   UNL     1      23.438  72.304  43.594  0.00  0.00    +0.005 A 
ATOM     29  C   UNL     1      22.366  71.918  44.429  0.00  0.00    +0.013 A 
BRANCH  18  19
ATOM     19  C   UNL     1      24.435  73.265  41.437  0.00  0.00    +0.119 C 
BRANCH  19  20
ATOM     20  N   UNL     1      24.244  74.288  40.366  0.00  0.00    -0.302 NA
ATOM     21  C   UNL     1      25.075  73.975  39.119  0.00  0.00    +0.066 C 
ATOM     22  C   UNL     1      24.847  75.043  38.000  0.00  0.00    -0.064 C 
ATOM     23  N   UNL     1      25.189  76.430  38.545  0.00  0.00    +0.379 N 
ATOM     24  C   UNL     1      25.030  77.429  37.478  0.00  0.00    -0.096 C 
ATOM     25  H   UNL     1      26.263  76.421  38.843  0.00  0.00    -0.082 HD
ATOM     26  C   UNL     1      24.369  76.748  39.787  0.00  0.00    -0.064 C 
ATOM     27  C   UNL     1      24.581  75.665  40.881  0.00  0.00    +0.066 C 
ENDBRANCH  19  20
ENDBRANCH  18  19
ENDBRANCH  14  15
ENDBRANCH  12  13
TORSDOF 6
ENDMDL
MODEL 4
REMARK VINA RESULT:      -8.7     22.887     26.048
REMARK  Name = C:\Users\Docking\Desktop\test protocol\1iep_ligandH.pdb
REMARK  8 active torsions:
REMARK  status: ('A' for Active; 'I' for Inactive)
REMARK    1  A    between atoms: _5  and  _11
REMARK    2  A    between atoms: _19  and  _21
REMARK    3  A    between atoms: _22  and  _66
REMARK    4  A    between atoms: _27  and  _30
REMARK    5  A    between atoms: _32  and  _33
REMARK    6  A    between atoms: _38  and  _43
REMARK    7  A    between atoms: _43  and  _46
REMARK    8  A    between atoms: _53  and  _55
REMARK                            x       y       z     vdW  Elec       q    Type
REMARK                         _______ _______ _______ _____ _____    ______ ____
ROOT
ATOM     10  C   UNL     1      32.490  99.038  55.241  0.00  0.00    +0.038 A 
ATOM     11  C   UNL     1      32.156  97.660  55.236  0.00  0.00    +0.047 A 
ATOM     12  C   UNL     1      30.774  97.221  55.126  0.00  0.00    +0.035 A 
ATOM     32  C   UNL     1      29.756  98.214  55.020  0.00  0.00    +0.024 A 
ATOM     33  C   UNL     1      30.078  99.619  55.025  0.00  0.00    +0.007 A 
ATOM     34  C   UNL     1      31.440 100.058  55.135  0.00  0.00    -0.029 A 
ATOM     35  C   UNL     1      31.726 101.578  55.141  0.00  0.00    +0.045 C 
ENDROOT
BRANCH  10   9
ATOM      4  C   UNL     1      36.285 100.514  57.783  0.00  0.00    +0.077 A 
ATOM      5  C   UNL     1      35.518 100.591  58.994  0.00  0.00    +0.048 A 
ATOM      6  C   UNL     1      34.150 100.248  58.918  0.00  0.00    +0.116 A 
ATOM      7  N   UNL     1      33.599  99.860  57.716  0.00  0.00    -0.223 NA
ATOM      8  C   UNL     1      34.366  99.799  56.567  0.00  0.00    +0.220 A 
ATOM      9  N   UNL     1      33.834  99.403  55.349  0.00  0.00    -0.283 N 
ATOM     36  H   UNL     1      34.431  99.378  54.523  0.00  0.00    +0.155 HD
ATOM     37  N   UNL     1      35.675 100.122  56.613  0.00  0.00    -0.214 NA
BRANCH   4   3
ATOM      1  C   UNL     1      40.010 100.698  56.604  0.00  0.00    +0.020 A 
ATOM      2  C   UNL     1      38.607 100.352  56.635  0.00  0.00    +0.013 A 
ATOM      3  C   UNL     1      37.743 100.841  57.703  0.00  0.00    +0.019 A 
ATOM     38  C   UNL     1      38.335 101.685  58.730  0.00  0.00    +0.120 A 
ATOM     39  N   UNL     1      39.689 102.000  58.675  0.00  0.00    -0.263 NA
ATOM     40  C   UNL     1      40.530 101.534  57.653  0.00  0.00    +0.111 A 
ENDBRANCH   4   3
ENDBRANCH  10   9
BRANCH  12  13
ATOM     13  N   UNL     1      30.374  95.836  55.124  0.00  0.00    -0.281 N 
ATOM     14  C   UNL     1      31.001  94.769  54.502  0.00  0.00    +0.248 C 
ATOM     30  O   UNL     1      31.889  94.879  53.670  0.00  0.00    -0.270 OA
ATOM     31  H   UNL     1      29.525  95.615  55.645  0.00  0.00    +0.155 HD
BRANCH  14  15
ATOM     15  C   UNL     1      30.569  93.379  54.841  0.00  0.00    +0.037 A 
ATOM     16  C   UNL     1      29.173  93.076  55.169  0.00  0.00    +0.013 A 
ATOM     17  C   UNL     1      28.787  91.729  55.510  0.00  0.00    +0.005 A 
ATOM     18  C   UNL     1      29.798  90.676  55.523  0.00  0.00    -0.033 A 
ATOM     28  C   UNL     1      31.174  91.003  55.189  0.00  0.00    +0.005 A 
ATOM     29  C   UNL     1      31.557  92.322  54.856  0.00  0.00    +0.013 A 
BRANCH  18  19
ATOM     19  C   UNL     1      29.480  89.215  55.896  0.00  0.00    +0.119 C 
BRANCH  19  20
ATOM     20  N   UNL     1      28.105  88.717  55.593  0.00  0.00    -0.302 NA
ATOM     21  C   UNL     1      27.792  87.412  56.331  0.00  0.00    +0.066 C 
ATOM     22  C   UNL     1      26.341  86.917  56.021  0.00  0.00    -0.064 C 
ATOM     23  N   UNL     1      26.179  86.738  54.511  0.00  0.00    +0.379 N 
ATOM     24  C   UNL     1      24.835  86.217  54.221  0.00  0.00    -0.096 C 
ATOM     25  H   UNL     1      26.918  85.971  54.180  0.00  0.00    -0.082 HD
ATOM     26  C   UNL     1      26.491  88.030  53.769  0.00  0.00    -0.064 C 
ATOM     27  C   UNL     1      27.924  88.529  54.107  0.00  0.00    +0.066 C 
ENDBRANCH  19  20
ENDBRANCH  18  19
ENDBRANCH  14  15
ENDBRANCH  12  13
TORSDOF 6
ENDMDL
MODEL 5
REMARK VINA RESULT:      -8.7     25.531     28.938
REMARK  Name = C:\Users\Docking\Desktop\test protocol\1iep_ligandH.pdb
REMARK  8 active torsions:
REMARK  status: ('A' for Active; 'I' for Inactive)
REMARK    1  A    between atoms: _5  and  _11
REMARK    2  A    between atoms: _19  and  _21
REMARK    3  A    between atoms: _22  and  _66
REMARK    4  A    between atoms: _27  and  _30
REMARK    5  A    between atoms: _32  and  _33
REMARK    6  A    between atoms: _38  and  _43
REMARK    7  A    between atoms: _43  and  _46
REMARK    8  A    between atoms: _53  and  _55
REMARK                            x       y       z     vdW  Elec       q    Type
REMARK                         _______ _______ _______ _____ _____    ______ ____
ROOT
ATOM     10  C   UNL     1      32.430  98.332  56.216  0.00  0.00    +0.038 A 
ATOM     11  C   UNL     1      33.821  98.596  56.298  0.00  0.00    +0.047 A 
ATOM     12  C   UNL     1      34.342  99.945  56.134  0.00  0.00    +0.035 A 
ATOM     32  C   UNL     1      33.417 101.002  55.891  0.00  0.00    +0.024 A 
ATOM     33  C   UNL     1      32.000 100.751  55.804  0.00  0.00    +0.007 A 
ATOM     34  C   UNL     1      31.480  99.423  55.962  0.00  0.00    -0.029 A 
ATOM     35  C   UNL     1      29.952  99.211  55.852  0.00  0.00    +0.045 C 
ENDROOT
BRANCH  10   9
ATOM      4  C   UNL     1      31.023  94.089  54.468  0.00  0.00    +0.077 A 
ATOM      5  C   UNL     1      31.161  94.536  53.112  0.00  0.00    +0.048 A 
ATOM      6  C   UNL     1      31.589  95.866  52.907  0.00  0.00    +0.116 A 
ATOM      7  N   UNL     1      31.858  96.681  53.986  0.00  0.00    -0.223 NA
ATOM      8  C   UNL     1      31.713  96.220  55.281  0.00  0.00    +0.220 A 
ATOM      9  N   UNL     1      31.985  97.019  56.381  0.00  0.00    -0.283 N 
ATOM     36  H   UNL     1      31.858  96.644  57.320  0.00  0.00    +0.155 HD
ATOM     37  N   UNL     1      31.303  94.953  55.503  0.00  0.00    -0.214 NA
BRANCH   4   3
ATOM      1  C   UNL     1      30.950  90.467  55.944  0.00  0.00    +0.020 A 
ATOM      2  C   UNL     1      31.423  91.789  55.603  0.00  0.00    +0.013 A 
ATOM      3  C   UNL     1      30.583  92.709  54.847  0.00  0.00    +0.019 A 
ATOM     38  C   UNL     1      29.258  92.258  54.448  0.00  0.00    +0.120 A 
ATOM     39  N   UNL     1      28.830  90.979  54.789  0.00  0.00    -0.263 NA
ATOM     40  C   UNL     1      29.630  90.084  55.515  0.00  0.00    +0.111 A 
ENDBRANCH   4   3
ENDBRANCH  10   9
BRANCH  12  13
ATOM     13  N   UNL     1      35.745 100.272  56.199  0.00  0.00    -0.281 N 
ATOM     14  C   UNL     1      36.452 100.778  57.277  0.00  0.00    +0.248 C 
ATOM     30  O   UNL     1      35.939 101.229  58.290  0.00  0.00    -0.270 OA
ATOM     31  H   UNL     1      36.281 100.111  55.346  0.00  0.00    +0.155 HD
BRANCH  14  15
ATOM     15  C   UNL     1      37.945 100.799  57.214  0.00  0.00    +0.037 A 
ATOM     16  C   UNL     1      38.737 101.524  58.211  0.00  0.00    +0.013 A 
ATOM     17  C   UNL     1      40.176 101.543  58.118  0.00  0.00    +0.005 A 
ATOM     18  C   UNL     1      40.832 100.832  57.023  0.00  0.00    -0.033 A 
ATOM     28  C   UNL     1      40.022 100.117  56.051  0.00  0.00    +0.005 A 
ATOM     29  C   UNL     1      38.612 100.097  56.139  0.00  0.00    +0.013 A 
BRANCH  18  19
ATOM     19  C   UNL     1      42.360 100.816  56.834  0.00  0.00    +0.119 C 
BRANCH  19  20
ATOM     20  N   UNL     1      43.053  99.500  56.976  0.00  0.00    -0.302 NA
ATOM     21  C   UNL     1      42.841  98.604  55.753  0.00  0.00    +0.066 C 
ATOM     22  C   UNL     1      43.591  97.241  55.910  0.00  0.00    -0.064 C 
ATOM     23  N   UNL     1      43.112  96.542  57.183  0.00  0.00    +0.379 N 
ATOM     24  C   UNL     1      43.773  95.234  57.302  0.00  0.00    -0.096 C 
ATOM     25  H   UNL     1      42.017  96.360  57.077  0.00  0.00    -0.082 HD
ATOM     26  C   UNL     1      43.316  97.427  58.404  0.00  0.00    -0.064 C 
ATOM     27  C   UNL     1      42.591  98.791  58.225  0.00  0.00    +0.066 C 
ENDBRANCH  19  20
ENDBRANCH  18  19
ENDBRANCH  14  15
ENDBRANCH  12  13
TORSDOF 6
ENDMDL
