MODEL 1
REMARK VINA RESULT:      -9.5      0.000      0.000
REMARK  Name = C:\Users\Docking\Desktop\test protocol\1iep_ligandH.pdb
REMARK  8 active torsions:
REMARK  status: ('A' for Active; 'I' for Inactive)
REMARK    1  A    between atoms: _5  and  _11
REMARK    2  A    between atoms: _19  and  _21
REMARK    3  A    between atoms: _22  and  _66
REMARK    4  A    between atoms: _27  and  _30
REMARK    5  A    between atoms: _32  and  _33
REMARK    6  A    between atoms: _38  and  _43
REMARK    7  A    between atoms: _43  and  _46
REMARK    8  A    between atoms: _53  and  _55
REMARK                            x       y       z     vdW  Elec       q    Type
REMARK                         _______ _______ _______ _____ _____    ______ ____
ROOT
ATOM     10  C   UNL     1      17.571  76.491  61.033  0.00  0.00    +0.038 A 
ATOM     11  C   UNL     1      17.419  77.212  62.245  0.00  0.00    +0.047 A 
ATOM     12  C   UNL     1      16.124  77.320  62.898  0.00  0.00    +0.035 A 
ATOM     32  C   UNL     1      15.005  76.680  62.290  0.00  0.00    +0.024 A 
ATOM     33  C   UNL     1      15.141  75.944  61.058  0.00  0.00    +0.007 A 
ATOM     34  C   UNL     1      16.416  75.836  60.408  0.00  0.00    -0.029 A 
ATOM     35  C   UNL     1      16.502  75.040  59.085  0.00  0.00    +0.045 C 
ENDROOT
BRANCH  10   9
ATOM      4  C   UNL     1      22.030  74.729  60.798  0.00  0.00    +0.077 A 
ATOM      5  C   UNL     1      21.827  73.902  61.952  0.00  0.00    +0.048 A 
ATOM      6  C   UNL     1      20.564  73.964  62.582  0.00  0.00    +0.116 A 
ATOM      7  N   UNL     1      19.583  74.796  62.085  0.00  0.00    -0.223 NA
ATOM      8  C   UNL     1      19.812  75.581  60.970  0.00  0.00    +0.220 A 
ATOM      9  N   UNL     1      18.838  76.419  60.449  0.00  0.00    -0.283 N 
ATOM     36  H   UNL     1      19.048  76.988  59.629  0.00  0.00    +0.155 HD
ATOM     37  N   UNL     1      21.011  75.541  60.352  0.00  0.00    -0.214 NA
BRANCH   4   3
ATOM      1  C   UNL     1      24.752  75.616  58.132  0.00  0.00    +0.020 A 
ATOM      2  C   UNL     1      23.496  75.612  58.846  0.00  0.00    +0.013 A 
ATOM      3  C   UNL     1      23.309  74.771  60.021  0.00  0.00    +0.019 A 
ATOM     38  C   UNL     1      24.422  73.938  60.452  0.00  0.00    +0.120 A 
ATOM     39  N   UNL     1      25.620  73.962  59.744  0.00  0.00    -0.263 NA
ATOM     40  C   UNL     1      25.810  74.767  58.610  0.00  0.00    +0.111 A 
ENDBRANCH   4   3
ENDBRANCH  10   9
BRANCH  12  13
ATOM     13  N   UNL     1      15.907  78.045  64.126  0.00  0.00    -0.281 N 
ATOM     14  C   UNL     1      15.881  79.418  64.311  0.00  0.00    +0.248 C 
ATOM     30  O   UNL     1      16.254  80.234  63.481  0.00  0.00    -0.270 OA
ATOM     31  H   UNL     1      15.755  77.478  64.959  0.00  0.00    +0.155 HD
BRANCH  14  15
ATOM     15  C   UNL     1      15.382  79.962  65.610  0.00  0.00    +0.037 A 
ATOM     16  C   UNL     1      14.586  79.138  66.523  0.00  0.00    +0.013 A 
ATOM     17  C   UNL     1      14.102  79.693  67.762  0.00  0.00    +0.005 A 
ATOM     18  C   UNL     1      14.414  81.080  68.096  0.00  0.00    -0.033 A 
ATOM     28  C   UNL     1      15.210  81.874  67.175  0.00  0.00    +0.005 A 
ATOM     29  C   UNL     1      15.685  81.334  65.958  0.00  0.00    +0.013 A 
BRANCH  18  19
ATOM     19  C   UNL     1      13.922  81.761  69.387  0.00  0.00    +0.119 C 
BRANCH  19  20
ATOM     20  N   UNL     1      14.740  82.892  69.918  0.00  0.00    -0.302 NA
ATOM     21  C   UNL     1      15.874  82.405  70.824  0.00  0.00    +0.066 C 
ATOM     22  C   UNL     1      16.733  83.599  71.353  0.00  0.00    -0.064 C 
ATOM     23  N   UNL     1      15.829  84.583  72.098  0.00  0.00    +0.379 N 
ATOM     24  C   UNL     1      16.643  85.678  72.647  0.00  0.00    -0.096 C 
ATOM     25  H   UNL     1      15.372  84.039  72.957  0.00  0.00    -0.082 HD
ATOM     26  C   UNL     1      14.697  85.071  71.205  0.00  0.00    -0.064 C 
ATOM     27  C   UNL     1      13.868  83.874  70.661  0.00  0.00    +0.066 C 
ENDBRANCH  19  20
ENDBRANCH  18  19
ENDBRANCH  14  15
ENDBRANCH  12  13
TORSDOF 6
ENDMDL
MODEL 2
REMARK VINA RESULT:      -8.9     13.913     21.829
REMARK  Name = C:\Users\Docking\Desktop\test protocol\1iep_ligandH.pdb
REMARK  8 active torsions:
REMARK  status: ('A' for Active; 'I' for Inactive)
REMARK    1  A    between atoms: _5  and  _11
REMARK    2  A    between atoms: _19  and  _21
REMARK    3  A    between atoms: _22  and  _66
REMARK    4  A    between atoms: _27  and  _30
REMARK    5  A    between atoms: _32  and  _33
REMARK    6  A    between atoms: _38  and  _43
REMARK    7  A    between atoms: _43  and  _46
REMARK    8  A    between atoms: _53  and  _55
REMARK                            x       y       z     vdW  Elec       q    Type
REMARK                         _______ _______ _______ _____ _____    ______ ____
ROOT
ATOM     10  C   UNL     1      16.536  72.695  48.255  0.00  0.00    +0.038 A 
ATOM     11  C   UNL     1      17.795  72.878  47.629  0.00  0.00    +0.047 A 
ATOM     12  C   UNL     1      18.030  72.429  46.266  0.00  0.00    +0.035 A 
ATOM     32  C   UNL     1      16.958  71.800  45.567  0.00  0.00    +0.024 A 
ATOM     33  C   UNL     1      15.672  71.606  46.189  0.00  0.00    +0.007 A 
ATOM     34  C   UNL     1      15.435  72.044  47.534  0.00  0.00    -0.029 A 
ATOM     35  C   UNL     1      14.038  71.804  48.152  0.00  0.00    +0.045 C 
ENDROOT
BRANCH  10   9
ATOM      4  C   UNL     1      16.898  72.126  53.007  0.00  0.00    +0.077 A 
ATOM      5  C   UNL     1      17.448  70.808  52.866  0.00  0.00    +0.048 A 
ATOM      6  C   UNL     1      17.615  70.311  51.554  0.00  0.00    +0.116 A 
ATOM      7  N   UNL     1      17.255  71.083  50.471  0.00  0.00    -0.223 NA
ATOM      8  C   UNL     1      16.726  72.349  50.641  0.00  0.00    +0.220 A 
ATOM      9  N   UNL     1      16.365  73.146  49.566  0.00  0.00    -0.283 N 
ATOM     36  H   UNL     1      15.972  74.071  49.734  0.00  0.00    +0.155 HD
ATOM     37  N   UNL     1      16.556  72.846  51.884  0.00  0.00    -0.214 NA
BRANCH   4   3
ATOM      1  C   UNL     1      16.134  72.740  56.794  0.00  0.00    +0.020 A 
ATOM      2  C   UNL     1      16.350  72.050  55.543  0.00  0.00    +0.013 A 
ATOM      3  C   UNL     1      16.664  72.791  54.328  0.00  0.00    +0.019 A 
ATOM     38  C   UNL     1      16.753  74.240  54.413  0.00  0.00    +0.120 A 
ATOM     39  N   UNL     1      16.538  74.878  55.630  0.00  0.00    -0.263 NA
ATOM     40  C   UNL     1      16.234  74.176  56.806  0.00  0.00    +0.111 A 
ENDBRANCH   4   3
ENDBRANCH  10   9
BRANCH  12  13
ATOM     13  N   UNL     1      19.290  72.579  45.581  0.00  0.00    -0.281 N 
ATOM     14  C   UNL     1      19.963  71.639  44.818  0.00  0.00    +0.248 C 
ATOM     30  O   UNL     1      19.685  70.449  44.785  0.00  0.00    -0.270 OA
ATOM     31  H   UNL     1      19.741  73.490  45.670  0.00  0.00    +0.155 HD
BRANCH  14  15
ATOM     15  C   UNL     1      21.121  72.081  43.983  0.00  0.00    +0.037 A 
ATOM     16  C   UNL     1      22.498  71.953  44.466  0.00  0.00    +0.013 A 
ATOM     17  C   UNL     1      23.596  72.403  43.647  0.00  0.00    +0.005 A 
ATOM     18  C   UNL     1      23.320  72.984  42.335  0.00  0.00    -0.033 A 
ATOM     28  C   UNL     1      21.945  73.094  41.879  0.00  0.00    +0.005 A 
ATOM     29  C   UNL     1      20.866  72.655  42.679  0.00  0.00    +0.013 A 
BRANCH  18  19
ATOM     19  C   UNL     1      24.428  73.510  41.404  0.00  0.00    +0.119 C 
BRANCH  19  20
ATOM     20  N   UNL     1      24.042  74.545  40.399  0.00  0.00    -0.302 NA
ATOM     21  C   UNL     1      24.482  74.163  38.983  0.00  0.00    +0.066 C 
ATOM     22  C   UNL     1      24.051  75.246  37.941  0.00  0.00    -0.064 C 
ATOM     23  N   UNL     1      24.638  76.600  38.344  0.00  0.00    +0.379 N 
ATOM     24  C   UNL     1      24.283  77.608  37.335  0.00  0.00    -0.096 C 
ATOM     25  H   UNL     1      25.749  76.499  38.345  0.00  0.00    -0.082 HD
ATOM     26  C   UNL     1      24.208  76.986  39.752  0.00  0.00    -0.064 C 
ATOM     27  C   UNL     1      24.616  75.889  40.775  0.00  0.00    +0.066 C 
ENDBRANCH  19  20
ENDBRANCH  18  19
ENDBRANCH  14  15
ENDBRANCH  12  13
TORSDOF 6
ENDMDL
MODEL 3
REMARK VINA RESULT:      -8.7     25.576     28.923
REMARK  Name = C:\Users\Docking\Desktop\test protocol\1iep_ligandH.pdb
REMARK  8 active torsions:
REMARK  status: ('A' for Active; 'I' for Inactive)
REMARK    1  A    between atoms: _5  and  _11
REMARK    2  A    between atoms: _19  and  _21
REMARK    3  A    between atoms: _22  and  _66
REMARK    4  A    between atoms: _27  and  _30
REMARK    5  A    between atoms: _32  and  _33
REMARK    6  A    between atoms: _38  and  _43
REMARK    7  A    between atoms: _43  and  _46
REMARK    8  A    between atoms: _53  and  _55
REMARK                            x       y       z     vdW  Elec       q    Type
REMARK                         _______ _______ _______ _____ _____    ______ ____
ROOT
ATOM     10  C   UNL     1      32.398  98.415  56.280  0.00  0.00    +0.038 A 
ATOM     11  C   UNL     1      33.792  98.667  56.344  0.00  0.00    +0.047 A 
ATOM     12  C   UNL     1      34.321 100.015  56.205  0.00  0.00    +0.035 A 
ATOM     32  C   UNL     1      33.400 101.084  56.005  0.00  0.00    +0.024 A 
ATOM     33  C   UNL     1      31.979 100.847  55.936  0.00  0.00    +0.007 A 
ATOM     34  C   UNL     1      31.452  99.519  56.070  0.00  0.00    -0.029 A 
ATOM     35  C   UNL     1      29.921  99.322  55.982  0.00  0.00    +0.045 C 
ENDROOT
BRANCH  10   9
ATOM      4  C   UNL     1      31.046  94.187  54.455  0.00  0.00    +0.077 A 
ATOM      5  C   UNL     1      31.232  94.643  53.108  0.00  0.00    +0.048 A 
ATOM      6  C   UNL     1      31.669  95.974  52.927  0.00  0.00    +0.116 A 
ATOM      7  N   UNL     1      31.901  96.781  54.020  0.00  0.00    -0.223 NA
ATOM      8  C   UNL     1      31.711  96.310  55.306  0.00  0.00    +0.220 A 
ATOM      9  N   UNL     1      31.945  97.102  56.420  0.00  0.00    -0.283 N 
ATOM     36  H   UNL     1      31.785  96.720  57.353  0.00  0.00    +0.155 HD
ATOM     37  N   UNL     1      31.292  95.043  55.505  0.00  0.00    -0.214 NA
BRANCH   4   3
ATOM      1  C   UNL     1      30.949  90.525  55.826  0.00  0.00    +0.020 A 
ATOM      2  C   UNL     1      31.438  91.847  55.508  0.00  0.00    +0.013 A 
ATOM      3  C   UNL     1      30.591  92.805  54.809  0.00  0.00    +0.019 A 
ATOM     38  C   UNL     1      29.245  92.391  54.443  0.00  0.00    +0.120 A 
ATOM     39  N   UNL     1      28.802  91.111  54.761  0.00  0.00    -0.263 NA
ATOM     40  C   UNL     1      29.609  90.180  55.433  0.00  0.00    +0.111 A 
ENDBRANCH   4   3
ENDBRANCH  10   9
BRANCH  12  13
ATOM     13  N   UNL     1      35.727 100.330  56.253  0.00  0.00    -0.281 N 
ATOM     14  C   UNL     1      36.448 100.848  57.316  0.00  0.00    +0.248 C 
ATOM     30  O   UNL     1      35.947 101.322  58.325  0.00  0.00    -0.270 OA
ATOM     31  H   UNL     1      36.255 100.149  55.399  0.00  0.00    +0.155 HD
BRANCH  14  15
ATOM     15  C   UNL     1      37.940 100.855  57.242  0.00  0.00    +0.037 A 
ATOM     16  C   UNL     1      38.747 101.583  58.224  0.00  0.00    +0.013 A 
ATOM     17  C   UNL     1      40.185 101.587  58.120  0.00  0.00    +0.005 A 
ATOM     18  C   UNL     1      40.825 100.857  57.028  0.00  0.00    -0.033 A 
ATOM     28  C   UNL     1      40.001 100.138  56.071  0.00  0.00    +0.005 A 
ATOM     29  C   UNL     1      38.592 100.133  56.170  0.00  0.00    +0.013 A 
BRANCH  18  19
ATOM     19  C   UNL     1      42.352 100.824  56.827  0.00  0.00    +0.119 C 
BRANCH  19  20
ATOM     20  N   UNL     1      43.028  99.497  56.941  0.00  0.00    -0.302 NA
ATOM     21  C   UNL     1      42.761  98.610  55.722  0.00  0.00    +0.066 C 
ATOM     22  C   UNL     1      43.494  97.235  55.847  0.00  0.00    -0.064 C 
ATOM     23  N   UNL     1      43.046  96.537  57.133  0.00  0.00    +0.379 N 
ATOM     24  C   UNL     1      43.690  95.218  57.225  0.00  0.00    -0.096 C 
ATOM     25  H   UNL     1      41.946  96.372  57.062  0.00  0.00    -0.082 HD
ATOM     26  C   UNL     1      43.305  97.413  58.350  0.00  0.00    -0.064 C 
ATOM     27  C   UNL     1      42.597  98.788  58.202  0.00  0.00    +0.066 C 
ENDBRANCH  19  20
ENDBRANCH  18  19
ENDBRANCH  14  15
ENDBRANCH  12  13
TORSDOF 6
ENDMDL
MODEL 4
REMARK VINA RESULT:      -8.7      7.868     12.356
REMARK  Name = C:\Users\Docking\Desktop\test protocol\1iep_ligandH.pdb
REMARK  8 active torsions:
REMARK  status: ('A' for Active; 'I' for Inactive)
REMARK    1  A    between atoms: _5  and  _11
REMARK    2  A    between atoms: _19  and  _21
REMARK    3  A    between atoms: _22  and  _66
REMARK    4  A    between atoms: _27  and  _30
REMARK    5  A    between atoms: _32  and  _33
REMARK    6  A    between atoms: _38  and  _43
REMARK    7  A    between atoms: _43  and  _46
REMARK    8  A    between atoms: _53  and  _55
REMARK                            x       y       z     vdW  Elec       q    Type
REMARK                         _______ _______ _______ _____ _____    ______ ____
ROOT
ATOM     10  C   UNL     1      14.892  72.576  52.993  0.00  0.00    +0.038 A 
ATOM     11  C   UNL     1      15.668  73.184  54.013  0.00  0.00    +0.047 A 
ATOM     12  C   UNL     1      15.466  72.848  55.414  0.00  0.00    +0.035 A 
ATOM     32  C   UNL     1      14.467  71.885  55.740  0.00  0.00    +0.024 A 
ATOM     33  C   UNL     1      13.669  71.257  54.716  0.00  0.00    +0.007 A 
ATOM     34  C   UNL     1      13.862  71.588  53.333  0.00  0.00    -0.029 A 
ATOM     35  C   UNL     1      12.973  70.888  52.278  0.00  0.00    +0.045 C 
ENDROOT
BRANCH  10   9
ATOM      4  C   UNL     1      17.097  71.976  48.772  0.00  0.00    +0.077 A 
ATOM      5  C   UNL     1      17.862  70.866  49.263  0.00  0.00    +0.048 A 
ATOM      6  C   UNL     1      17.665  70.486  50.610  0.00  0.00    +0.116 A 
ATOM      7  N   UNL     1      16.765  71.172  51.397  0.00  0.00    -0.223 NA
ATOM      8  C   UNL     1      16.044  72.238  50.893  0.00  0.00    +0.220 A 
ATOM      9  N   UNL     1      15.128  72.937  51.665  0.00  0.00    -0.283 N 
ATOM     36  H   UNL     1      14.622  73.723  51.258  0.00  0.00    +0.155 HD
ATOM     37  N   UNL     1      16.216  72.622  49.611  0.00  0.00    -0.214 NA
BRANCH   4   3
ATOM      1  C   UNL     1      16.209  73.004  45.104  0.00  0.00    +0.020 A 
ATOM      2  C   UNL     1      16.064  72.492  46.447  0.00  0.00    +0.013 A 
ATOM      3  C   UNL     1      17.192  72.494  47.371  0.00  0.00    +0.019 A 
ATOM     38  C   UNL     1      18.461  73.028  46.901  0.00  0.00    +0.120 A 
ATOM     39  N   UNL     1      18.571  73.514  45.602  0.00  0.00    -0.263 NA
ATOM     40  C   UNL     1      17.494  73.515  44.704  0.00  0.00    +0.111 A 
ENDBRANCH   4   3
ENDBRANCH  10   9
BRANCH  12  13
ATOM     13  N   UNL     1      16.217  73.439  56.494  0.00  0.00    -0.281 N 
ATOM     14  C   UNL     1      15.750  73.848  57.732  0.00  0.00    +0.248 C 
ATOM     30  O   UNL     1      14.568  73.966  58.020  0.00  0.00    -0.270 OA
ATOM     31  H   UNL     1      17.214  73.571  56.325  0.00  0.00    +0.155 HD
BRANCH  14  15
ATOM     15  C   UNL     1      16.739  74.191  58.799  0.00  0.00    +0.037 A 
ATOM     16  C   UNL     1      17.008  75.584  59.166  0.00  0.00    +0.013 A 
ATOM     17  C   UNL     1      17.979  75.887  60.188  0.00  0.00    +0.005 A 
ATOM     18  C   UNL     1      18.687  74.795  60.850  0.00  0.00    -0.033 A 
ATOM     28  C   UNL     1      18.397  73.422  60.470  0.00  0.00    +0.005 A 
ATOM     29  C   UNL     1      17.446  73.121  59.469  0.00  0.00    +0.013 A 
BRANCH  18  19
ATOM     19  C   UNL     1      19.755  75.026  61.936  0.00  0.00    +0.119 C 
BRANCH  19  20
ATOM     20  N   UNL     1      21.095  74.402  61.722  0.00  0.00    -0.302 NA
ATOM     21  C   UNL     1      21.933  74.388  63.003  0.00  0.00    +0.066 C 
ATOM     22  C   UNL     1      23.323  73.712  62.767  0.00  0.00    -0.064 C 
ATOM     23  N   UNL     1      24.060  74.445  61.645  0.00  0.00    +0.379 N 
ATOM     24  C   UNL     1      25.390  73.848  61.459  0.00  0.00    -0.096 C 
ATOM     25  H   UNL     1      24.205  75.501  61.970  0.00  0.00    -0.082 HD
ATOM     26  C   UNL     1      23.232  74.466  60.368  0.00  0.00    -0.064 C 
ATOM     27  C   UNL     1      21.842  75.114  60.621  0.00  0.00    +0.066 C 
ENDBRANCH  19  20
ENDBRANCH  18  19
ENDBRANCH  14  15
ENDBRANCH  12  13
TORSDOF 6
ENDMDL
MODEL 5
REMARK VINA RESULT:      -8.6     23.245     25.680
REMARK  Name = C:\Users\Docking\Desktop\test protocol\1iep_ligandH.pdb
REMARK  8 active torsions:
REMARK  status: ('A' for Active; 'I' for Inactive)
REMARK    1  A    between atoms: _5  and  _11
REMARK    2  A    between atoms: _19  and  _21
REMARK    3  A    between atoms: _22  and  _66
REMARK    4  A    between atoms: _27  and  _30
REMARK    5  A    between atoms: _32  and  _33
REMARK    6  A    between atoms: _38  and  _43
REMARK    7  A    between atoms: _43  and  _46
REMARK    8  A    between atoms: _53  and  _55
REMARK                            x       y       z     vdW  Elec       q    Type
REMARK                         _______ _______ _______ _____ _____    ______ ____
ROOT
ATOM     10  C   UNL     1      29.781  92.565  54.297  0.00  0.00    +0.038 A 
ATOM     11  C   UNL     1      30.387  93.841  54.425  0.00  0.00    +0.047 A 
ATOM     12  C   UNL     1      31.321  94.126  55.503  0.00  0.00    +0.035 A 
ATOM     32  C   UNL     1      31.619  93.085  56.431  0.00  0.00    +0.024 A 
ATOM     33  C   UNL     1      31.012  91.783  56.316  0.00  0.00    +0.007 A 
ATOM     34  C   UNL     1      30.087  91.497  55.256  0.00  0.00    -0.029 A 
ATOM     35  C   UNL     1      29.462  90.085  55.185  0.00  0.00    +0.045 C 
ENDROOT
BRANCH  10   9
ATOM      4  C   UNL     1      28.244  93.366  49.821  0.00  0.00    +0.077 A 
ATOM      5  C   UNL     1      29.285  94.320  49.571  0.00  0.00    +0.048 A 
ATOM      6  C   UNL     1      30.192  94.582  50.622  0.00  0.00    +0.116 A 
ATOM      7  N   UNL     1      30.058  93.931  51.830  0.00  0.00    -0.223 NA
ATOM      8  C   UNL     1      29.041  93.018  52.039  0.00  0.00    +0.220 A 
ATOM      9  N   UNL     1      28.892  92.347  53.242  0.00  0.00    -0.283 N 
ATOM     36  H   UNL     1      28.124  91.686  53.359  0.00  0.00    +0.155 HD
ATOM     37  N   UNL     1      28.161  92.752  51.051  0.00  0.00    -0.214 NA
BRANCH   4   3
ATOM      1  C   UNL     1      25.748  91.291  47.637  0.00  0.00    +0.020 A 
ATOM      2  C   UNL     1      26.749  91.610  48.630  0.00  0.00    +0.013 A 
ATOM      3  C   UNL     1      27.211  92.981  48.808  0.00  0.00    +0.019 A 
ATOM     38  C   UNL     1      26.635  94.014  47.960  0.00  0.00    +0.120 A 
ATOM     39  N   UNL     1      25.674  93.677  47.012  0.00  0.00    -0.263 NA
ATOM     40  C   UNL     1      25.223  92.361  46.830  0.00  0.00    +0.111 A 
ENDBRANCH   4   3
ENDBRANCH  10   9
BRANCH  12  13
ATOM     13  N   UNL     1      31.960  95.405  55.689  0.00  0.00    -0.281 N 
ATOM     14  C   UNL     1      31.361  96.628  55.941  0.00  0.00    +0.248 C 
ATOM     30  O   UNL     1      30.163  96.846  55.832  0.00  0.00    -0.270 OA
ATOM     31  H   UNL     1      32.978  95.409  55.628  0.00  0.00    +0.155 HD
BRANCH  14  15
ATOM     15  C   UNL     1      32.217  97.779  56.360  0.00  0.00    +0.037 A 
ATOM     16  C   UNL     1      31.896  98.571  57.551  0.00  0.00    +0.013 A 
ATOM     17  C   UNL     1      32.728  99.686  57.924  0.00  0.00    +0.005 A 
ATOM     18  C   UNL     1      33.893 100.016  57.105  0.00  0.00    -0.033 A 
ATOM     28  C   UNL     1      34.191  99.211  55.932  0.00  0.00    +0.005 A 
ATOM     29  C   UNL     1      33.376  98.117  55.563  0.00  0.00    +0.013 A 
BRANCH  18  19
ATOM     19  C   UNL     1      34.825 101.202  57.415  0.00  0.00    +0.119 C 
BRANCH  19  20
ATOM     20  N   UNL     1      34.792 102.362  56.475  0.00  0.00    -0.302 NA
ATOM     21  C   UNL     1      33.428 102.512  55.795  0.00  0.00    +0.066 C 
ATOM     22  C   UNL     1      33.404 103.744  54.833  0.00  0.00    -0.064 C 
ATOM     23  N   UNL     1      34.515 103.595  53.792  0.00  0.00    +0.379 N 
ATOM     24  C   UNL     1      34.459 104.723  52.850  0.00  0.00    -0.096 C 
ATOM     25  H   UNL     1      34.316 102.662  53.215  0.00  0.00    -0.082 HD
ATOM     26  C   UNL     1      35.874 103.443  54.460  0.00  0.00    -0.064 C 
ATOM     27  C   UNL     1      35.878 102.234  55.436  0.00  0.00    +0.066 C 
ENDBRANCH  19  20
ENDBRANCH  18  19
ENDBRANCH  14  15
ENDBRANCH  12  13
TORSDOF 6
ENDMDL
