MODEL 1
REMARK VINA RESULT:      -9.4      0.000      0.000
REMARK  Name = C:\Users\Docking\Desktop\test protocol\1iep_ligandH.pdb
REMARK  8 active torsions:
REMARK  status: ('A' for Active; 'I' for Inactive)
REMARK    1  A    between atoms: _5  and  _11
REMARK    2  A    between atoms: _19  and  _21
REMARK    3  A    between atoms: _22  and  _66
REMARK    4  A    between atoms: _27  and  _30
REMARK    5  A    between atoms: _32  and  _33
REMARK    6  A    between atoms: _38  and  _43
REMARK    7  A    between atoms: _43  and  _46
REMARK    8  A    between atoms: _53  and  _55
REMARK                            x       y       z     vdW  Elec       q    Type
REMARK                         _______ _______ _______ _____ _____    ______ ____
ROOT
ATOM     10  C   UNL     1      17.577  76.732  61.033  0.00  0.00    +0.038 A 
ATOM     11  C   UNL     1      17.422  77.445  62.249  0.00  0.00    +0.047 A 
ATOM     12  C   UNL     1      16.119  77.586  62.879  0.00  0.00    +0.035 A 
ATOM     32  C   UNL     1      14.993  76.986  62.243  0.00  0.00    +0.024 A 
ATOM     33  C   UNL     1      15.132  76.258  61.006  0.00  0.00    +0.007 A 
ATOM     34  C   UNL     1      16.415  76.118  60.379  0.00  0.00    -0.029 A 
ATOM     35  C   UNL     1      16.503  75.333  59.050  0.00  0.00    +0.045 C 
ENDROOT
BRANCH  10   9
ATOM      4  C   UNL     1      21.969  74.806  60.836  0.00  0.00    +0.077 A 
ATOM      5  C   UNL     1      21.710  73.955  61.962  0.00  0.00    +0.048 A 
ATOM      6  C   UNL     1      20.437  74.049  62.567  0.00  0.00    +0.116 A 
ATOM      7  N   UNL     1      19.500  74.931  62.075  0.00  0.00    -0.223 NA
ATOM      8  C   UNL     1      19.782  75.739  60.989  0.00  0.00    +0.220 A 
ATOM      9  N   UNL     1      18.852  76.628  60.472  0.00  0.00    -0.283 N 
ATOM     36  H   UNL     1      19.101  77.211  59.675  0.00  0.00    +0.155 HD
ATOM     37  N   UNL     1      20.991  75.669  60.394  0.00  0.00    -0.214 NA
BRANCH   4   3
ATOM      1  C   UNL     1      24.752  75.604  58.205  0.00  0.00    +0.020 A 
ATOM      2  C   UNL     1      23.480  75.626  58.891  0.00  0.00    +0.013 A 
ATOM      3  C   UNL     1      23.265  74.821  60.087  0.00  0.00    +0.019 A 
ATOM     38  C   UNL     1      24.366  73.999  60.567  0.00  0.00    +0.120 A 
ATOM     39  N   UNL     1      25.579  73.997  59.885  0.00  0.00    -0.263 NA
ATOM     40  C   UNL     1      25.797  74.767  58.732  0.00  0.00    +0.111 A 
ENDBRANCH   4   3
ENDBRANCH  10   9
BRANCH  12  13
ATOM     13  N   UNL     1      15.900  78.305  64.109  0.00  0.00    -0.281 N 
ATOM     14  C   UNL     1      15.855  79.677  64.297  0.00  0.00    +0.248 C 
ATOM     30  O   UNL     1      16.211  80.501  63.467  0.00  0.00    -0.270 OA
ATOM     31  H   UNL     1      15.761  77.734  64.942  0.00  0.00    +0.155 HD
BRANCH  14  15
ATOM     15  C   UNL     1      15.356  80.211  65.601  0.00  0.00    +0.037 A 
ATOM     16  C   UNL     1      15.959  81.396  66.217  0.00  0.00    +0.013 A 
ATOM     17  C   UNL     1      15.470  81.880  67.484  0.00  0.00    +0.005 A 
ATOM     18  C   UNL     1      14.370  81.179  68.142  0.00  0.00    -0.033 A 
ATOM     28  C   UNL     1      13.787  80.010  67.506  0.00  0.00    +0.005 A 
ATOM     29  C   UNL     1      14.265  79.532  66.265  0.00  0.00    +0.013 A 
BRANCH  18  19
ATOM     19  C   UNL     1      13.799  81.613  69.505  0.00  0.00    +0.119 C 
BRANCH  19  20
ATOM     20  N   UNL     1      14.433  82.790  70.169  0.00  0.00    -0.302 NA
ATOM     21  C   UNL     1      15.341  82.375  71.330  0.00  0.00    +0.066 C 
ATOM     22  C   UNL     1      16.015  83.617  71.999  0.00  0.00    -0.064 C 
ATOM     23  N   UNL     1      14.931  84.585  72.479  0.00  0.00    +0.379 N 
ATOM     24  C   UNL     1      15.559  85.726  73.160  0.00  0.00    -0.096 C 
ATOM     25  H   UNL     1      14.305  84.046  73.228  0.00  0.00    -0.082 HD
ATOM     26  C   UNL     1      14.022  85.001  71.331  0.00  0.00    -0.064 C 
ATOM     27  C   UNL     1      13.381  83.757  70.655  0.00  0.00    +0.066 C 
ENDBRANCH  19  20
ENDBRANCH  18  19
ENDBRANCH  14  15
ENDBRANCH  12  13
TORSDOF 6
ENDMDL
MODEL 2
REMARK VINA RESULT:      -8.8     13.942     21.935
REMARK  Name = C:\Users\Docking\Desktop\test protocol\1iep_ligandH.pdb
REMARK  8 active torsions:
REMARK  status: ('A' for Active; 'I' for Inactive)
REMARK    1  A    between atoms: _5  and  _11
REMARK    2  A    between atoms: _19  and  _21
REMARK    3  A    between atoms: _22  and  _66
REMARK    4  A    between atoms: _27  and  _30
REMARK    5  A    between atoms: _32  and  _33
REMARK    6  A    between atoms: _38  and  _43
REMARK    7  A    between atoms: _43  and  _46
REMARK    8  A    between atoms: _53  and  _55
REMARK                            x       y       z     vdW  Elec       q    Type
REMARK                         _______ _______ _______ _____ _____    ______ ____
ROOT
ATOM     10  C   UNL     1      16.428  72.653  48.334  0.00  0.00    +0.038 A 
ATOM     11  C   UNL     1      17.682  72.847  47.701  0.00  0.00    +0.047 A 
ATOM     12  C   UNL     1      17.914  72.400  46.336  0.00  0.00    +0.035 A 
ATOM     32  C   UNL     1      16.844  71.760  45.645  0.00  0.00    +0.024 A 
ATOM     33  C   UNL     1      15.563  71.553  46.273  0.00  0.00    +0.007 A 
ATOM     34  C   UNL     1      15.330  71.990  47.620  0.00  0.00    -0.029 A 
ATOM     35  C   UNL     1      13.938  71.736  48.246  0.00  0.00    +0.045 C 
ENDROOT
BRANCH  10   9
ATOM      4  C   UNL     1      16.860  72.107  53.083  0.00  0.00    +0.077 A 
ATOM      5  C   UNL     1      17.444  70.805  52.940  0.00  0.00    +0.048 A 
ATOM      6  C   UNL     1      17.610  70.309  51.627  0.00  0.00    +0.116 A 
ATOM      7  N   UNL     1      17.217  71.067  50.546  0.00  0.00    -0.223 NA
ATOM      8  C   UNL     1      16.655  72.319  50.719  0.00  0.00    +0.220 A 
ATOM      9  N   UNL     1      16.260  73.102  49.646  0.00  0.00    -0.283 N 
ATOM     36  H   UNL     1      15.843  74.017  49.816  0.00  0.00    +0.155 HD
ATOM     37  N   UNL     1      16.485  72.814  51.962  0.00  0.00    -0.214 NA
BRANCH   4   3
ATOM      1  C   UNL     1      16.466  74.802  55.891  0.00  0.00    +0.020 A 
ATOM      2  C   UNL     1      16.704  74.212  54.593  0.00  0.00    +0.013 A 
ATOM      3  C   UNL     1      16.623  72.769  54.405  0.00  0.00    +0.019 A 
ATOM     38  C   UNL     1      16.296  71.944  55.558  0.00  0.00    +0.120 A 
ATOM     39  N   UNL     1      16.073  72.540  56.795  0.00  0.00    -0.263 NA
ATOM     40  C   UNL     1      16.150  73.927  56.990  0.00  0.00    +0.111 A 
ENDBRANCH   4   3
ENDBRANCH  10   9
BRANCH  12  13
ATOM     13  N   UNL     1      19.168  72.563  45.645  0.00  0.00    -0.281 N 
ATOM     14  C   UNL     1      19.874  71.612  44.925  0.00  0.00    +0.248 C 
ATOM     30  O   UNL     1      19.637  70.414  44.946  0.00  0.00    -0.270 OA
ATOM     31  H   UNL     1      19.587  73.492  45.692  0.00  0.00    +0.155 HD
BRANCH  14  15
ATOM     15  C   UNL     1      21.017  72.056  44.070  0.00  0.00    +0.037 A 
ATOM     16  C   UNL     1      22.403  71.919  44.524  0.00  0.00    +0.013 A 
ATOM     17  C   UNL     1      23.486  72.370  43.686  0.00  0.00    +0.005 A 
ATOM     18  C   UNL     1      23.186  72.962  42.384  0.00  0.00    -0.033 A 
ATOM     28  C   UNL     1      21.802  73.081  41.957  0.00  0.00    +0.005 A 
ATOM     29  C   UNL     1      20.738  72.641  42.776  0.00  0.00    +0.013 A 
BRANCH  18  19
ATOM     19  C   UNL     1      24.277  73.490  41.434  0.00  0.00    +0.119 C 
BRANCH  19  20
ATOM     20  N   UNL     1      23.886  74.567  40.476  0.00  0.00    -0.302 NA
ATOM     21  C   UNL     1      24.133  74.159  39.021  0.00  0.00    +0.066 C 
ATOM     22  C   UNL     1      23.698  75.288  38.031  0.00  0.00    -0.064 C 
ATOM     23  N   UNL     1      24.452  76.575  38.368  0.00  0.00    +0.379 N 
ATOM     24  C   UNL     1      24.089  77.623  37.403  0.00  0.00    -0.096 C 
ATOM     25  H   UNL     1      25.541  76.369  38.249  0.00  0.00    -0.082 HD
ATOM     26  C   UNL     1      24.215  76.987  39.814  0.00  0.00    -0.064 C 
ATOM     27  C   UNL     1      24.623  75.847  40.787  0.00  0.00    +0.066 C 
ENDBRANCH  19  20
ENDBRANCH  18  19
ENDBRANCH  14  15
ENDBRANCH  12  13
TORSDOF 6
ENDMDL
MODEL 3
REMARK VINA RESULT:      -8.7     25.551     28.953
REMARK  Name = C:\Users\Docking\Desktop\test protocol\1iep_ligandH.pdb
REMARK  8 active torsions:
REMARK  status: ('A' for Active; 'I' for Inactive)
REMARK    1  A    between atoms: _5  and  _11
REMARK    2  A    between atoms: _19  and  _21
REMARK    3  A    between atoms: _22  and  _66
REMARK    4  A    between atoms: _27  and  _30
REMARK    5  A    between atoms: _32  and  _33
REMARK    6  A    between atoms: _38  and  _43
REMARK    7  A    between atoms: _43  and  _46
REMARK    8  A    between atoms: _53  and  _55
REMARK                            x       y       z     vdW  Elec       q    Type
REMARK                         _______ _______ _______ _____ _____    ______ ____
ROOT
ATOM     10  C   UNL     1      32.306  98.421  56.126  0.00  0.00    +0.038 A 
ATOM     11  C   UNL     1      33.692  98.693  56.244  0.00  0.00    +0.047 A 
ATOM     12  C   UNL     1      34.211 100.042  56.077  0.00  0.00    +0.035 A 
ATOM     32  C   UNL     1      33.288 101.091  55.793  0.00  0.00    +0.024 A 
ATOM     33  C   UNL     1      31.875 100.831  55.669  0.00  0.00    +0.007 A 
ATOM     34  C   UNL     1      31.358  99.502  55.830  0.00  0.00    -0.029 A 
ATOM     35  C   UNL     1      29.835  99.282  55.679  0.00  0.00    +0.045 C 
ENDROOT
BRANCH  10   9
ATOM      4  C   UNL     1      31.001  94.138  54.397  0.00  0.00    +0.077 A 
ATOM      5  C   UNL     1      31.192  94.561  53.040  0.00  0.00    +0.048 A 
ATOM      6  C   UNL     1      31.621  95.891  52.829  0.00  0.00    +0.116 A 
ATOM      7  N   UNL     1      31.838  96.726  53.904  0.00  0.00    -0.223 NA
ATOM      8  C   UNL     1      31.642  96.287  55.200  0.00  0.00    +0.220 A 
ATOM      9  N   UNL     1      31.862  97.107  56.295  0.00  0.00    -0.283 N 
ATOM     36  H   UNL     1      31.699  96.748  57.236  0.00  0.00    +0.155 HD
ATOM     37  N   UNL     1      31.232  95.022  55.427  0.00  0.00    -0.214 NA
BRANCH   4   3
ATOM      1  C   UNL     1      30.932  90.501  55.836  0.00  0.00    +0.020 A 
ATOM      2  C   UNL     1      31.412  91.818  55.488  0.00  0.00    +0.013 A 
ATOM      3  C   UNL     1      30.554  92.761  54.782  0.00  0.00    +0.019 A 
ATOM     38  C   UNL     1      29.204  92.338  54.442  0.00  0.00    +0.120 A 
ATOM     39  N   UNL     1      28.769  91.062  54.789  0.00  0.00    -0.263 NA
ATOM     40  C   UNL     1      29.587  90.145  55.467  0.00  0.00    +0.111 A 
ENDBRANCH   4   3
ENDBRANCH  10   9
BRANCH  12  13
ATOM     13  N   UNL     1      35.610 100.378  56.178  0.00  0.00    -0.281 N 
ATOM     14  C   UNL     1      36.326 100.713  57.315  0.00  0.00    +0.248 C 
ATOM     30  O   UNL     1      35.821 100.983  58.395  0.00  0.00    -0.270 OA
ATOM     31  H   UNL     1      36.136 100.368  55.304  0.00  0.00    +0.155 HD
BRANCH  14  15
ATOM     15  C   UNL     1      37.817 100.769  57.239  0.00  0.00    +0.037 A 
ATOM     16  C   UNL     1      38.601 101.518  58.225  0.00  0.00    +0.013 A 
ATOM     17  C   UNL     1      40.037 101.570  58.118  0.00  0.00    +0.005 A 
ATOM     18  C   UNL     1      40.700 100.868  57.022  0.00  0.00    -0.033 A 
ATOM     28  C   UNL     1      39.899 100.128  56.062  0.00  0.00    +0.005 A 
ATOM     29  C   UNL     1      38.491 100.075  56.162  0.00  0.00    +0.013 A 
BRANCH  18  19
ATOM     19  C   UNL     1      42.227 100.887  56.819  0.00  0.00    +0.119 C 
BRANCH  19  20
ATOM     20  N   UNL     1      42.946  99.581  56.918  0.00  0.00    -0.302 NA
ATOM     21  C   UNL     1      42.660  98.676  55.716  0.00  0.00    +0.066 C 
ATOM     22  C   UNL     1      43.438  97.324  55.825  0.00  0.00    -0.064 C 
ATOM     23  N   UNL     1      43.059  96.625  57.132  0.00  0.00    +0.379 N 
ATOM     24  C   UNL     1      43.745  95.326  57.210  0.00  0.00    -0.096 C 
ATOM     25  H   UNL     1      41.963  96.428  57.105  0.00  0.00    -0.082 HD
ATOM     26  C   UNL     1      43.338  97.520  58.332  0.00  0.00    -0.064 C 
ATOM     27  C   UNL     1      42.584  98.872  58.199  0.00  0.00    +0.066 C 
ENDBRANCH  19  20
ENDBRANCH  18  19
ENDBRANCH  14  15
ENDBRANCH  12  13
TORSDOF 6
ENDMDL
MODEL 4
REMARK VINA RESULT:      -8.6     12.140     19.534
REMARK  Name = C:\Users\Docking\Desktop\test protocol\1iep_ligandH.pdb
REMARK  8 active torsions:
REMARK  status: ('A' for Active; 'I' for Inactive)
REMARK    1  A    between atoms: _5  and  _11
REMARK    2  A    between atoms: _19  and  _21
REMARK    3  A    between atoms: _22  and  _66
REMARK    4  A    between atoms: _27  and  _30
REMARK    5  A    between atoms: _32  and  _33
REMARK    6  A    between atoms: _38  and  _43
REMARK    7  A    between atoms: _43  and  _46
REMARK    8  A    between atoms: _53  and  _55
REMARK                            x       y       z     vdW  Elec       q    Type
REMARK                         _______ _______ _______ _____ _____    ______ ____
ROOT
ATOM     10  C   UNL     1      17.637  71.372  52.624  0.00  0.00    +0.038 A 
ATOM     11  C   UNL     1      17.462  71.996  51.362  0.00  0.00    +0.047 A 
ATOM     12  C   UNL     1      17.493  71.225  50.130  0.00  0.00    +0.035 A 
ATOM     32  C   UNL     1      17.703  69.818  50.219  0.00  0.00    +0.024 A 
ATOM     33  C   UNL     1      17.884  69.167  51.493  0.00  0.00    +0.007 A 
ATOM     34  C   UNL     1      17.857  69.923  52.712  0.00  0.00    -0.029 A 
ATOM     35  C   UNL     1      18.063  69.174  54.048  0.00  0.00    +0.045 C 
ENDROOT
BRANCH  10   9
ATOM      4  C   UNL     1      15.332  73.243  56.395  0.00  0.00    +0.077 A 
ATOM      5  C   UNL     1      14.096  72.617  56.025  0.00  0.00    +0.048 A 
ATOM      6  C   UNL     1      14.093  71.827  54.853  0.00  0.00    +0.116 A 
ATOM      7  N   UNL     1      15.248  71.681  54.115  0.00  0.00    -0.223 NA
ATOM      8  C   UNL     1      16.423  72.301  54.499  0.00  0.00    +0.220 A 
ATOM      9  N   UNL     1      17.597  72.161  53.775  0.00  0.00    -0.283 N 
ATOM     36  H   UNL     1      18.442  72.640  54.087  0.00  0.00    +0.155 HD
ATOM     37  N   UNL     1      16.451  73.061  55.613  0.00  0.00    -0.214 NA
BRANCH   4   3
ATOM      1  C   UNL     1      16.749  75.798  58.996  0.00  0.00    +0.020 A 
ATOM      2  C   UNL     1      16.640  74.986  57.807  0.00  0.00    +0.013 A 
ATOM      3  C   UNL     1      15.495  74.106  57.608  0.00  0.00    +0.019 A 
ATOM     38  C   UNL     1      14.469  74.072  58.640  0.00  0.00    +0.120 A 
ATOM     39  N   UNL     1      14.602  74.865  59.775  0.00  0.00    -0.263 NA
ATOM     40  C   UNL     1      15.700  75.714  59.978  0.00  0.00    +0.111 A 
ENDBRANCH   4   3
ENDBRANCH  10   9
BRANCH  12  13
ATOM     13  N   UNL     1      17.330  71.805  48.820  0.00  0.00    -0.281 N 
ATOM     14  C   UNL     1      18.255  72.532  48.089  0.00  0.00    +0.248 C 
ATOM     30  O   UNL     1      19.298  72.978  48.543  0.00  0.00    -0.270 OA
ATOM     31  H   UNL     1      16.421  71.662  48.378  0.00  0.00    +0.155 HD
BRANCH  14  15
ATOM     15  C   UNL     1      17.974  72.817  46.649  0.00  0.00    +0.037 A 
ATOM     16  C   UNL     1      16.602  72.980  46.160  0.00  0.00    +0.013 A 
ATOM     17  C   UNL     1      16.358  73.237  44.762  0.00  0.00    +0.005 A 
ATOM     18  C   UNL     1      17.490  73.334  43.844  0.00  0.00    -0.033 A 
ATOM     28  C   UNL     1      18.841  73.174  44.357  0.00  0.00    +0.005 A 
ATOM     29  C   UNL     1      19.084  72.920  45.725  0.00  0.00    +0.013 A 
BRANCH  18  19
ATOM     19  C   UNL     1      17.323  73.585  42.334  0.00  0.00    +0.119 C 
BRANCH  19  20
ATOM     20  N   UNL     1      16.564  74.804  41.923  0.00  0.00    -0.302 NA
ATOM     21  C   UNL     1      15.413  74.471  40.970  0.00  0.00    +0.066 C 
ATOM     22  C   UNL     1      14.616  75.755  40.569  0.00  0.00    -0.064 C 
ATOM     23  N   UNL     1      15.571  76.766  39.932  0.00  0.00    +0.379 N 
ATOM     24  C   UNL     1      14.815  77.951  39.501  0.00  0.00    -0.096 C 
ATOM     25  H   UNL     1      16.007  76.293  39.021  0.00  0.00    -0.082 HD
ATOM     26  C   UNL     1      16.721  77.101  40.872  0.00  0.00    -0.064 C 
ATOM     27  C   UNL     1      17.487  75.815  41.288  0.00  0.00    +0.066 C 
ENDBRANCH  19  20
ENDBRANCH  18  19
ENDBRANCH  14  15
ENDBRANCH  12  13
TORSDOF 6
ENDMDL
MODEL 5
REMARK VINA RESULT:      -8.4     11.233     15.457
REMARK  Name = C:\Users\Docking\Desktop\test protocol\1iep_ligandH.pdb
REMARK  8 active torsions:
REMARK  status: ('A' for Active; 'I' for Inactive)
REMARK    1  A    between atoms: _5  and  _11
REMARK    2  A    between atoms: _19  and  _21
REMARK    3  A    between atoms: _22  and  _66
REMARK    4  A    between atoms: _27  and  _30
REMARK    5  A    between atoms: _32  and  _33
REMARK    6  A    between atoms: _38  and  _43
REMARK    7  A    between atoms: _43  and  _46
REMARK    8  A    between atoms: _53  and  _55
REMARK                            x       y       z     vdW  Elec       q    Type
REMARK                         _______ _______ _______ _____ _____    ______ ____
ROOT
ATOM     10  C   UNL     1      17.946  72.426  48.279  0.00  0.00    +0.038 A 
ATOM     11  C   UNL     1      17.574  72.989  49.526  0.00  0.00    +0.047 A 
ATOM     12  C   UNL     1      17.498  72.172  50.727  0.00  0.00    +0.035 A 
ATOM     32  C   UNL     1      17.810  70.785  50.622  0.00  0.00    +0.024 A 
ATOM     33  C   UNL     1      18.190  70.197  49.362  0.00  0.00    +0.007 A 
ATOM     34  C   UNL     1      18.264  70.997  48.173  0.00  0.00    -0.029 A 
ATOM     35  C   UNL     1      18.670  70.312  46.848  0.00  0.00    +0.045 C 
ENDROOT
BRANCH  10   9
ATOM      4  C   UNL     1      16.282  73.928  44.034  0.00  0.00    +0.077 A 
ATOM      5  C   UNL     1      15.226  72.957  44.038  0.00  0.00    +0.048 A 
ATOM      6  C   UNL     1      15.150  72.085  45.148  0.00  0.00    +0.116 A 
ATOM      7  N   UNL     1      16.067  72.186  46.171  0.00  0.00    -0.223 NA
ATOM      8  C   UNL     1      17.075  73.133  46.135  0.00  0.00    +0.220 A 
ATOM      9  N   UNL     1      18.003  73.257  47.158  0.00  0.00    -0.283 N 
ATOM     36  H   UNL     1      18.736  73.964  47.090  0.00  0.00    +0.155 HD
ATOM     37  N   UNL     1      17.170  73.976  45.086  0.00  0.00    -0.214 NA
BRANCH   4   3
ATOM      1  C   UNL     1      15.869  77.002  41.651  0.00  0.00    +0.020 A 
ATOM      2  C   UNL     1      15.622  76.072  42.729  0.00  0.00    +0.013 A 
ATOM      3  C   UNL     1      16.492  74.921  42.934  0.00  0.00    +0.019 A 
ATOM     38  C   UNL     1      17.613  74.739  42.024  0.00  0.00    +0.120 A 
ATOM     39  N   UNL     1      17.825  75.650  40.994  0.00  0.00    -0.263 NA
ATOM     40  C   UNL     1      16.993  76.760  40.786  0.00  0.00    +0.111 A 
ENDBRANCH   4   3
ENDBRANCH  10   9
BRANCH  12  13
ATOM     13  N   UNL     1      17.118  72.686  52.020  0.00  0.00    -0.281 N 
ATOM     14  C   UNL     1      15.855  72.707  52.590  0.00  0.00    +0.248 C 
ATOM     30  O   UNL     1      14.819  72.480  51.984  0.00  0.00    -0.270 OA
ATOM     31  H   UNL     1      17.871  73.081  52.583  0.00  0.00    +0.155 HD
BRANCH  14  15
ATOM     15  C   UNL     1      15.724  73.044  54.040  0.00  0.00    +0.037 A 
ATOM     16  C   UNL     1      14.782  72.328  54.904  0.00  0.00    +0.013 A 
ATOM     17  C   UNL     1      14.663  72.685  56.296  0.00  0.00    +0.005 A 
ATOM     18  C   UNL     1      15.490  73.763  56.833  0.00  0.00    -0.033 A 
ATOM     28  C   UNL     1      16.420  74.453  55.954  0.00  0.00    +0.005 A 
ATOM     29  C   UNL     1      16.539  74.107  54.589  0.00  0.00    +0.013 A 
BRANCH  18  19
ATOM     19  C   UNL     1      15.414  74.224  58.300  0.00  0.00    +0.119 C 
BRANCH  19  20
ATOM     20  N   UNL     1      16.680  74.697  58.935  0.00  0.00    -0.302 NA
ATOM     21  C   UNL     1      17.349  73.600  59.769  0.00  0.00    +0.066 C 
ATOM     22  C   UNL     1      18.684  74.105  60.407  0.00  0.00    -0.064 C 
ATOM     23  N   UNL     1      18.401  75.340  61.264  0.00  0.00    +0.379 N 
ATOM     24  C   UNL     1      19.644  75.783  61.912  0.00  0.00    -0.096 C 
ATOM     25  H   UNL     1      17.689  75.039  62.067  0.00  0.00    -0.082 HD
ATOM     26  C   UNL     1      17.734  76.435  60.443  0.00  0.00    -0.064 C 
ATOM     27  C   UNL     1      16.423  75.914  59.789  0.00  0.00    +0.066 C 
ENDBRANCH  19  20
ENDBRANCH  18  19
ENDBRANCH  14  15
ENDBRANCH  12  13
TORSDOF 6
ENDMDL
