MODEL 1
REMARK VINA RESULT:      -7.4      0.000      0.000
REMARK  Name = C:\Users\Docking\Desktop\test protocol\1iep_ligandH.pdb
REMARK  8 active torsions:
REMARK  status: ('A' for Active; 'I' for Inactive)
REMARK    1  A    between atoms: _5  and  _11
REMARK    2  A    between atoms: _19  and  _21
REMARK    3  A    between atoms: _22  and  _66
REMARK    4  A    between atoms: _27  and  _30
REMARK    5  A    between atoms: _32  and  _33
REMARK    6  A    between atoms: _38  and  _43
REMARK    7  A    between atoms: _43  and  _46
REMARK    8  A    between atoms: _53  and  _55
REMARK                            x       y       z     vdW  Elec       q    Type
REMARK                         _______ _______ _______ _____ _____    ______ ____
ROOT
ATOM     10  C   UNL     1     -31.833 -15.416 -43.164  0.00  0.00    +0.038 A 
ATOM     11  C   UNL     1     -31.890 -16.354 -44.226  0.00  0.00    +0.047 A 
ATOM     12  C   UNL     1     -33.038 -17.232 -44.394  0.00  0.00    +0.035 A 
ATOM     32  C   UNL     1     -34.111 -17.126 -43.463  0.00  0.00    +0.024 A 
ATOM     33  C   UNL     1     -34.069 -16.179 -42.376  0.00  0.00    +0.007 A 
ATOM     34  C   UNL     1     -32.939 -15.312 -42.204  0.00  0.00    -0.029 A 
ATOM     35  C   UNL     1     -32.945 -14.321 -41.017  0.00  0.00    +0.045 C 
ENDROOT
BRANCH  10   9
ATOM      4  C   UNL     1     -29.211 -11.617 -44.479  0.00  0.00    +0.077 A 
ATOM      5  C   UNL     1     -30.151 -11.247 -45.498  0.00  0.00    +0.048 A 
ATOM      6  C   UNL     1     -31.293 -12.064 -45.655  0.00  0.00    +0.116 A 
ATOM      7  N   UNL     1     -31.471 -13.167 -44.849  0.00  0.00    -0.223 NA
ATOM      8  C   UNL     1     -30.544 -13.498 -43.877  0.00  0.00    +0.220 A 
ATOM      9  N   UNL     1     -30.707 -14.598 -43.050  0.00  0.00    -0.283 N 
ATOM     36  H   UNL     1     -29.997 -14.812 -42.350  0.00  0.00    +0.155 HD
ATOM     37  N   UNL     1     -29.445 -12.734 -43.708  0.00  0.00    -0.214 NA
BRANCH   4   3
ATOM      1  C   UNL     1     -25.613 -10.663 -43.277  0.00  0.00    +0.020 A 
ATOM      2  C   UNL     1     -26.800 -11.447 -43.534  0.00  0.00    +0.013 A 
ATOM      3  C   UNL     1     -27.958 -10.852 -44.189  0.00  0.00    +0.019 A 
ATOM     38  C   UNL     1     -27.882  -9.451 -44.575  0.00  0.00    +0.120 A 
ATOM     39  N   UNL     1     -26.727  -8.721 -44.313  0.00  0.00    -0.263 NA
ATOM     40  C   UNL     1     -25.607  -9.282 -43.682  0.00  0.00    +0.111 A 
ENDBRANCH   4   3
ENDBRANCH  10   9
BRANCH  12  13
ATOM     13  N   UNL     1     -33.148 -18.208 -45.449  0.00  0.00    -0.281 N 
ATOM     14  C   UNL     1     -33.087 -19.588 -45.342  0.00  0.00    +0.248 C 
ATOM     30  O   UNL     1     -32.713 -20.188 -44.345  0.00  0.00    -0.270 OA
ATOM     31  H   UNL     1     -33.288 -17.838 -46.389  0.00  0.00    +0.155 HD
BRANCH  14  15
ATOM     15  C   UNL     1     -33.486 -20.422 -46.516  0.00  0.00    +0.037 A 
ATOM     16  C   UNL     1     -32.974 -21.784 -46.691  0.00  0.00    +0.013 A 
ATOM     17  C   UNL     1     -33.361 -22.560 -47.842  0.00  0.00    +0.005 A 
ATOM     18  C   UNL     1     -34.268 -21.977 -48.827  0.00  0.00    -0.033 A 
ATOM     28  C   UNL     1     -34.765 -20.625 -48.627  0.00  0.00    +0.005 A 
ATOM     29  C   UNL     1     -34.386 -19.861 -47.501  0.00  0.00    +0.013 A 
BRANCH  18  19
ATOM     19  C   UNL     1     -34.717 -22.725 -50.096  0.00  0.00    +0.119 C 
BRANCH  19  20
ATOM     20  N   UNL     1     -33.787 -22.710 -51.264  0.00  0.00    -0.302 NA
ATOM     21  C   UNL     1     -32.687 -23.768 -51.136  0.00  0.00    +0.066 C 
ATOM     22  C   UNL     1     -31.736 -23.754 -52.377  0.00  0.00    -0.064 C 
ATOM     23  N   UNL     1     -31.130 -22.359 -52.535  0.00  0.00    +0.379 N 
ATOM     24  C   UNL     1     -30.190 -22.358 -53.666  0.00  0.00    -0.096 C 
ATOM     25  H   UNL     1     -30.547 -22.137 -51.611  0.00  0.00    -0.082 HD
ATOM     26  C   UNL     1     -32.216 -21.301 -52.661  0.00  0.00    -0.064 C 
ATOM     27  C   UNL     1     -33.173 -21.343 -51.437  0.00  0.00    +0.066 C 
ENDBRANCH  19  20
ENDBRANCH  18  19
ENDBRANCH  14  15
ENDBRANCH  12  13
TORSDOF 6
ENDMDL
MODEL 2
REMARK VINA RESULT:      -6.7     11.137     16.706
REMARK  Name = C:\Users\Docking\Desktop\test protocol\1iep_ligandH.pdb
REMARK  8 active torsions:
REMARK  status: ('A' for Active; 'I' for Inactive)
REMARK    1  A    between atoms: _5  and  _11
REMARK    2  A    between atoms: _19  and  _21
REMARK    3  A    between atoms: _22  and  _66
REMARK    4  A    between atoms: _27  and  _30
REMARK    5  A    between atoms: _32  and  _33
REMARK    6  A    between atoms: _38  and  _43
REMARK    7  A    between atoms: _43  and  _46
REMARK    8  A    between atoms: _53  and  _55
REMARK                            x       y       z     vdW  Elec       q    Type
REMARK                         _______ _______ _______ _____ _____    ______ ____
ROOT
ATOM     10  C   UNL     1     -31.270 -30.916 -48.284  0.00  0.00    +0.038 A 
ATOM     11  C   UNL     1     -30.370 -30.030 -47.637  0.00  0.00    +0.047 A 
ATOM     12  C   UNL     1     -30.280 -29.976 -46.187  0.00  0.00    +0.035 A 
ATOM     32  C   UNL     1     -31.119 -30.840 -45.425  0.00  0.00    +0.024 A 
ATOM     33  C   UNL     1     -32.040 -31.746 -46.065  0.00  0.00    +0.007 A 
ATOM     34  C   UNL     1     -32.135 -31.802 -47.496  0.00  0.00    -0.029 A 
ATOM     35  C   UNL     1     -33.145 -32.787 -48.129  0.00  0.00    +0.045 C 
ENDROOT
BRANCH  10   9
ATOM      4  C   UNL     1     -33.073 -29.416 -52.472  0.00  0.00    +0.077 A 
ATOM      5  C   UNL     1     -34.023 -28.559 -51.823  0.00  0.00    +0.048 A 
ATOM      6  C   UNL     1     -34.020 -28.538 -50.410  0.00  0.00    +0.116 A 
ATOM      7  N   UNL     1     -33.128 -29.320 -49.709  0.00  0.00    -0.223 NA
ATOM      8  C   UNL     1     -32.226 -30.137 -50.365  0.00  0.00    +0.220 A 
ATOM      9  N   UNL     1     -31.315 -30.926 -49.680  0.00  0.00    -0.283 N 
ATOM     36  H   UNL     1     -30.671 -31.521 -50.201  0.00  0.00    +0.155 HD
ATOM     37  N   UNL     1     -32.210 -30.176 -51.714  0.00  0.00    -0.214 NA
BRANCH   4   3
ATOM      1  C   UNL     1     -32.694 -28.575 -56.273  0.00  0.00    +0.020 A 
ATOM      2  C   UNL     1     -32.809 -28.396 -54.844  0.00  0.00    +0.013 A 
ATOM      3  C   UNL     1     -32.951 -29.545 -53.958  0.00  0.00    +0.019 A 
ATOM     38  C   UNL     1     -32.974 -30.872 -54.555  0.00  0.00    +0.120 A 
ATOM     39  N   UNL     1     -32.863 -31.013 -55.935  0.00  0.00    -0.263 NA
ATOM     40  C   UNL     1     -32.727 -29.915 -56.797  0.00  0.00    +0.111 A 
ENDBRANCH   4   3
ENDBRANCH  10   9
BRANCH  12  13
ATOM     13  N   UNL     1     -29.391 -29.091 -45.475  0.00  0.00    -0.281 N 
ATOM     14  C   UNL     1     -29.542 -27.732 -45.250  0.00  0.00    +0.248 C 
ATOM     30  O   UNL     1     -30.364 -27.025 -45.814  0.00  0.00    -0.270 OA
ATOM     31  H   UNL     1     -28.549 -29.518 -45.089  0.00  0.00    +0.155 HD
BRANCH  14  15
ATOM     15  C   UNL     1     -28.640 -27.059 -44.267  0.00  0.00    +0.037 A 
ATOM     16  C   UNL     1     -27.959 -25.804 -44.597  0.00  0.00    +0.013 A 
ATOM     17  C   UNL     1     -27.080 -25.184 -43.636  0.00  0.00    +0.005 A 
ATOM     18  C   UNL     1     -26.879 -25.818 -42.336  0.00  0.00    -0.033 A 
ATOM     28  C   UNL     1     -27.571 -27.060 -42.033  0.00  0.00    +0.005 A 
ATOM     29  C   UNL     1     -28.432 -27.671 -42.972  0.00  0.00    +0.013 A 
BRANCH  18  19
ATOM     19  C   UNL     1     -25.944 -25.238 -41.258  0.00  0.00    +0.119 C 
BRANCH  19  20
ATOM     20  N   UNL     1     -25.376 -26.193 -40.260  0.00  0.00    -0.302 NA
ATOM     21  C   UNL     1     -25.702 -25.781 -38.822  0.00  0.00    +0.066 C 
ATOM     22  C   UNL     1     -25.120 -26.803 -37.791  0.00  0.00    -0.064 C 
ATOM     23  N   UNL     1     -23.608 -26.920 -37.992  0.00  0.00    +0.379 N 
ATOM     24  C   UNL     1     -23.049 -27.836 -36.987  0.00  0.00    -0.096 C 
ATOM     25  H   UNL     1     -23.165 -25.912 -37.815  0.00  0.00    -0.082 HD
ATOM     26  C   UNL     1     -23.275 -27.326 -39.421  0.00  0.00    -0.064 C 
ATOM     27  C   UNL     1     -23.883 -26.320 -40.437  0.00  0.00    +0.066 C 
ENDBRANCH  19  20
ENDBRANCH  18  19
ENDBRANCH  14  15
ENDBRANCH  12  13
TORSDOF 6
ENDMDL
MODEL 3
REMARK VINA RESULT:      -6.7      5.995     12.965
REMARK  Name = C:\Users\Docking\Desktop\test protocol\1iep_ligandH.pdb
REMARK  8 active torsions:
REMARK  status: ('A' for Active; 'I' for Inactive)
REMARK    1  A    between atoms: _5  and  _11
REMARK    2  A    between atoms: _19  and  _21
REMARK    3  A    between atoms: _22  and  _66
REMARK    4  A    between atoms: _27  and  _30
REMARK    5  A    between atoms: _32  and  _33
REMARK    6  A    between atoms: _38  and  _43
REMARK    7  A    between atoms: _43  and  _46
REMARK    8  A    between atoms: _53  and  _55
REMARK                            x       y       z     vdW  Elec       q    Type
REMARK                         _______ _______ _______ _____ _____    ______ ____
ROOT
ATOM     10  C   UNL     1     -33.005 -14.415 -40.977  0.00  0.00    +0.038 A 
ATOM     11  C   UNL     1     -31.753 -13.771 -41.147  0.00  0.00    +0.047 A 
ATOM     12  C   UNL     1     -31.619 -12.600 -42.001  0.00  0.00    +0.035 A 
ATOM     32  C   UNL     1     -32.782 -12.111 -42.664  0.00  0.00    +0.024 A 
ATOM     33  C   UNL     1     -34.062 -12.754 -42.503  0.00  0.00    +0.007 A 
ATOM     34  C   UNL     1     -34.200 -13.911 -41.665  0.00  0.00    -0.029 A 
ATOM     35  C   UNL     1     -35.595 -14.564 -41.534  0.00  0.00    +0.045 C 
ENDROOT
BRANCH  10   9
ATOM      4  C   UNL     1     -32.757 -19.149 -40.222  0.00  0.00    +0.077 A 
ATOM      5  C   UNL     1     -32.489 -19.415 -41.606  0.00  0.00    +0.048 A 
ATOM      6  C   UNL     1     -32.430 -18.307 -42.481  0.00  0.00    +0.116 A 
ATOM      7  N   UNL     1     -32.626 -17.032 -41.997  0.00  0.00    -0.223 NA
ATOM      8  C   UNL     1     -32.884 -16.810 -40.656  0.00  0.00    +0.220 A 
ATOM      9  N   UNL     1     -33.076 -15.535 -40.146  0.00  0.00    -0.283 N 
ATOM     36  H   UNL     1     -33.272 -15.414 -39.152  0.00  0.00    +0.155 HD
ATOM     37  N   UNL     1     -32.947 -17.851 -39.801  0.00  0.00    -0.214 NA
BRANCH   4   3
ATOM      1  C   UNL     1     -32.211 -21.223 -36.952  0.00  0.00    +0.020 A 
ATOM      2  C   UNL     1     -32.088 -20.168 -37.931  0.00  0.00    +0.013 A 
ATOM      3  C   UNL     1     -32.847 -20.214 -39.175  0.00  0.00    +0.019 A 
ATOM     38  C   UNL     1     -33.729 -21.350 -39.398  0.00  0.00    +0.120 A 
ATOM     39  N   UNL     1     -33.826 -22.351 -38.437  0.00  0.00    -0.263 NA
ATOM     40  C   UNL     1     -33.100 -22.319 -37.238  0.00  0.00    +0.111 A 
ENDBRANCH   4   3
ENDBRANCH  10   9
BRANCH  12  13
ATOM     13  N   UNL     1     -30.372 -11.909 -42.218  0.00  0.00    -0.281 N 
ATOM     14  C   UNL     1     -29.451 -12.113 -43.233  0.00  0.00    +0.248 C 
ATOM     30  O   UNL     1     -29.458 -13.072 -43.990  0.00  0.00    -0.270 OA
ATOM     31  H   UNL     1     -30.140 -11.181 -41.542  0.00  0.00    +0.155 HD
BRANCH  14  15
ATOM     15  C   UNL     1     -28.356 -11.114 -43.424  0.00  0.00    +0.037 A 
ATOM     16  C   UNL     1     -26.947 -11.516 -43.393  0.00  0.00    +0.013 A 
ATOM     17  C   UNL     1     -25.910 -10.530 -43.564  0.00  0.00    +0.005 A 
ATOM     18  C   UNL     1     -26.278  -9.131 -43.769  0.00  0.00    -0.033 A 
ATOM     28  C   UNL     1     -27.683  -8.761 -43.800  0.00  0.00    +0.005 A 
ATOM     29  C   UNL     1     -28.703  -9.724 -43.632  0.00  0.00    +0.013 A 
BRANCH  18  19
ATOM     19  C   UNL     1     -25.237  -8.009 -43.939  0.00  0.00    +0.119 C 
BRANCH  19  20
ATOM     20  N   UNL     1     -25.741  -6.666 -44.357  0.00  0.00    -0.302 NA
ATOM     21  C   UNL     1     -24.983  -6.120 -45.570  0.00  0.00    +0.066 C 
ATOM     22  C   UNL     1     -25.538  -4.726 -46.008  0.00  0.00    -0.064 C 
ATOM     23  N   UNL     1     -25.450  -3.753 -44.831  0.00  0.00    +0.379 N 
ATOM     24  C   UNL     1     -25.917  -2.425 -45.256  0.00  0.00    -0.096 C 
ATOM     25  H   UNL     1     -24.376  -3.659 -44.549  0.00  0.00    -0.082 HD
ATOM     26  C   UNL     1     -26.199  -4.289 -43.619  0.00  0.00    -0.064 C 
ATOM     27  C   UNL     1     -25.660  -5.688 -43.211  0.00  0.00    +0.066 C 
ENDBRANCH  19  20
ENDBRANCH  18  19
ENDBRANCH  14  15
ENDBRANCH  12  13
TORSDOF 6
ENDMDL
MODEL 4
REMARK VINA RESULT:      -6.6     22.016     27.302
REMARK  Name = C:\Users\Docking\Desktop\test protocol\1iep_ligandH.pdb
REMARK  8 active torsions:
REMARK  status: ('A' for Active; 'I' for Inactive)
REMARK    1  A    between atoms: _5  and  _11
REMARK    2  A    between atoms: _19  and  _21
REMARK    3  A    between atoms: _22  and  _66
REMARK    4  A    between atoms: _27  and  _30
REMARK    5  A    between atoms: _32  and  _33
REMARK    6  A    between atoms: _38  and  _43
REMARK    7  A    between atoms: _43  and  _46
REMARK    8  A    between atoms: _53  and  _55
REMARK                            x       y       z     vdW  Elec       q    Type
REMARK                         _______ _______ _______ _____ _____    ______ ____
ROOT
ATOM     10  C   UNL     1     -19.157 -37.104 -54.826  0.00  0.00    +0.038 A 
ATOM     11  C   UNL     1     -18.964 -37.147 -53.422  0.00  0.00    +0.047 A 
ATOM     12  C   UNL     1     -17.831 -37.849 -52.839  0.00  0.00    +0.035 A 
ATOM     32  C   UNL     1     -16.911 -38.494 -53.716  0.00  0.00    +0.024 A 
ATOM     33  C   UNL     1     -17.092 -38.461 -55.146  0.00  0.00    +0.007 A 
ATOM     34  C   UNL     1     -18.210 -37.773 -55.727  0.00  0.00    -0.029 A 
ATOM     35  C   UNL     1     -18.357 -37.776 -57.266  0.00  0.00    +0.045 C 
ENDROOT
BRANCH  10   9
ATOM      4  C   UNL     1     -23.873 -36.651 -55.590  0.00  0.00    +0.077 A 
ATOM      5  C   UNL     1     -24.157 -37.904 -54.951  0.00  0.00    +0.048 A 
ATOM      6  C   UNL     1     -23.060 -38.638 -54.445  0.00  0.00    +0.116 A 
ATOM      7  N   UNL     1     -21.780 -38.145 -54.574  0.00  0.00    -0.223 NA
ATOM      8  C   UNL     1     -21.541 -36.934 -55.198  0.00  0.00    +0.220 A 
ATOM      9  N   UNL     1     -20.262 -36.416 -55.332  0.00  0.00    -0.283 N 
ATOM     36  H   UNL     1     -20.127 -35.523 -55.804  0.00  0.00    +0.155 HD
ATOM     37  N   UNL     1     -22.571 -36.215 -55.690  0.00  0.00    -0.214 NA
BRANCH   4   3
ATOM      1  C   UNL     1     -27.265 -34.816 -56.248  0.00  0.00    +0.020 A 
ATOM      2  C   UNL     1     -26.286 -35.695 -55.651  0.00  0.00    +0.013 A 
ATOM      3  C   UNL     1     -24.926 -35.759 -56.171  0.00  0.00    +0.019 A 
ATOM     38  C   UNL     1     -24.586 -34.914 -57.305  0.00  0.00    +0.120 A 
ATOM     39  N   UNL     1     -25.549 -34.078 -57.861  0.00  0.00    -0.263 NA
ATOM     40  C   UNL     1     -26.862 -34.009 -57.370  0.00  0.00    +0.111 A 
ENDBRANCH   4   3
ENDBRANCH  10   9
BRANCH  12  13
ATOM     13  N   UNL     1     -17.588 -37.933 -51.420  0.00  0.00    -0.281 N 
ATOM     14  C   UNL     1     -18.219 -38.749 -50.495  0.00  0.00    +0.248 C 
ATOM     30  O   UNL     1     -19.242 -39.380 -50.714  0.00  0.00    -0.270 OA
ATOM     31  H   UNL     1     -16.862 -37.317 -51.053  0.00  0.00    +0.155 HD
BRANCH  14  15
ATOM     15  C   UNL     1     -17.638 -38.869 -49.123  0.00  0.00    +0.037 A 
ATOM     16  C   UNL     1     -17.727 -37.768 -48.161  0.00  0.00    +0.013 A 
ATOM     17  C   UNL     1     -17.143 -37.904 -46.850  0.00  0.00    +0.005 A 
ATOM     18  C   UNL     1     -16.465 -39.148 -46.493  0.00  0.00    -0.033 A 
ATOM     28  C   UNL     1     -16.396 -40.226 -47.466  0.00  0.00    +0.005 A 
ATOM     29  C   UNL     1     -16.966 -40.096 -48.752  0.00  0.00    +0.013 A 
BRANCH  18  19
ATOM     19  C   UNL     1     -15.795 -39.373 -45.125  0.00  0.00    +0.119 C 
BRANCH  19  20
ATOM     20  N   UNL     1     -14.431 -39.981 -45.123  0.00  0.00    -0.302 NA
ATOM     21  C   UNL     1     -14.071 -40.581 -43.761  0.00  0.00    +0.066 C 
ATOM     22  C   UNL     1     -12.651 -41.233 -43.784  0.00  0.00    -0.064 C 
ATOM     23  N   UNL     1     -11.618 -40.185 -44.204  0.00  0.00    +0.379 N 
ATOM     24  C   UNL     1     -10.274 -40.780 -44.170  0.00  0.00    -0.096 C 
ATOM     25  H   UNL     1     -11.645 -39.364 -43.450  0.00  0.00    -0.082 HD
ATOM     26  C   UNL     1     -11.970 -39.582 -45.556  0.00  0.00    -0.064 C 
ATOM     27  C   UNL     1     -13.396 -38.963 -45.531  0.00  0.00    +0.066 C 
ENDBRANCH  19  20
ENDBRANCH  18  19
ENDBRANCH  14  15
ENDBRANCH  12  13
TORSDOF 6
ENDMDL
MODEL 5
REMARK VINA RESULT:      -6.6     27.534     29.910
REMARK  Name = C:\Users\Docking\Desktop\test protocol\1iep_ligandH.pdb
REMARK  8 active torsions:
REMARK  status: ('A' for Active; 'I' for Inactive)
REMARK    1  A    between atoms: _5  and  _11
REMARK    2  A    between atoms: _19  and  _21
REMARK    3  A    between atoms: _22  and  _66
REMARK    4  A    between atoms: _27  and  _30
REMARK    5  A    between atoms: _32  and  _33
REMARK    6  A    between atoms: _38  and  _43
REMARK    7  A    between atoms: _43  and  _46
REMARK    8  A    between atoms: _53  and  _55
REMARK                            x       y       z     vdW  Elec       q    Type
REMARK                         _______ _______ _______ _____ _____    ______ ____
ROOT
ATOM     10  C   UNL     1     -10.596  -1.530 -35.507  0.00  0.00    +0.038 A 
ATOM     11  C   UNL     1     -10.318  -2.628 -34.654  0.00  0.00    +0.047 A 
ATOM     12  C   UNL     1      -9.010  -3.263 -34.646  0.00  0.00    +0.035 A 
ATOM     32  C   UNL     1      -8.005  -2.751 -35.519  0.00  0.00    +0.024 A 
ATOM     33  C   UNL     1      -8.271  -1.637 -36.394  0.00  0.00    +0.007 A 
ATOM     34  C   UNL     1      -9.561  -1.008 -36.408  0.00  0.00    -0.029 A 
ATOM     35  C   UNL     1      -9.792   0.179 -37.371  0.00  0.00    +0.045 C 
ENDROOT
BRANCH  10   9
ATOM      4  C   UNL     1     -13.854   1.442 -33.612  0.00  0.00    +0.077 A 
ATOM      5  C   UNL     1     -12.950   1.873 -32.585  0.00  0.00    +0.048 A 
ATOM      6  C   UNL     1     -11.658   1.301 -32.575  0.00  0.00    +0.116 A 
ATOM      7  N   UNL     1     -11.308   0.367 -33.527  0.00  0.00    -0.223 NA
ATOM      8  C   UNL     1     -12.204  -0.028 -34.502  0.00  0.00    +0.220 A 
ATOM      9  N   UNL     1     -11.870  -0.959 -35.474  0.00  0.00    -0.283 N 
ATOM     36  H   UNL     1     -12.563  -1.230 -36.172  0.00  0.00    +0.155 HD
ATOM     37  N   UNL     1     -13.444   0.503 -34.532  0.00  0.00    -0.214 NA
BRANCH   4   3
ATOM      1  C   UNL     1     -17.327   3.076 -32.857  0.00  0.00    +0.020 A 
ATOM      2  C   UNL     1     -15.978   2.596 -32.665  0.00  0.00    +0.013 A 
ATOM      3  C   UNL     1     -15.252   1.957 -33.756  0.00  0.00    +0.019 A 
ATOM     38  C   UNL     1     -15.926   1.819 -35.039  0.00  0.00    +0.120 A 
ATOM     39  N   UNL     1     -17.226   2.290 -35.194  0.00  0.00    -0.263 NA
ATOM     40  C   UNL     1     -17.934   2.905 -34.151  0.00  0.00    +0.111 A 
ENDBRANCH   4   3
ENDBRANCH  10   9
BRANCH  12  13
ATOM     13  N   UNL     1      -8.672  -4.386 -33.807  0.00  0.00    -0.281 N 
ATOM     14  C   UNL     1      -8.858  -4.514 -32.440  0.00  0.00    +0.248 C 
ATOM     30  O   UNL     1      -9.151  -3.593 -31.693  0.00  0.00    -0.270 OA
ATOM     31  H   UNL     1      -8.243  -5.183 -34.277  0.00  0.00    +0.155 HD
BRANCH  14  15
ATOM     15  C   UNL     1      -8.680  -5.858 -31.810  0.00  0.00    +0.037 A 
ATOM     16  C   UNL     1      -8.573  -7.071 -32.625  0.00  0.00    +0.013 A 
ATOM     17  C   UNL     1      -8.419  -8.357 -31.992  0.00  0.00    +0.005 A 
ATOM     18  C   UNL     1      -8.369  -8.435 -30.534  0.00  0.00    -0.033 A 
ATOM     28  C   UNL     1      -8.472  -7.216 -29.750  0.00  0.00    +0.005 A 
ATOM     29  C   UNL     1      -8.624  -5.954 -30.367  0.00  0.00    +0.013 A 
BRANCH  18  19
ATOM     19  C   UNL     1      -8.227  -9.766 -29.772  0.00  0.00    +0.119 C 
BRANCH  19  20
ATOM     20  N   UNL     1      -7.020  -9.936 -28.909  0.00  0.00    -0.302 NA
ATOM     21  C   UNL     1      -5.721  -9.704 -29.687  0.00  0.00    +0.066 C 
ATOM     22  C   UNL     1      -4.469  -9.863 -28.764  0.00  0.00    -0.064 C 
ATOM     23  N   UNL     1      -4.480 -11.255 -28.130  0.00  0.00    +0.379 N 
ATOM     24  C   UNL     1      -3.274 -11.429 -27.307  0.00  0.00    -0.096 C 
ATOM     25  H   UNL     1      -4.437 -12.003 -28.955  0.00  0.00    -0.082 HD
ATOM     26  C   UNL     1      -5.769 -11.495 -27.357  0.00  0.00    -0.064 C 
ATOM     27  C   UNL     1      -7.008 -11.305 -28.276  0.00  0.00    +0.066 C 
ENDBRANCH  19  20
ENDBRANCH  18  19
ENDBRANCH  14  15
ENDBRANCH  12  13
TORSDOF 6
ENDMDL
