MODEL 1
REMARK VINA RESULT:      -6.5      0.000      0.000
REMARK  Name = C:\Users\Docking\Desktop\test protocol\1iep_ligandH.pdb
REMARK  8 active torsions:
REMARK  status: ('A' for Active; 'I' for Inactive)
REMARK    1  A    between atoms: _5  and  _11
REMARK    2  A    between atoms: _19  and  _21
REMARK    3  A    between atoms: _22  and  _66
REMARK    4  A    between atoms: _27  and  _30
REMARK    5  A    between atoms: _32  and  _33
REMARK    6  A    between atoms: _38  and  _43
REMARK    7  A    between atoms: _43  and  _46
REMARK    8  A    between atoms: _53  and  _55
REMARK                            x       y       z     vdW  Elec       q    Type
REMARK                         _______ _______ _______ _____ _____    ______ ____
ROOT
ATOM     10  C   UNL     1      -4.309 -26.933 -46.528  0.00  0.00    +0.038 A 
ATOM     11  C   UNL     1      -4.925 -27.356 -47.734  0.00  0.00    +0.047 A 
ATOM     12  C   UNL     1      -5.006 -28.765 -48.084  0.00  0.00    +0.035 A 
ATOM     32  C   UNL     1      -4.451 -29.718 -47.182  0.00  0.00    +0.024 A 
ATOM     33  C   UNL     1      -3.820 -29.307 -45.953  0.00  0.00    +0.007 A 
ATOM     34  C   UNL     1      -3.735 -27.918 -45.603  0.00  0.00    -0.029 A 
ATOM     35  C   UNL     1      -3.042 -27.534 -44.275  0.00  0.00    +0.045 C 
ENDROOT
BRANCH  10   9
ATOM      4  C   UNL     1      -2.121 -22.663 -46.634  0.00  0.00    +0.077 A 
ATOM      5  C   UNL     1      -0.967 -23.204 -47.293  0.00  0.00    +0.048 A 
ATOM      6  C   UNL     1      -0.973 -24.588 -47.580  0.00  0.00    +0.116 A 
ATOM      7  N   UNL     1      -2.058 -25.362 -47.231  0.00  0.00    -0.223 NA
ATOM      8  C   UNL     1      -3.155 -24.809 -46.595  0.00  0.00    +0.220 A 
ATOM      9  N   UNL     1      -4.260 -25.567 -46.242  0.00  0.00    -0.283 N 
ATOM     36  H   UNL     1      -5.046 -25.123 -45.767  0.00  0.00    +0.155 HD
ATOM     37  N   UNL     1      -3.172 -23.490 -46.308  0.00  0.00    -0.214 NA
BRANCH   4   3
ATOM      1  C   UNL     1      -2.303 -18.760 -46.833  0.00  0.00    +0.020 A 
ATOM      2  C   UNL     1      -2.155 -20.139 -47.240  0.00  0.00    +0.013 A 
ATOM      3  C   UNL     1      -2.266 -21.219 -46.267  0.00  0.00    +0.019 A 
ATOM     38  C   UNL     1      -2.529 -20.867 -44.880  0.00  0.00    +0.120 A 
ATOM     39  N   UNL     1      -2.666 -19.531 -44.517  0.00  0.00    -0.263 NA
ATOM     40  C   UNL     1      -2.560 -18.483 -45.444  0.00  0.00    +0.111 A 
ENDBRANCH   4   3
ENDBRANCH  10   9
BRANCH  12  13
ATOM     13  N   UNL     1      -5.612 -29.252 -49.298  0.00  0.00    -0.281 N 
ATOM     14  C   UNL     1      -5.058 -29.302 -50.567  0.00  0.00    +0.248 C 
ATOM     30  O   UNL     1      -4.026 -28.734 -50.893  0.00  0.00    -0.270 OA
ATOM     31  H   UNL     1      -6.566 -29.603 -49.212  0.00  0.00    +0.155 HD
BRANCH  14  15
ATOM     15  C   UNL     1      -5.758 -30.084 -51.631  0.00  0.00    +0.037 A 
ATOM     16  C   UNL     1      -5.052 -31.098 -52.419  0.00  0.00    +0.013 A 
ATOM     17  C   UNL     1      -5.747 -31.826 -53.451  0.00  0.00    +0.005 A 
ATOM     18  C   UNL     1      -7.159 -31.543 -53.700  0.00  0.00    -0.033 A 
ATOM     28  C   UNL     1      -7.836 -30.535 -52.900  0.00  0.00    +0.005 A 
ATOM     29  C   UNL     1      -7.158 -29.819 -51.889  0.00  0.00    +0.013 A 
BRANCH  18  19
ATOM     19  C   UNL     1      -7.974 -32.256 -54.795  0.00  0.00    +0.119 C 
BRANCH  19  20
ATOM     20  N   UNL     1      -8.979 -33.266 -54.350  0.00  0.00    -0.302 NA
ATOM     21  C   UNL     1      -8.340 -34.391 -53.531  0.00  0.00    +0.066 C 
ATOM     22  C   UNL     1      -9.409 -35.427 -53.055  0.00  0.00    -0.064 C 
ATOM     23  N   UNL     1     -10.144 -35.993 -54.271  0.00  0.00    +0.379 N 
ATOM     24  C   UNL     1     -11.110 -37.010 -53.831  0.00  0.00    -0.096 C 
ATOM     25  H   UNL     1      -9.389 -36.500 -54.916  0.00  0.00    -0.082 HD
ATOM     26  C   UNL     1     -10.781 -34.881 -55.092  0.00  0.00    -0.064 C 
ATOM     27  C   UNL     1      -9.714 -33.841 -55.536  0.00  0.00    +0.066 C 
ENDBRANCH  19  20
ENDBRANCH  18  19
ENDBRANCH  14  15
ENDBRANCH  12  13
TORSDOF 6
ENDMDL
MODEL 2
REMARK VINA RESULT:      -6.3      4.466     13.567
REMARK  Name = C:\Users\Docking\Desktop\test protocol\1iep_ligandH.pdb
REMARK  8 active torsions:
REMARK  status: ('A' for Active; 'I' for Inactive)
REMARK    1  A    between atoms: _5  and  _11
REMARK    2  A    between atoms: _19  and  _21
REMARK    3  A    between atoms: _22  and  _66
REMARK    4  A    between atoms: _27  and  _30
REMARK    5  A    between atoms: _32  and  _33
REMARK    6  A    between atoms: _38  and  _43
REMARK    7  A    between atoms: _43  and  _46
REMARK    8  A    between atoms: _53  and  _55
REMARK                            x       y       z     vdW  Elec       q    Type
REMARK                         _______ _______ _______ _____ _____    ______ ____
ROOT
ATOM     10  C   UNL     1      -8.693 -33.786 -56.516  0.00  0.00    +0.038 A 
ATOM     11  C   UNL     1      -8.336 -33.158 -55.295  0.00  0.00    +0.047 A 
ATOM     12  C   UNL     1      -7.470 -33.821 -54.333  0.00  0.00    +0.035 A 
ATOM     32  C   UNL     1      -6.984 -35.124 -54.647  0.00  0.00    +0.024 A 
ATOM     33  C   UNL     1      -7.338 -35.777 -55.882  0.00  0.00    +0.007 A 
ATOM     34  C   UNL     1      -8.193 -35.129 -56.834  0.00  0.00    -0.029 A 
ATOM     35  C   UNL     1      -8.545 -35.880 -58.140  0.00  0.00    +0.045 C 
ENDROOT
BRANCH  10   9
ATOM      4  C   UNL     1      -9.406 -30.917 -60.297  0.00  0.00    +0.077 A 
ATOM      5  C   UNL     1      -7.997 -30.743 -60.505  0.00  0.00    +0.048 A 
ATOM      6  C   UNL     1      -7.123 -31.403 -59.613  0.00  0.00    +0.116 A 
ATOM      7  N   UNL     1      -7.631 -32.177 -58.592  0.00  0.00    -0.223 NA
ATOM      8  C   UNL     1      -8.995 -32.323 -58.418  0.00  0.00    +0.220 A 
ATOM      9  N   UNL     1      -9.527 -33.103 -57.403  0.00  0.00    -0.283 N 
ATOM     36  H   UNL     1     -10.539 -33.179 -57.304  0.00  0.00    +0.155 HD
ATOM     37  N   UNL     1      -9.851 -31.702 -59.256  0.00  0.00    -0.214 NA
BRANCH   4   3
ATOM      1  C   UNL     1     -11.515 -28.305 -62.304  0.00  0.00    +0.020 A 
ATOM      2  C   UNL     1     -10.479 -28.863 -61.467  0.00  0.00    +0.013 A 
ATOM      3  C   UNL     1     -10.456 -30.288 -61.159  0.00  0.00    +0.019 A 
ATOM     38  C   UNL     1     -11.505 -31.126 -61.719  0.00  0.00    +0.120 A 
ATOM     39  N   UNL     1     -12.491 -30.561 -62.521  0.00  0.00    -0.263 NA
ATOM     40  C   UNL     1     -12.524 -29.191 -62.823  0.00  0.00    +0.111 A 
ENDBRANCH   4   3
ENDBRANCH  10   9
BRANCH  12  13
ATOM     13  N   UNL     1      -7.080 -33.236 -53.074  0.00  0.00    -0.281 N 
ATOM     14  C   UNL     1      -7.409 -33.664 -51.798  0.00  0.00    +0.248 C 
ATOM     30  O   UNL     1      -8.270 -34.495 -51.548  0.00  0.00    -0.270 OA
ATOM     31  H   UNL     1      -6.489 -32.407 -53.130  0.00  0.00    +0.155 HD
BRANCH  14  15
ATOM     15  C   UNL     1      -6.688 -33.073 -50.630  0.00  0.00    +0.037 A 
ATOM     16  C   UNL     1      -5.241 -33.239 -50.466  0.00  0.00    +0.013 A 
ATOM     17  C   UNL     1      -4.573 -32.673 -49.321  0.00  0.00    +0.005 A 
ATOM     18  C   UNL     1      -5.352 -31.933 -48.331  0.00  0.00    -0.033 A 
ATOM     28  C   UNL     1      -6.785 -31.779 -48.520  0.00  0.00    +0.005 A 
ATOM     29  C   UNL     1      -7.443 -32.333 -49.641  0.00  0.00    +0.013 A 
BRANCH  18  19
ATOM     19  C   UNL     1      -4.725 -31.314 -47.068  0.00  0.00    +0.119 C 
BRANCH  19  20
ATOM     20  N   UNL     1      -4.719 -29.823 -46.968  0.00  0.00    -0.302 NA
ATOM     21  C   UNL     1      -3.606 -29.196 -47.813  0.00  0.00    +0.066 C 
ATOM     22  C   UNL     1      -3.628 -27.636 -47.715  0.00  0.00    -0.064 C 
ATOM     23  N   UNL     1      -3.497 -27.218 -46.250  0.00  0.00    +0.379 N 
ATOM     24  C   UNL     1      -3.459 -25.751 -46.160  0.00  0.00    -0.096 C 
ATOM     25  H   UNL     1      -2.522 -27.605 -45.874  0.00  0.00    -0.082 HD
ATOM     26  C   UNL     1      -4.598 -27.839 -45.402  0.00  0.00    -0.064 C 
ATOM     27  C   UNL     1      -4.586 -29.388 -45.530  0.00  0.00    +0.066 C 
ENDBRANCH  19  20
ENDBRANCH  18  19
ENDBRANCH  14  15
ENDBRANCH  12  13
TORSDOF 6
ENDMDL
MODEL 3
REMARK VINA RESULT:      -6.3     67.954     73.974
REMARK  Name = C:\Users\Docking\Desktop\test protocol\1iep_ligandH.pdb
REMARK  8 active torsions:
REMARK  status: ('A' for Active; 'I' for Inactive)
REMARK    1  A    between atoms: _5  and  _11
REMARK    2  A    between atoms: _19  and  _21
REMARK    3  A    between atoms: _22  and  _66
REMARK    4  A    between atoms: _27  and  _30
REMARK    5  A    between atoms: _32  and  _33
REMARK    6  A    between atoms: _38  and  _43
REMARK    7  A    between atoms: _43  and  _46
REMARK    8  A    between atoms: _53  and  _55
REMARK                            x       y       z     vdW  Elec       q    Type
REMARK                         _______ _______ _______ _____ _____    ______ ____
ROOT
ATOM     10  C   UNL     1     -33.046  -0.676  12.557  0.00  0.00    +0.038 A 
ATOM     11  C   UNL     1     -32.025  -1.069  13.459  0.00  0.00    +0.047 A 
ATOM     12  C   UNL     1     -32.108  -0.748  14.876  0.00  0.00    +0.035 A 
ATOM     32  C   UNL     1     -33.247  -0.028  15.340  0.00  0.00    +0.024 A 
ATOM     33  C   UNL     1     -34.294   0.380  14.436  0.00  0.00    +0.007 A 
ATOM     34  C   UNL     1     -34.216   0.069  13.038  0.00  0.00    -0.029 A 
ATOM     35  C   UNL     1     -35.364   0.538  12.114  0.00  0.00    +0.045 C 
ENDROOT
BRANCH  10   9
ATOM      4  C   UNL     1     -34.021  -3.462   8.773  0.00  0.00    +0.077 A 
ATOM      5  C   UNL     1     -34.839  -4.342   9.557  0.00  0.00    +0.048 A 
ATOM      6  C   UNL     1     -34.978  -4.047  10.931  0.00  0.00    +0.116 A 
ATOM      7  N   UNL     1     -34.341  -2.950  11.471  0.00  0.00    -0.223 NA
ATOM      8  C   UNL     1     -33.558  -2.123  10.687  0.00  0.00    +0.220 A 
ATOM      9  N   UNL     1     -32.915  -1.010  11.207  0.00  0.00    -0.283 N 
ATOM     36  H   UNL     1     -32.340  -0.429  10.597  0.00  0.00    +0.155 HD
ATOM     37  N   UNL     1     -33.409  -2.384   9.372  0.00  0.00    -0.214 NA
BRANCH   4   3
ATOM      1  C   UNL     1     -32.480  -3.218   5.186  0.00  0.00    +0.020 A 
ATOM      2  C   UNL     1     -32.668  -3.013   6.603  0.00  0.00    +0.013 A 
ATOM      3  C   UNL     1     -33.780  -3.640   7.306  0.00  0.00    +0.019 A 
ATOM     38  C   UNL     1     -34.692  -4.476   6.538  0.00  0.00    +0.120 A 
ATOM     39  N   UNL     1     -34.487  -4.653   5.173  0.00  0.00    -0.263 NA
ATOM     40  C   UNL     1     -33.421  -4.054   4.487  0.00  0.00    +0.111 A 
ENDBRANCH   4   3
ENDBRANCH  10   9
BRANCH  12  13
ATOM     13  N   UNL     1     -31.098  -1.114  15.838  0.00  0.00    -0.281 N 
ATOM     14  C   UNL     1     -30.503  -2.352  16.018  0.00  0.00    +0.248 C 
ATOM     30  O   UNL     1     -30.904  -3.392  15.518  0.00  0.00    -0.270 OA
ATOM     31  H   UNL     1     -30.784  -0.371  16.461  0.00  0.00    +0.155 HD
BRANCH  14  15
ATOM     15  C   UNL     1     -29.295  -2.451  16.893  0.00  0.00    +0.037 A 
ATOM     16  C   UNL     1     -29.385  -2.241  18.340  0.00  0.00    +0.013 A 
ATOM     17  C   UNL     1     -28.201  -2.326  19.158  0.00  0.00    +0.005 A 
ATOM     18  C   UNL     1     -26.916  -2.624  18.530  0.00  0.00    -0.033 A 
ATOM     28  C   UNL     1     -26.856  -2.834  17.093  0.00  0.00    +0.005 A 
ATOM     29  C   UNL     1     -28.014  -2.751  16.288  0.00  0.00    +0.013 A 
BRANCH  18  19
ATOM     19  C   UNL     1     -25.599  -2.713  19.323  0.00  0.00    +0.119 C 
BRANCH  19  20
ATOM     20  N   UNL     1     -24.623  -1.595  19.155  0.00  0.00    -0.302 NA
ATOM     21  C   UNL     1     -23.219  -2.104  18.816  0.00  0.00    +0.066 C 
ATOM     22  C   UNL     1     -22.216  -0.920  18.622  0.00  0.00    -0.064 C 
ATOM     23  N   UNL     1     -22.191  -0.064  19.889  0.00  0.00    +0.379 N 
ATOM     24  C   UNL     1     -21.206   1.017  19.731  0.00  0.00    -0.096 C 
ATOM     25  H   UNL     1     -21.850  -0.713  20.729  0.00  0.00    -0.082 HD
ATOM     26  C   UNL     1     -23.584   0.444  20.235  0.00  0.00    -0.064 C 
ATOM     27  C   UNL     1     -24.579  -0.739  20.397  0.00  0.00    +0.066 C 
ENDBRANCH  19  20
ENDBRANCH  18  19
ENDBRANCH  14  15
ENDBRANCH  12  13
TORSDOF 6
ENDMDL
MODEL 4
REMARK VINA RESULT:      -6.3     27.461     31.905
REMARK  Name = C:\Users\Docking\Desktop\test protocol\1iep_ligandH.pdb
REMARK  8 active torsions:
REMARK  status: ('A' for Active; 'I' for Inactive)
REMARK    1  A    between atoms: _5  and  _11
REMARK    2  A    between atoms: _19  and  _21
REMARK    3  A    between atoms: _22  and  _66
REMARK    4  A    between atoms: _27  and  _30
REMARK    5  A    between atoms: _32  and  _33
REMARK    6  A    between atoms: _38  and  _43
REMARK    7  A    between atoms: _43  and  _46
REMARK    8  A    between atoms: _53  and  _55
REMARK                            x       y       z     vdW  Elec       q    Type
REMARK                         _______ _______ _______ _____ _____    ______ ____
ROOT
ATOM     10  C   UNL     1     -17.322 -15.666 -73.845  0.00  0.00    +0.038 A 
ATOM     11  C   UNL     1     -17.609 -14.952 -72.654  0.00  0.00    +0.047 A 
ATOM     12  C   UNL     1     -16.602 -14.120 -72.014  0.00  0.00    +0.035 A 
ATOM     32  C   UNL     1     -15.313 -14.035 -72.617  0.00  0.00    +0.024 A 
ATOM     33  C   UNL     1     -15.004 -14.754 -73.828  0.00  0.00    +0.007 A 
ATOM     34  C   UNL     1     -15.992 -15.579 -74.462  0.00  0.00    -0.029 A 
ATOM     35  C   UNL     1     -15.603 -16.332 -75.755  0.00  0.00    +0.045 C 
ENDROOT
BRANCH  10   9
ATOM      4  C   UNL     1     -21.453 -16.170 -76.236  0.00  0.00    +0.077 A 
ATOM      5  C   UNL     1     -21.640 -14.750 -76.331  0.00  0.00    +0.048 A 
ATOM      6  C   UNL     1     -20.653 -13.926 -75.745  0.00  0.00    +0.116 A 
ATOM      7  N   UNL     1     -19.565 -14.489 -75.115  0.00  0.00    -0.223 NA
ATOM      8  C   UNL     1     -19.416 -15.862 -75.040  0.00  0.00    +0.220 A 
ATOM      9  N   UNL     1     -18.326 -16.450 -74.417  0.00  0.00    -0.283 N 
ATOM     36  H   UNL     1     -18.257 -17.466 -74.376  0.00  0.00    +0.155 HD
ATOM     37  N   UNL     1     -20.345 -16.671 -75.590  0.00  0.00    -0.214 NA
BRANCH   4   3
ATOM      1  C   UNL     1     -23.058 -19.521 -77.459  0.00  0.00    +0.020 A 
ATOM      2  C   UNL     1     -22.102 -18.595 -76.898  0.00  0.00    +0.013 A 
ATOM      3  C   UNL     1     -22.406 -17.172 -76.809  0.00  0.00    +0.019 A 
ATOM     38  C   UNL     1     -23.698 -16.716 -77.299  0.00  0.00    +0.120 A 
ATOM     39  N   UNL     1     -24.599 -17.631 -77.836  0.00  0.00    -0.263 NA
ATOM     40  C   UNL     1     -24.316 -19.002 -77.928  0.00  0.00    +0.111 A 
ENDBRANCH   4   3
ENDBRANCH  10   9
BRANCH  12  13
ATOM     13  N   UNL     1     -16.833 -13.379 -70.799  0.00  0.00    -0.281 N 
ATOM     14  C   UNL     1     -16.850 -13.858 -69.499  0.00  0.00    +0.248 C 
ATOM     30  O   UNL     1     -16.882 -15.043 -69.200  0.00  0.00    -0.270 OA
ATOM     31  H   UNL     1     -17.004 -12.380 -70.910  0.00  0.00    +0.155 HD
BRANCH  14  15
ATOM     15  C   UNL     1     -16.848 -12.881 -68.369  0.00  0.00    +0.037 A 
ATOM     16  C   UNL     1     -16.159 -11.592 -68.480  0.00  0.00    +0.013 A 
ATOM     17  C   UNL     1     -16.157 -10.675 -67.368  0.00  0.00    +0.005 A 
ATOM     18  C   UNL     1     -16.849 -11.043 -66.135  0.00  0.00    -0.033 A 
ATOM     28  C   UNL     1     -17.528 -12.325 -66.054  0.00  0.00    +0.005 A 
ATOM     29  C   UNL     1     -17.531 -13.227 -67.141  0.00  0.00    +0.013 A 
BRANCH  18  19
ATOM     19  C   UNL     1     -16.880 -10.135 -64.892  0.00  0.00    +0.119 C 
BRANCH  19  20
ATOM     20  N   UNL     1     -18.220  -9.688 -64.405  0.00  0.00    -0.302 NA
ATOM     21  C   UNL     1     -18.261  -8.181 -64.137  0.00  0.00    +0.066 C 
ATOM     22  C   UNL     1     -19.676  -7.728 -63.650  0.00  0.00    -0.064 C 
ATOM     23  N   UNL     1     -20.055  -8.512 -62.393  0.00  0.00    +0.379 N 
ATOM     24  C   UNL     1     -21.360  -8.047 -61.899  0.00  0.00    -0.096 C 
ATOM     25  H   UNL     1     -19.295  -8.282 -61.610  0.00  0.00    -0.082 HD
ATOM     26  C   UNL     1     -20.014 -10.012 -62.650  0.00  0.00    -0.064 C 
ATOM     27  C   UNL     1     -18.612 -10.447 -63.161  0.00  0.00    +0.066 C 
ENDBRANCH  19  20
ENDBRANCH  18  19
ENDBRANCH  14  15
ENDBRANCH  12  13
TORSDOF 6
ENDMDL
MODEL 5
REMARK VINA RESULT:      -6.3     46.473     53.431
REMARK  Name = C:\Users\Docking\Desktop\test protocol\1iep_ligandH.pdb
REMARK  8 active torsions:
REMARK  status: ('A' for Active; 'I' for Inactive)
REMARK    1  A    between atoms: _5  and  _11
REMARK    2  A    between atoms: _19  and  _21
REMARK    3  A    between atoms: _22  and  _66
REMARK    4  A    between atoms: _27  and  _30
REMARK    5  A    between atoms: _32  and  _33
REMARK    6  A    between atoms: _38  and  _43
REMARK    7  A    between atoms: _43  and  _46
REMARK    8  A    between atoms: _53  and  _55
REMARK                            x       y       z     vdW  Elec       q    Type
REMARK                         _______ _______ _______ _____ _____    ______ ____
ROOT
ATOM     10  C   UNL     1     -20.186  -0.431  -3.121  0.00  0.00    +0.038 A 
ATOM     11  C   UNL     1     -19.644  -0.600  -4.420  0.00  0.00    +0.047 A 
ATOM     12  C   UNL     1     -19.405   0.540  -5.291  0.00  0.00    +0.035 A 
ATOM     32  C   UNL     1     -19.728   1.841  -4.805  0.00  0.00    +0.024 A 
ATOM     33  C   UNL     1     -20.281   2.031  -3.487  0.00  0.00    +0.007 A 
ATOM     34  C   UNL     1     -20.521   0.910  -2.624  0.00  0.00    -0.029 A 
ATOM     35  C   UNL     1     -21.121   1.173  -1.224  0.00  0.00    +0.045 C 
ENDROOT
BRANCH  10   9
ATOM      4  C   UNL     1     -18.715  -3.670   0.101  0.00  0.00    +0.077 A 
ATOM      5  C   UNL     1     -17.412  -3.076   0.191  0.00  0.00    +0.048 A 
ATOM      6  C   UNL     1     -17.158  -1.943  -0.614  0.00  0.00    +0.116 A 
ATOM      7  N   UNL     1     -18.142  -1.448  -1.443  0.00  0.00    -0.223 NA
ATOM      8  C   UNL     1     -19.388  -2.046  -1.506  0.00  0.00    +0.220 A 
ATOM      9  N   UNL     1     -20.394  -1.561  -2.327  0.00  0.00    -0.283 N 
ATOM     36  H   UNL     1     -21.297  -2.034  -2.351  0.00  0.00    +0.155 HD
ATOM     37  N   UNL     1     -19.654  -3.130  -0.749  0.00  0.00    -0.214 NA
BRANCH   4   3
ATOM      1  C   UNL     1     -20.886  -6.400   1.872  0.00  0.00    +0.020 A 
ATOM      2  C   UNL     1     -20.532  -5.230   1.101  0.00  0.00    +0.013 A 
ATOM      3  C   UNL     1     -19.136  -4.870   0.891  0.00  0.00    +0.019 A 
ATOM     38  C   UNL     1     -18.113  -5.721   1.479  0.00  0.00    +0.120 A 
ATOM     39  N   UNL     1     -18.483  -6.841   2.218  0.00  0.00    -0.263 NA
ATOM     40  C   UNL     1     -19.824  -7.196   2.428  0.00  0.00    +0.111 A 
ENDBRANCH   4   3
ENDBRANCH  10   9
BRANCH  12  13
ATOM     13  N   UNL     1     -18.865   0.429  -6.623  0.00  0.00    -0.281 N 
ATOM     14  C   UNL     1     -17.616   0.828  -7.072  0.00  0.00    +0.248 C 
ATOM     30  O   UNL     1     -16.850   1.540  -6.440  0.00  0.00    -0.270 OA
ATOM     31  H   UNL     1     -19.477   0.004  -7.320  0.00  0.00    +0.155 HD
BRANCH  14  15
ATOM     15  C   UNL     1     -17.159   0.384  -8.423  0.00  0.00    +0.037 A 
ATOM     16  C   UNL     1     -17.747  -0.788  -9.077  0.00  0.00    +0.013 A 
ATOM     17  C   UNL     1     -17.275  -1.205 -10.374  0.00  0.00    +0.005 A 
ATOM     18  C   UNL     1     -16.210  -0.448 -11.026  0.00  0.00    -0.033 A 
ATOM     28  C   UNL     1     -15.648   0.714 -10.357  0.00  0.00    +0.005 A 
ATOM     29  C   UNL     1     -16.107   1.125  -9.086  0.00  0.00    +0.013 A 
BRANCH  18  19
ATOM     19  C   UNL     1     -15.630  -0.833 -12.400  0.00  0.00    +0.119 C 
BRANCH  19  20
ATOM     20  N   UNL     1     -14.345  -1.593 -12.412  0.00  0.00    -0.302 NA
ATOM     21  C   UNL     1     -13.133  -0.670 -12.568  0.00  0.00    +0.066 C 
ATOM     22  C   UNL     1     -11.796  -1.480 -12.555  0.00  0.00    -0.064 C 
ATOM     23  N   UNL     1     -11.826  -2.527 -13.670  0.00  0.00    +0.379 N 
ATOM     24  C   UNL     1     -10.547  -3.251 -13.698  0.00  0.00    -0.096 C 
ATOM     25  H   UNL     1     -11.930  -1.986 -14.639  0.00  0.00    -0.082 HD
ATOM     26  C   UNL     1     -13.030  -3.447 -13.524  0.00  0.00    -0.064 C 
ATOM     27  C   UNL     1     -14.352  -2.630 -13.508  0.00  0.00    +0.066 C 
ENDBRANCH  19  20
ENDBRANCH  18  19
ENDBRANCH  14  15
ENDBRANCH  12  13
TORSDOF 6
ENDMDL
