MODEL 1
REMARK VINA RESULT:      -6.8      0.000      0.000
REMARK  Name = C:\Users\Docking\Desktop\test protocol\1iep_ligandH.pdb
REMARK  8 active torsions:
REMARK  status: ('A' for Active; 'I' for Inactive)
REMARK    1  A    between atoms: _5  and  _11
REMARK    2  A    between atoms: _19  and  _21
REMARK    3  A    between atoms: _22  and  _66
REMARK    4  A    between atoms: _27  and  _30
REMARK    5  A    between atoms: _32  and  _33
REMARK    6  A    between atoms: _38  and  _43
REMARK    7  A    between atoms: _43  and  _46
REMARK    8  A    between atoms: _53  and  _55
REMARK                            x       y       z     vdW  Elec       q    Type
REMARK                         _______ _______ _______ _____ _____    ______ ____
ROOT
ATOM     10  C   UNL     1     -28.754 -26.533 -43.917  0.00  0.00    +0.038 A 
ATOM     11  C   UNL     1     -27.900 -26.776 -42.812  0.00  0.00    +0.047 A 
ATOM     12  C   UNL     1     -26.642 -26.061 -42.661  0.00  0.00    +0.035 A 
ATOM     32  C   UNL     1     -26.287 -25.103 -43.654  0.00  0.00    +0.024 A 
ATOM     33  C   UNL     1     -27.143 -24.843 -44.784  0.00  0.00    +0.007 A 
ATOM     34  C   UNL     1     -28.383 -25.547 -44.940  0.00  0.00    -0.029 A 
ATOM     35  C   UNL     1     -29.258 -25.233 -46.176  0.00  0.00    +0.045 C 
ENDROOT
BRANCH  10   9
ATOM      4  C   UNL     1     -31.262 -30.448 -45.108  0.00  0.00    +0.077 A 
ATOM      5  C   UNL     1     -30.094 -31.116 -45.608  0.00  0.00    +0.048 A 
ATOM      6  C   UNL     1     -28.870 -30.414 -45.547  0.00  0.00    +0.116 A 
ATOM      7  N   UNL     1     -28.827 -29.141 -45.023  0.00  0.00    -0.223 NA
ATOM      8  C   UNL     1     -29.971 -28.525 -44.551  0.00  0.00    +0.220 A 
ATOM      9  N   UNL     1     -29.950 -27.248 -44.012  0.00  0.00    -0.283 N 
ATOM     36  H   UNL     1     -30.818 -26.825 -43.682  0.00  0.00    +0.155 HD
ATOM     37  N   UNL     1     -31.154 -29.173 -44.599  0.00  0.00    -0.214 NA
BRANCH   4   3
ATOM      1  C   UNL     1     -34.390 -32.586 -44.137  0.00  0.00    +0.020 A 
ATOM      2  C   UNL     1     -33.059 -32.026 -44.099  0.00  0.00    +0.013 A 
ATOM      3  C   UNL     1     -32.628 -31.060 -45.101  0.00  0.00    +0.019 A 
ATOM     38  C   UNL     1     -33.577 -30.678 -46.137  0.00  0.00    +0.120 A 
ATOM     39  N   UNL     1     -34.852 -31.235 -46.149  0.00  0.00    -0.263 NA
ATOM     40  C   UNL     1     -35.276 -32.167 -45.190  0.00  0.00    +0.111 A 
ENDBRANCH   4   3
ENDBRANCH  10   9
BRANCH  12  13
ATOM     13  N   UNL     1     -25.731 -26.272 -41.564  0.00  0.00    -0.281 N 
ATOM     14  C   UNL     1     -25.767 -25.698 -40.303  0.00  0.00    +0.248 C 
ATOM     30  O   UNL     1     -26.471 -24.747 -39.997  0.00  0.00    -0.270 OA
ATOM     31  H   UNL     1     -24.966 -26.925 -41.737  0.00  0.00    +0.155 HD
BRANCH  14  15
ATOM     15  C   UNL     1     -24.883 -26.250 -39.232  0.00  0.00    +0.037 A 
ATOM     16  C   UNL     1     -23.601 -26.882 -39.556  0.00  0.00    +0.013 A 
ATOM     17  C   UNL     1     -22.775 -27.422 -38.505  0.00  0.00    +0.005 A 
ATOM     18  C   UNL     1     -23.229 -27.331 -37.119  0.00  0.00    -0.033 A 
ATOM     28  C   UNL     1     -24.503 -26.694 -36.826  0.00  0.00    +0.005 A 
ATOM     29  C   UNL     1     -25.315 -26.165 -37.854  0.00  0.00    +0.013 A 
BRANCH  18  19
ATOM     19  C   UNL     1     -22.423 -27.899 -35.936  0.00  0.00    +0.119 C 
BRANCH  19  20
ATOM     20  N   UNL     1     -22.252 -29.381 -35.873  0.00  0.00    -0.302 NA
ATOM     21  C   UNL     1     -23.530 -30.087 -35.411  0.00  0.00    +0.066 C 
ATOM     22  C   UNL     1     -23.341 -31.639 -35.373  0.00  0.00    -0.064 C 
ATOM     23  N   UNL     1     -22.168 -31.984 -34.454  0.00  0.00    +0.379 N 
ATOM     24  C   UNL     1     -22.024 -33.445 -34.370  0.00  0.00    -0.096 C 
ATOM     25  H   UNL     1     -22.417 -31.610 -33.434  0.00  0.00    -0.082 HD
ATOM     26  C   UNL     1     -20.894 -31.284 -34.904  0.00  0.00    -0.064 C 
ATOM     27  C   UNL     1     -21.102 -29.745 -34.967  0.00  0.00    +0.066 C 
ENDBRANCH  19  20
ENDBRANCH  18  19
ENDBRANCH  14  15
ENDBRANCH  12  13
TORSDOF 6
ENDMDL
MODEL 2
REMARK VINA RESULT:      -6.8     22.969     25.444
REMARK  Name = C:\Users\Docking\Desktop\test protocol\1iep_ligandH.pdb
REMARK  8 active torsions:
REMARK  status: ('A' for Active; 'I' for Inactive)
REMARK    1  A    between atoms: _5  and  _11
REMARK    2  A    between atoms: _19  and  _21
REMARK    3  A    between atoms: _22  and  _66
REMARK    4  A    between atoms: _27  and  _30
REMARK    5  A    between atoms: _32  and  _33
REMARK    6  A    between atoms: _38  and  _43
REMARK    7  A    between atoms: _43  and  _46
REMARK    8  A    between atoms: _53  and  _55
REMARK                            x       y       z     vdW  Elec       q    Type
REMARK                         _______ _______ _______ _____ _____    ______ ____
ROOT
ATOM     10  C   UNL     1     -17.086 -18.237 -21.838  0.00  0.00    +0.038 A 
ATOM     11  C   UNL     1     -15.805 -18.798 -22.076  0.00  0.00    +0.047 A 
ATOM     12  C   UNL     1     -14.613 -17.965 -22.110  0.00  0.00    +0.035 A 
ATOM     32  C   UNL     1     -14.762 -16.564 -21.895  0.00  0.00    +0.024 A 
ATOM     33  C   UNL     1     -16.057 -15.977 -21.653  0.00  0.00    +0.007 A 
ATOM     34  C   UNL     1     -17.236 -16.793 -21.621  0.00  0.00    -0.029 A 
ATOM     35  C   UNL     1     -18.599 -16.109 -21.364  0.00  0.00    +0.045 C 
ENDROOT
BRANCH  10   9
ATOM      4  C   UNL     1     -20.205 -21.068 -19.537  0.00  0.00    +0.077 A 
ATOM      5  C   UNL     1     -19.551 -20.863 -18.276  0.00  0.00    +0.048 A 
ATOM      6  C   UNL     1     -18.411 -20.029 -18.265  0.00  0.00    +0.116 A 
ATOM      7  N   UNL     1     -17.968 -19.446 -19.432  0.00  0.00    -0.223 NA
ATOM      8  C   UNL     1     -18.621 -19.666 -20.631  0.00  0.00    +0.220 A 
ATOM      9  N   UNL     1     -18.196 -19.084 -21.816  0.00  0.00    -0.283 N 
ATOM     36  H   UNL     1     -18.701 -19.277 -22.681  0.00  0.00    +0.155 HD
ATOM     37  N   UNL     1     -19.711 -20.460 -20.669  0.00  0.00    -0.214 NA
BRANCH   4   3
ATOM      1  C   UNL     1     -22.593 -24.019 -20.481  0.00  0.00    +0.020 A 
ATOM      2  C   UNL     1     -21.387 -23.235 -20.338  0.00  0.00    +0.013 A 
ATOM      3  C   UNL     1     -21.424 -21.920 -19.711  0.00  0.00    +0.019 A 
ATOM     38  C   UNL     1     -22.706 -21.423 -19.235  0.00  0.00    +0.120 A 
ATOM     39  N   UNL     1     -23.851 -22.199 -19.388  0.00  0.00    -0.263 NA
ATOM     40  C   UNL     1     -23.828 -23.465 -19.991  0.00  0.00    +0.111 A 
ENDBRANCH   4   3
ENDBRANCH  10   9
BRANCH  12  13
ATOM     13  N   UNL     1     -13.288 -18.477 -22.355  0.00  0.00    -0.281 N 
ATOM     14  C   UNL     1     -12.389 -18.081 -23.331  0.00  0.00    +0.248 C 
ATOM     30  O   UNL     1     -12.672 -17.368 -24.283  0.00  0.00    -0.270 OA
ATOM     31  H   UNL     1     -12.974 -19.222 -21.733  0.00  0.00    +0.155 HD
BRANCH  14  15
ATOM     15  C   UNL     1     -10.974 -18.557 -23.247  0.00  0.00    +0.037 A 
ATOM     16  C   UNL     1     -10.406 -19.030 -21.982  0.00  0.00    +0.013 A 
ATOM     17  C   UNL     1      -9.034 -19.467 -21.924  0.00  0.00    +0.005 A 
ATOM     18  C   UNL     1      -8.220 -19.434 -23.137  0.00  0.00    -0.033 A 
ATOM     28  C   UNL     1      -8.810 -18.965 -24.379  0.00  0.00    +0.005 A 
ATOM     29  C   UNL     1     -10.155 -18.535 -24.439  0.00  0.00    +0.013 A 
BRANCH  18  19
ATOM     19  C   UNL     1      -6.741 -19.862 -23.163  0.00  0.00    +0.119 C 
BRANCH  19  20
ATOM     20  N   UNL     1      -6.389 -21.056 -23.988  0.00  0.00    -0.302 NA
ATOM     21  C   UNL     1      -5.889 -20.663 -25.382  0.00  0.00    +0.066 C 
ATOM     22  C   UNL     1      -5.504 -21.923 -26.224  0.00  0.00    -0.064 C 
ATOM     23  N   UNL     1      -6.713 -22.855 -26.324  0.00  0.00    +0.379 N 
ATOM     24  C   UNL     1      -6.372 -24.012 -27.164  0.00  0.00    -0.096 C 
ATOM     25  H   UNL     1      -7.530 -22.295 -26.836  0.00  0.00    -0.082 HD
ATOM     26  C   UNL     1      -7.218 -23.248 -24.943  0.00  0.00    -0.064 C 
ATOM     27  C   UNL     1      -7.570 -21.988 -24.104  0.00  0.00    +0.066 C 
ENDBRANCH  19  20
ENDBRANCH  18  19
ENDBRANCH  14  15
ENDBRANCH  12  13
TORSDOF 6
ENDMDL
MODEL 3
REMARK VINA RESULT:      -6.8     22.906     25.961
REMARK  Name = C:\Users\Docking\Desktop\test protocol\1iep_ligandH.pdb
REMARK  8 active torsions:
REMARK  status: ('A' for Active; 'I' for Inactive)
REMARK    1  A    between atoms: _5  and  _11
REMARK    2  A    between atoms: _19  and  _21
REMARK    3  A    between atoms: _22  and  _66
REMARK    4  A    between atoms: _27  and  _30
REMARK    5  A    between atoms: _32  and  _33
REMARK    6  A    between atoms: _38  and  _43
REMARK    7  A    between atoms: _43  and  _46
REMARK    8  A    between atoms: _53  and  _55
REMARK                            x       y       z     vdW  Elec       q    Type
REMARK                         _______ _______ _______ _____ _____    ______ ____
ROOT
ATOM     10  C   UNL     1     -17.163 -18.254 -21.805  0.00  0.00    +0.038 A 
ATOM     11  C   UNL     1     -15.885 -18.809 -22.069  0.00  0.00    +0.047 A 
ATOM     12  C   UNL     1     -14.696 -17.972 -22.118  0.00  0.00    +0.035 A 
ATOM     32  C   UNL     1     -14.846 -16.573 -21.891  0.00  0.00    +0.024 A 
ATOM     33  C   UNL     1     -16.137 -15.992 -21.622  0.00  0.00    +0.007 A 
ATOM     34  C   UNL     1     -17.314 -16.812 -21.574  0.00  0.00    -0.029 A 
ATOM     35  C   UNL     1     -18.674 -16.134 -21.288  0.00  0.00    +0.045 C 
ENDROOT
BRANCH  10   9
ATOM      4  C   UNL     1     -20.193 -21.163 -19.481  0.00  0.00    +0.077 A 
ATOM      5  C   UNL     1     -19.494 -20.995 -18.239  0.00  0.00    +0.048 A 
ATOM      6  C   UNL     1     -18.356 -20.158 -18.243  0.00  0.00    +0.116 A 
ATOM      7  N   UNL     1     -17.956 -19.539 -19.407  0.00  0.00    -0.223 NA
ATOM      8  C   UNL     1     -18.651 -19.723 -20.588  0.00  0.00    +0.220 A 
ATOM      9  N   UNL     1     -18.270 -19.104 -21.769  0.00  0.00    -0.283 N 
ATOM     36  H   UNL     1     -18.805 -19.272 -22.621  0.00  0.00    +0.155 HD
ATOM     37  N   UNL     1     -19.740 -20.519 -20.611  0.00  0.00    -0.214 NA
BRANCH   4   3
ATOM      1  C   UNL     1     -23.835 -22.555 -19.179  0.00  0.00    +0.020 A 
ATOM      2  C   UNL     1     -22.685 -21.701 -18.995  0.00  0.00    +0.013 A 
ATOM      3  C   UNL     1     -21.415 -22.013 -19.638  0.00  0.00    +0.019 A 
ATOM     38  C   UNL     1     -21.342 -23.206 -20.468  0.00  0.00    +0.120 A 
ATOM     39  N   UNL     1     -22.466 -24.011 -20.626  0.00  0.00    -0.263 NA
ATOM     40  C   UNL     1     -23.693 -23.721 -20.011  0.00  0.00    +0.111 A 
ENDBRANCH   4   3
ENDBRANCH  10   9
BRANCH  12  13
ATOM     13  N   UNL     1     -13.374 -18.478 -22.390  0.00  0.00    -0.281 N 
ATOM     14  C   UNL     1     -12.501 -18.086 -23.392  0.00  0.00    +0.248 C 
ATOM     30  O   UNL     1     -12.812 -17.385 -24.343  0.00  0.00    -0.270 OA
ATOM     31  H   UNL     1     -13.041 -19.215 -21.768  0.00  0.00    +0.155 HD
BRANCH  14  15
ATOM     15  C   UNL     1     -11.082 -18.552 -23.337  0.00  0.00    +0.037 A 
ATOM     16  C   UNL     1     -10.389 -18.726 -22.058  0.00  0.00    +0.013 A 
ATOM     17  C   UNL     1      -9.014 -19.161 -22.033  0.00  0.00    +0.005 A 
ATOM     18  C   UNL     1      -8.325 -19.425 -23.294  0.00  0.00    -0.033 A 
ATOM     28  C   UNL     1      -9.038 -19.249 -24.548  0.00  0.00    +0.005 A 
ATOM     29  C   UNL     1     -10.385 -18.823 -24.576  0.00  0.00    +0.013 A 
BRANCH  18  19
ATOM     19  C   UNL     1      -6.852 -19.872 -23.364  0.00  0.00    +0.119 C 
BRANCH  19  20
ATOM     20  N   UNL     1      -5.885 -18.940 -24.017  0.00  0.00    -0.302 NA
ATOM     21  C   UNL     1      -6.344 -17.482 -23.930  0.00  0.00    +0.066 C 
ATOM     22  C   UNL     1      -5.310 -16.519 -24.599  0.00  0.00    -0.064 C 
ATOM     23  N   UNL     1      -5.099 -16.934 -26.056  0.00  0.00    +0.379 N 
ATOM     24  C   UNL     1      -4.172 -15.995 -26.704  0.00  0.00    -0.096 C 
ATOM     25  H   UNL     1      -6.082 -16.852 -26.576  0.00  0.00    -0.082 HD
ATOM     26  C   UNL     1      -4.646 -18.383 -26.152  0.00  0.00    -0.064 C 
ATOM     27  C   UNL     1      -5.666 -19.329 -25.459  0.00  0.00    +0.066 C 
ENDBRANCH  19  20
ENDBRANCH  18  19
ENDBRANCH  14  15
ENDBRANCH  12  13
TORSDOF 6
ENDMDL
MODEL 4
REMARK VINA RESULT:      -6.8      7.028     14.077
REMARK  Name = C:\Users\Docking\Desktop\test protocol\1iep_ligandH.pdb
REMARK  8 active torsions:
REMARK  status: ('A' for Active; 'I' for Inactive)
REMARK    1  A    between atoms: _5  and  _11
REMARK    2  A    between atoms: _19  and  _21
REMARK    3  A    between atoms: _22  and  _66
REMARK    4  A    between atoms: _27  and  _30
REMARK    5  A    between atoms: _32  and  _33
REMARK    6  A    between atoms: _38  and  _43
REMARK    7  A    between atoms: _43  and  _46
REMARK    8  A    between atoms: _53  and  _55
REMARK                            x       y       z     vdW  Elec       q    Type
REMARK                         _______ _______ _______ _____ _____    ______ ____
ROOT
ATOM     10  C   UNL     1     -30.851 -29.299 -46.064  0.00  0.00    +0.038 A 
ATOM     11  C   UNL     1     -30.366 -30.092 -47.135  0.00  0.00    +0.047 A 
ATOM     12  C   UNL     1     -31.200 -30.387 -48.290  0.00  0.00    +0.035 A 
ATOM     32  C   UNL     1     -32.522 -29.854 -48.322  0.00  0.00    +0.024 A 
ATOM     33  C   UNL     1     -33.031 -29.047 -47.242  0.00  0.00    +0.007 A 
ATOM     34  C   UNL     1     -32.214 -28.755 -46.099  0.00  0.00    -0.029 A 
ATOM     35  C   UNL     1     -32.814 -27.889 -44.966  0.00  0.00    +0.045 C 
ENDROOT
BRANCH  10   9
ATOM      4  C   UNL     1     -27.815 -26.493 -43.624  0.00  0.00    +0.077 A 
ATOM      5  C   UNL     1     -27.895 -25.451 -44.607  0.00  0.00    +0.048 A 
ATOM      6  C   UNL     1     -28.723 -25.680 -45.729  0.00  0.00    +0.116 A 
ATOM      7  N   UNL     1     -29.415 -26.865 -45.848  0.00  0.00    -0.223 NA
ATOM      8  C   UNL     1     -29.314 -27.850 -44.883  0.00  0.00    +0.220 A 
ATOM      9  N   UNL     1     -30.007 -29.047 -44.979  0.00  0.00    -0.283 N 
ATOM     36  H   UNL     1     -29.900 -29.752 -44.250  0.00  0.00    +0.155 HD
ATOM     37  N   UNL     1     -28.529 -27.657 -43.803  0.00  0.00    -0.214 NA
BRANCH   4   3
ATOM      1  C   UNL     1     -25.410 -25.184 -40.831  0.00  0.00    +0.020 A 
ATOM      2  C   UNL     1     -26.194 -25.223 -42.044  0.00  0.00    +0.013 A 
ATOM      3  C   UNL     1     -26.985 -26.400 -42.382  0.00  0.00    +0.019 A 
ATOM     38  C   UNL     1     -26.961 -27.528 -41.463  0.00  0.00    +0.120 A 
ATOM     39  N   UNL     1     -26.195 -27.463 -40.303  0.00  0.00    -0.263 NA
ATOM     40  C   UNL     1     -25.429 -26.336 -39.969  0.00  0.00    +0.111 A 
ENDBRANCH   4   3
ENDBRANCH  10   9
BRANCH  12  13
ATOM     13  N   UNL     1     -30.765 -31.193 -49.404  0.00  0.00    -0.281 N 
ATOM     14  C   UNL     1     -31.184 -32.468 -49.746  0.00  0.00    +0.248 C 
ATOM     30  O   UNL     1     -31.843 -33.198 -49.020  0.00  0.00    -0.270 OA
ATOM     31  H   UNL     1     -30.064 -30.773 -50.013  0.00  0.00    +0.155 HD
BRANCH  14  15
ATOM     15  C   UNL     1     -30.803 -33.019 -51.083  0.00  0.00    +0.037 A 
ATOM     16  C   UNL     1     -29.430 -33.447 -51.365  0.00  0.00    +0.013 A 
ATOM     17  C   UNL     1     -29.085 -33.958 -52.668  0.00  0.00    +0.005 A 
ATOM     18  C   UNL     1     -30.117 -34.046 -53.698  0.00  0.00    -0.033 A 
ATOM     28  C   UNL     1     -31.472 -33.619 -53.390  0.00  0.00    +0.005 A 
ATOM     29  C   UNL     1     -31.813 -33.116 -52.114  0.00  0.00    +0.013 A 
BRANCH  18  19
ATOM     19  C   UNL     1     -29.834 -34.559 -55.123  0.00  0.00    +0.119 C 
BRANCH  19  20
ATOM     20  N   UNL     1     -28.602 -35.378 -55.323  0.00  0.00    -0.302 NA
ATOM     21  C   UNL     1     -27.496 -34.589 -56.029  0.00  0.00    +0.066 C 
ATOM     22  C   UNL     1     -26.206 -35.453 -56.209  0.00  0.00    -0.064 C 
ATOM     23  N   UNL     1     -26.551 -36.721 -56.992  0.00  0.00    +0.379 N 
ATOM     24  C   UNL     1     -25.329 -37.509 -57.214  0.00  0.00    -0.096 C 
ATOM     25  H   UNL     1     -26.937 -36.408 -57.990  0.00  0.00    -0.082 HD
ATOM     26  C   UNL     1     -27.652 -37.511 -56.299  0.00  0.00    -0.064 C 
ATOM     27  C   UNL     1     -28.919 -36.633 -56.098  0.00  0.00    +0.066 C 
ENDBRANCH  19  20
ENDBRANCH  18  19
ENDBRANCH  14  15
ENDBRANCH  12  13
TORSDOF 6
ENDMDL
MODEL 5
REMARK VINA RESULT:      -6.5     18.127     22.180
REMARK  Name = C:\Users\Docking\Desktop\test protocol\1iep_ligandH.pdb
REMARK  8 active torsions:
REMARK  status: ('A' for Active; 'I' for Inactive)
REMARK    1  A    between atoms: _5  and  _11
REMARK    2  A    between atoms: _19  and  _21
REMARK    3  A    between atoms: _22  and  _66
REMARK    4  A    between atoms: _27  and  _30
REMARK    5  A    between atoms: _32  and  _33
REMARK    6  A    between atoms: _38  and  _43
REMARK    7  A    between atoms: _43  and  _46
REMARK    8  A    between atoms: _53  and  _55
REMARK                            x       y       z     vdW  Elec       q    Type
REMARK                         _______ _______ _______ _____ _____    ______ ____
ROOT
ATOM     10  C   UNL     1     -26.951 -12.698 -24.749  0.00  0.00    +0.038 A 
ATOM     11  C   UNL     1     -26.041 -13.456 -23.969  0.00  0.00    +0.047 A 
ATOM     12  C   UNL     1     -26.155 -13.509 -22.519  0.00  0.00    +0.035 A 
ATOM     32  C   UNL     1     -27.208 -12.778 -21.897  0.00  0.00    +0.024 A 
ATOM     33  C   UNL     1     -28.141 -12.001 -22.675  0.00  0.00    +0.007 A 
ATOM     34  C   UNL     1     -28.033 -11.943 -24.104  0.00  0.00    -0.029 A 
ATOM     35  C   UNL     1     -29.057 -11.088 -24.887  0.00  0.00    +0.045 C 
ENDROOT
BRANCH  10   9
ATOM      4  C   UNL     1     -27.886 -14.418 -29.131  0.00  0.00    +0.077 A 
ATOM      5  C   UNL     1     -28.734 -15.450 -28.609  0.00  0.00    +0.048 A 
ATOM      6  C   UNL     1     -28.898 -15.508 -27.207  0.00  0.00    +0.116 A 
ATOM      7  N   UNL     1     -28.257 -14.597 -26.397  0.00  0.00    -0.223 NA
ATOM      8  C   UNL     1     -27.444 -13.615 -26.932  0.00  0.00    +0.220 A 
ATOM      9  N   UNL     1     -26.796 -12.683 -26.137  0.00  0.00    -0.283 N 
ATOM     36  H   UNL     1     -26.199 -11.978 -26.570  0.00  0.00    +0.155 HD
ATOM     37  N   UNL     1     -27.270 -13.539 -28.268  0.00  0.00    -0.214 NA
BRANCH   4   3
ATOM      1  C   UNL     1     -26.158 -14.418 -32.640  0.00  0.00    +0.020 A 
ATOM      2  C   UNL     1     -26.368 -14.627 -31.226  0.00  0.00    +0.013 A 
ATOM      3  C   UNL     1     -27.616 -14.224 -30.591  0.00  0.00    +0.019 A 
ATOM     38  C   UNL     1     -28.640 -13.609 -31.422  0.00  0.00    +0.120 A 
ATOM     39  N   UNL     1     -28.409 -13.419 -32.780  0.00  0.00    -0.263 NA
ATOM     40  C   UNL     1     -27.211 -13.801 -33.402  0.00  0.00    +0.111 A 
ENDBRANCH   4   3
ENDBRANCH  10   9
BRANCH  12  13
ATOM     13  N   UNL     1     -25.256 -14.256 -21.675  0.00  0.00    -0.281 N 
ATOM     14  C   UNL     1     -25.253 -15.619 -21.429  0.00  0.00    +0.248 C 
ATOM     30  O   UNL     1     -26.162 -16.378 -21.732  0.00  0.00    -0.270 OA
ATOM     31  H   UNL     1     -24.533 -13.714 -21.201  0.00  0.00    +0.155 HD
BRANCH  14  15
ATOM     15  C   UNL     1     -24.078 -16.225 -20.732  0.00  0.00    +0.037 A 
ATOM     16  C   UNL     1     -24.020 -17.662 -20.450  0.00  0.00    +0.013 A 
ATOM     17  C   UNL     1     -22.882 -18.218 -19.761  0.00  0.00    +0.005 A 
ATOM     18  C   UNL     1     -21.792 -17.336 -19.350  0.00  0.00    -0.033 A 
ATOM     28  C   UNL     1     -21.874 -15.915 -19.647  0.00  0.00    +0.005 A 
ATOM     29  C   UNL     1     -22.988 -15.366 -20.322  0.00  0.00    +0.013 A 
BRANCH  18  19
ATOM     19  C   UNL     1     -20.550 -17.839 -18.592  0.00  0.00    +0.119 C 
BRANCH  19  20
ATOM     20  N   UNL     1     -19.353 -18.205 -19.407  0.00  0.00    -0.302 NA
ATOM     21  C   UNL     1     -18.940 -17.079 -20.359  0.00  0.00    +0.066 C 
ATOM     22  C   UNL     1     -17.673 -17.470 -21.188  0.00  0.00    -0.064 C 
ATOM     23  N   UNL     1     -17.952 -18.759 -21.962  0.00  0.00    +0.379 N 
ATOM     24  C   UNL     1     -16.783 -19.098 -22.787  0.00  0.00    -0.096 C 
ATOM     25  H   UNL     1     -18.806 -18.562 -22.650  0.00  0.00    -0.082 HD
ATOM     26  C   UNL     1     -18.365 -19.883 -21.023  0.00  0.00    -0.064 C 
ATOM     27  C   UNL     1     -19.607 -19.473 -20.183  0.00  0.00    +0.066 C 
ENDBRANCH  19  20
ENDBRANCH  18  19
ENDBRANCH  14  15
ENDBRANCH  12  13
TORSDOF 6
ENDMDL
