MODEL 1
REMARK VINA RESULT:      -9.9      0.000      0.000
REMARK  Name = C:\Users\Docking\Desktop\test protocol\1iep_ligandH.pdb
REMARK  8 active torsions:
REMARK  status: ('A' for Active; 'I' for Inactive)
REMARK    1  A    between atoms: _5  and  _11
REMARK    2  A    between atoms: _19  and  _21
REMARK    3  A    between atoms: _22  and  _66
REMARK    4  A    between atoms: _27  and  _30
REMARK    5  A    between atoms: _32  and  _33
REMARK    6  A    between atoms: _38  and  _43
REMARK    7  A    between atoms: _43  and  _46
REMARK    8  A    between atoms: _53  and  _55
REMARK                            x       y       z     vdW  Elec       q    Type
REMARK                         _______ _______ _______ _____ _____    ______ ____
ROOT
ATOM     10  C   UNL     1      12.430 -68.285   8.016  0.00  0.00    +0.038 A 
ATOM     11  C   UNL     1      12.507 -66.894   7.752  0.00  0.00    +0.047 A 
ATOM     12  C   UNL     1      13.634 -66.327   7.028  0.00  0.00    +0.035 A 
ATOM     32  C   UNL     1      14.664 -67.207   6.585  0.00  0.00    +0.024 A 
ATOM     33  C   UNL     1      14.602 -68.624   6.846  0.00  0.00    +0.007 A 
ATOM     34  C   UNL     1      13.494 -69.188   7.562  0.00  0.00    -0.029 A 
ATOM     35  C   UNL     1      13.483 -70.713   7.819  0.00  0.00    +0.045 C 
ENDROOT
BRANCH  10   9
ATOM      4  C   UNL     1      10.037 -69.145  12.087  0.00  0.00    +0.077 A 
ATOM      5  C   UNL     1      11.090 -68.595  12.891  0.00  0.00    +0.048 A 
ATOM      6  C   UNL     1      12.234 -68.108  12.219  0.00  0.00    +0.116 A 
ATOM      7  N   UNL     1      12.308 -68.171  10.844  0.00  0.00    -0.223 NA
ATOM      8  C   UNL     1      11.275 -68.709  10.099  0.00  0.00    +0.220 A 
ATOM      9  N   UNL     1      11.324 -68.775   8.715  0.00  0.00    -0.283 N 
ATOM     36  H   UNL     1      10.545 -69.187   8.202  0.00  0.00    +0.155 HD
ATOM     37  N   UNL     1      10.173 -69.182  10.717  0.00  0.00    -0.214 NA
BRANCH   4   3
ATOM      1  C   UNL     1       6.679 -71.108  12.500  0.00  0.00    +0.020 A 
ATOM      2  C   UNL     1       7.898 -70.604  11.909  0.00  0.00    +0.013 A 
ATOM      3  C   UNL     1       8.765 -69.696  12.651  0.00  0.00    +0.019 A 
ATOM     38  C   UNL     1       8.368 -69.317  13.998  0.00  0.00    +0.120 A 
ATOM     39  N   UNL     1       7.188 -69.817  14.540  0.00  0.00    -0.263 NA
ATOM     40  C   UNL     1       6.345 -70.690  13.836  0.00  0.00    +0.111 A 
ENDBRANCH   4   3
ENDBRANCH  10   9
BRANCH  12  13
ATOM     13  N   UNL     1      13.772 -64.921   6.737  0.00  0.00    -0.281 N 
ATOM     14  C   UNL     1      13.218 -64.211   5.684  0.00  0.00    +0.248 C 
ATOM     30  O   UNL     1      12.691 -64.723   4.707  0.00  0.00    -0.270 OA
ATOM     31  H   UNL     1      14.347 -64.385   7.387  0.00  0.00    +0.155 HD
BRANCH  14  15
ATOM     15  C   UNL     1      13.269 -62.718   5.715  0.00  0.00    +0.037 A 
ATOM     16  C   UNL     1      13.692 -61.948   4.542  0.00  0.00    +0.013 A 
ATOM     17  C   UNL     1      13.749 -60.509   4.603  0.00  0.00    +0.005 A 
ATOM     18  C   UNL     1      13.379 -59.830   5.843  0.00  0.00    -0.033 A 
ATOM     28  C   UNL     1      12.958 -60.618   6.990  0.00  0.00    +0.005 A 
ATOM     29  C   UNL     1      12.902 -62.029   6.933  0.00  0.00    +0.013 A 
BRANCH  18  19
ATOM     19  C   UNL     1      13.430 -58.299   6.005  0.00  0.00    +0.119 C 
BRANCH  19  20
ATOM     20  N   UNL     1      13.622 -57.487   4.767  0.00  0.00    -0.302 NA
ATOM     21  C   UNL     1      13.663 -55.985   5.066  0.00  0.00    +0.066 C 
ATOM     22  C   UNL     1      13.886 -55.151   3.763  0.00  0.00    -0.064 C 
ATOM     23  N   UNL     1      12.778 -55.473   2.758  0.00  0.00    +0.379 N 
ATOM     24  C   UNL     1      12.952 -54.648   1.554  0.00  0.00    -0.096 C 
ATOM     25  H   UNL     1      11.806 -55.191   3.225  0.00  0.00    -0.082 HD
ATOM     26  C   UNL     1      12.729 -56.965   2.457  0.00  0.00    -0.064 C 
ATOM     27  C   UNL     1      12.536 -57.786   3.763  0.00  0.00    +0.066 C 
ENDBRANCH  19  20
ENDBRANCH  18  19
ENDBRANCH  14  15
ENDBRANCH  12  13
TORSDOF 6
ENDMDL
MODEL 2
REMARK VINA RESULT:      -9.2      6.152     12.789
REMARK  Name = C:\Users\Docking\Desktop\test protocol\1iep_ligandH.pdb
REMARK  8 active torsions:
REMARK  status: ('A' for Active; 'I' for Inactive)
REMARK    1  A    between atoms: _5  and  _11
REMARK    2  A    between atoms: _19  and  _21
REMARK    3  A    between atoms: _22  and  _66
REMARK    4  A    between atoms: _27  and  _30
REMARK    5  A    between atoms: _32  and  _33
REMARK    6  A    between atoms: _38  and  _43
REMARK    7  A    between atoms: _43  and  _46
REMARK    8  A    between atoms: _53  and  _55
REMARK                            x       y       z     vdW  Elec       q    Type
REMARK                         _______ _______ _______ _____ _____    ______ ____
ROOT
ATOM     10  C   UNL     1      13.152 -67.242   6.990  0.00  0.00    +0.038 A 
ATOM     11  C   UNL     1      14.453 -67.787   7.136  0.00  0.00    +0.047 A 
ATOM     12  C   UNL     1      14.664 -69.058   7.812  0.00  0.00    +0.035 A 
ATOM     32  C   UNL     1      13.527 -69.749   8.324  0.00  0.00    +0.024 A 
ATOM     33  C   UNL     1      12.198 -69.208   8.185  0.00  0.00    +0.007 A 
ATOM     34  C   UNL     1      11.984 -67.953   7.522  0.00  0.00    -0.029 A 
ATOM     35  C   UNL     1      10.537 -67.418   7.408  0.00  0.00    +0.045 C 
ENDROOT
BRANCH  10   9
ATOM      4  C   UNL     1      13.003 -62.444   6.962  0.00  0.00    +0.077 A 
ATOM      5  C   UNL     1      13.204 -62.371   8.380  0.00  0.00    +0.048 A 
ATOM      6  C   UNL     1      13.334 -63.591   9.081  0.00  0.00    +0.116 A 
ATOM      7  N   UNL     1      13.267 -64.789   8.404  0.00  0.00    -0.223 NA
ATOM      8  C   UNL     1      13.070 -64.824   7.036  0.00  0.00    +0.220 A 
ATOM      9  N   UNL     1      13.007 -66.018   6.333  0.00  0.00    -0.283 N 
ATOM     36  H   UNL     1      12.854 -66.002   5.325  0.00  0.00    +0.155 HD
ATOM     37  N   UNL     1      12.942 -63.673   6.344  0.00  0.00    -0.214 NA
BRANCH   4   3
ATOM      1  C   UNL     1      13.066 -58.773   5.613  0.00  0.00    +0.020 A 
ATOM      2  C   UNL     1      13.233 -59.900   6.502  0.00  0.00    +0.013 A 
ATOM      3  C   UNL     1      12.851 -61.243   6.082  0.00  0.00    +0.019 A 
ATOM     38  C   UNL     1      12.301 -61.412   4.745  0.00  0.00    +0.120 A 
ATOM     39  N   UNL     1      12.150 -60.308   3.912  0.00  0.00    -0.263 NA
ATOM     40  C   UNL     1      12.512 -59.011   4.306  0.00  0.00    +0.111 A 
ENDBRANCH   4   3
ENDBRANCH  10   9
BRANCH  12  13
ATOM     13  N   UNL     1      15.963 -69.658   7.997  0.00  0.00    -0.281 N 
ATOM     14  C   UNL     1      16.667 -69.816   9.180  0.00  0.00    +0.248 C 
ATOM     30  O   UNL     1      16.377 -69.270  10.234  0.00  0.00    -0.270 OA
ATOM     31  H   UNL     1      16.418 -70.008   7.154  0.00  0.00    +0.155 HD
BRANCH  14  15
ATOM     15  C   UNL     1      17.875 -70.696   9.189  0.00  0.00    +0.037 A 
ATOM     16  C   UNL     1      18.996 -70.457   8.276  0.00  0.00    +0.013 A 
ATOM     17  C   UNL     1      20.142 -71.332   8.294  0.00  0.00    +0.005 A 
ATOM     18  C   UNL     1      20.172 -72.453   9.230  0.00  0.00    -0.033 A 
ATOM     28  C   UNL     1      19.049 -72.664  10.128  0.00  0.00    +0.005 A 
ATOM     29  C   UNL     1      17.923 -71.810  10.112  0.00  0.00    +0.013 A 
BRANCH  18  19
ATOM     19  C   UNL     1      21.345 -73.449   9.303  0.00  0.00    +0.119 C 
BRANCH  19  20
ATOM     20  N   UNL     1      22.721 -72.901   9.115  0.00  0.00    -0.302 NA
ATOM     21  C   UNL     1      23.272 -73.199   7.718  0.00  0.00    +0.066 C 
ATOM     22  C   UNL     1      24.703 -72.599   7.530  0.00  0.00    -0.064 C 
ATOM     23  N   UNL     1      25.632 -73.156   8.609  0.00  0.00    +0.379 N 
ATOM     24  C   UNL     1      26.993 -72.639   8.400  0.00  0.00    -0.096 C 
ATOM     25  H   UNL     1      25.669 -74.264   8.484  0.00  0.00    -0.082 HD
ATOM     26  C   UNL     1      25.091 -72.867  10.002  0.00  0.00    -0.064 C 
ATOM     27  C   UNL     1      23.656 -73.442  10.168  0.00  0.00    +0.066 C 
ENDBRANCH  19  20
ENDBRANCH  18  19
ENDBRANCH  14  15
ENDBRANCH  12  13
TORSDOF 6
ENDMDL
MODEL 3
REMARK VINA RESULT:      -9.1      3.862     12.799
REMARK  Name = C:\Users\Docking\Desktop\test protocol\1iep_ligandH.pdb
REMARK  8 active torsions:
REMARK  status: ('A' for Active; 'I' for Inactive)
REMARK    1  A    between atoms: _5  and  _11
REMARK    2  A    between atoms: _19  and  _21
REMARK    3  A    between atoms: _22  and  _66
REMARK    4  A    between atoms: _27  and  _30
REMARK    5  A    between atoms: _32  and  _33
REMARK    6  A    between atoms: _38  and  _43
REMARK    7  A    between atoms: _43  and  _46
REMARK    8  A    between atoms: _53  and  _55
REMARK                            x       y       z     vdW  Elec       q    Type
REMARK                         _______ _______ _______ _____ _____    ______ ____
ROOT
ATOM     10  C   UNL     1      12.896 -64.731   9.049  0.00  0.00    +0.038 A 
ATOM     11  C   UNL     1      13.049 -65.925   8.299  0.00  0.00    +0.047 A 
ATOM     12  C   UNL     1      13.244 -67.207   8.958  0.00  0.00    +0.035 A 
ATOM     32  C   UNL     1      13.276 -67.237  10.383  0.00  0.00    +0.024 A 
ATOM     33  C   UNL     1      13.123 -66.033  11.160  0.00  0.00    +0.007 A 
ATOM     34  C   UNL     1      12.933 -64.764  10.516  0.00  0.00    -0.029 A 
ATOM     35  C   UNL     1      12.782 -63.505  11.400  0.00  0.00    +0.045 C 
ENDROOT
BRANCH  10   9
ATOM      4  C   UNL     1      13.271 -61.991   5.126  0.00  0.00    +0.077 A 
ATOM      5  C   UNL     1      13.913 -63.038   4.384  0.00  0.00    +0.048 A 
ATOM      6  C   UNL     1      14.134 -64.264   5.051  0.00  0.00    +0.116 A 
ATOM      7  N   UNL     1      13.739 -64.420   6.362  0.00  0.00    -0.223 NA
ATOM      8  C   UNL     1      13.124 -63.389   7.049  0.00  0.00    +0.220 A 
ATOM      9  N   UNL     1      12.712 -63.527   8.365  0.00  0.00    -0.283 N 
ATOM     36  H   UNL     1      12.268 -62.741   8.839  0.00  0.00    +0.155 HD
ATOM     37  N   UNL     1      12.903 -62.209   6.435  0.00  0.00    -0.214 NA
BRANCH   4   3
ATOM      1  C   UNL     1      13.647 -58.435   3.541  0.00  0.00    +0.020 A 
ATOM      2  C   UNL     1      13.997 -59.729   4.080  0.00  0.00    +0.013 A 
ATOM      3  C   UNL     1      12.964 -60.640   4.558  0.00  0.00    +0.019 A 
ATOM     38  C   UNL     1      11.577 -60.209   4.475  0.00  0.00    +0.120 A 
ATOM     39  N   UNL     1      11.271 -58.956   3.952  0.00  0.00    -0.263 NA
ATOM     40  C   UNL     1      12.256 -58.070   3.490  0.00  0.00    +0.111 A 
ENDBRANCH   4   3
ENDBRANCH  10   9
BRANCH  12  13
ATOM     13  N   UNL     1      13.413 -68.451   8.249  0.00  0.00    -0.281 N 
ATOM     14  C   UNL     1      14.275 -68.723   7.199  0.00  0.00    +0.248 C 
ATOM     30  O   UNL     1      14.883 -67.872   6.566  0.00  0.00    -0.270 OA
ATOM     31  H   UNL     1      12.826 -69.226   8.559  0.00  0.00    +0.155 HD
BRANCH  14  15
ATOM     15  C   UNL     1      14.480 -70.144   6.782  0.00  0.00    +0.037 A 
ATOM     16  C   UNL     1      15.797 -70.630   6.364  0.00  0.00    +0.013 A 
ATOM     17  C   UNL     1      15.964 -72.001   5.950  0.00  0.00    +0.005 A 
ATOM     18  C   UNL     1      14.809 -72.896   5.955  0.00  0.00    -0.033 A 
ATOM     28  C   UNL     1      13.515 -72.388   6.380  0.00  0.00    +0.005 A 
ATOM     29  C   UNL     1      13.348 -71.045   6.785  0.00  0.00    +0.013 A 
BRANCH  18  19
ATOM     19  C   UNL     1      14.891 -74.368   5.510  0.00  0.00    +0.119 C 
BRANCH  19  20
ATOM     20  N   UNL     1      13.642 -75.182   5.607  0.00  0.00    -0.302 NA
ATOM     21  C   UNL     1      13.662 -76.122   6.816  0.00  0.00    +0.066 C 
ATOM     22  C   UNL     1      12.339 -76.949   6.916  0.00  0.00    -0.064 C 
ATOM     23  N   UNL     1      12.134 -77.736   5.620  0.00  0.00    +0.379 N 
ATOM     24  C   UNL     1      10.922 -78.560   5.733  0.00  0.00    -0.096 C 
ATOM     25  H   UNL     1      13.002 -78.426   5.504  0.00  0.00    -0.082 HD
ATOM     26  C   UNL     1      12.116 -76.810   4.413  0.00  0.00    -0.064 C 
ATOM     27  C   UNL     1      13.423 -75.971   4.340  0.00  0.00    +0.066 C 
ENDBRANCH  19  20
ENDBRANCH  18  19
ENDBRANCH  14  15
ENDBRANCH  12  13
TORSDOF 6
ENDMDL
MODEL 4
REMARK VINA RESULT:      -8.7      3.824     12.898
REMARK  Name = C:\Users\Docking\Desktop\test protocol\1iep_ligandH.pdb
REMARK  8 active torsions:
REMARK  status: ('A' for Active; 'I' for Inactive)
REMARK    1  A    between atoms: _5  and  _11
REMARK    2  A    between atoms: _19  and  _21
REMARK    3  A    between atoms: _22  and  _66
REMARK    4  A    between atoms: _27  and  _30
REMARK    5  A    between atoms: _32  and  _33
REMARK    6  A    between atoms: _38  and  _43
REMARK    7  A    between atoms: _43  and  _46
REMARK    8  A    between atoms: _53  and  _55
REMARK                            x       y       z     vdW  Elec       q    Type
REMARK                         _______ _______ _______ _____ _____    ______ ____
ROOT
ATOM     10  C   UNL     1      12.969 -64.424   9.378  0.00  0.00    +0.038 A 
ATOM     11  C   UNL     1      13.004 -65.581   8.558  0.00  0.00    +0.047 A 
ATOM     12  C   UNL     1      12.948 -66.915   9.136  0.00  0.00    +0.035 A 
ATOM     32  C   UNL     1      12.854 -67.034  10.553  0.00  0.00    +0.024 A 
ATOM     33  C   UNL     1      12.819 -65.868  11.402  0.00  0.00    +0.007 A 
ATOM     34  C   UNL     1      12.876 -64.550  10.838  0.00  0.00    -0.029 A 
ATOM     35  C   UNL     1      12.841 -63.337  11.796  0.00  0.00    +0.045 C 
ENDROOT
BRANCH  10   9
ATOM      4  C   UNL     1      13.326 -61.607   5.508  0.00  0.00    +0.077 A 
ATOM      5  C   UNL     1      13.436 -62.733   4.626  0.00  0.00    +0.048 A 
ATOM      6  C   UNL     1      13.403 -64.020   5.208  0.00  0.00    +0.116 A 
ATOM      7  N   UNL     1      13.270 -64.159   6.573  0.00  0.00    -0.223 NA
ATOM      8  C   UNL     1      13.169 -63.052   7.396  0.00  0.00    +0.220 A 
ATOM      9  N   UNL     1      13.026 -63.168   8.770  0.00  0.00    -0.283 N 
ATOM     36  H   UNL     1      12.962 -62.327   9.343  0.00  0.00    +0.155 HD
ATOM     37  N   UNL     1      13.199 -61.812   6.864  0.00  0.00    -0.214 NA
BRANCH   4   3
ATOM      1  C   UNL     1      13.274 -58.420   3.242  0.00  0.00    +0.020 A 
ATOM      2  C   UNL     1      13.256 -59.809   3.638  0.00  0.00    +0.013 A 
ATOM      3  C   UNL     1      13.341 -60.184   5.043  0.00  0.00    +0.019 A 
ATOM     38  C   UNL     1      13.444 -59.121   6.031  0.00  0.00    +0.120 A 
ATOM     39  N   UNL     1      13.461 -57.792   5.620  0.00  0.00    -0.263 NA
ATOM     40  C   UNL     1      13.381 -57.419   4.270  0.00  0.00    +0.111 A 
ENDBRANCH   4   3
ENDBRANCH  10   9
BRANCH  12  13
ATOM     13  N   UNL     1      12.987 -68.126   8.355  0.00  0.00    -0.281 N 
ATOM     14  C   UNL     1      13.954 -68.521   7.444  0.00  0.00    +0.248 C 
ATOM     30  O   UNL     1      14.828 -67.789   7.003  0.00  0.00    -0.270 OA
ATOM     31  H   UNL     1      12.208 -68.771   8.489  0.00  0.00    +0.155 HD
BRANCH  14  15
ATOM     15  C   UNL     1      13.939 -69.928   6.940  0.00  0.00    +0.037 A 
ATOM     16  C   UNL     1      12.735 -70.757   7.038  0.00  0.00    +0.013 A 
ATOM     17  C   UNL     1      12.753 -72.117   6.559  0.00  0.00    +0.005 A 
ATOM     18  C   UNL     1      13.979 -72.655   5.975  0.00  0.00    -0.033 A 
ATOM     28  C   UNL     1      15.157 -71.808   5.886  0.00  0.00    +0.005 A 
ATOM     29  C   UNL     1      15.144 -70.475   6.355  0.00  0.00    +0.013 A 
BRANCH  18  19
ATOM     19  C   UNL     1      14.095 -74.101   5.458  0.00  0.00    +0.119 C 
BRANCH  19  20
ATOM     20  N   UNL     1      15.126 -74.974   6.095  0.00  0.00    -0.302 NA
ATOM     21  C   UNL     1      15.390 -76.241   5.277  0.00  0.00    +0.066 C 
ATOM     22  C   UNL     1      16.487 -77.132   5.946  0.00  0.00    -0.064 C 
ATOM     23  N   UNL     1      16.053 -77.488   7.369  0.00  0.00    +0.379 N 
ATOM     24  C   UNL     1      17.054 -78.373   7.980  0.00  0.00    -0.096 C 
ATOM     25  H   UNL     1      15.096 -78.056   7.298  0.00  0.00    -0.082 HD
ATOM     26  C   UNL     1      15.785 -76.234   8.189  0.00  0.00    -0.064 C 
ATOM     27  C   UNL     1      14.715 -75.341   7.500  0.00  0.00    +0.066 C 
ENDBRANCH  19  20
ENDBRANCH  18  19
ENDBRANCH  14  15
ENDBRANCH  12  13
TORSDOF 6
ENDMDL
MODEL 5
REMARK VINA RESULT:      -8.6     11.453     16.935
REMARK  Name = C:\Users\Docking\Desktop\test protocol\1iep_ligandH.pdb
REMARK  8 active torsions:
REMARK  status: ('A' for Active; 'I' for Inactive)
REMARK    1  A    between atoms: _5  and  _11
REMARK    2  A    between atoms: _19  and  _21
REMARK    3  A    between atoms: _22  and  _66
REMARK    4  A    between atoms: _27  and  _30
REMARK    5  A    between atoms: _32  and  _33
REMARK    6  A    between atoms: _38  and  _43
REMARK    7  A    between atoms: _43  and  _46
REMARK    8  A    between atoms: _53  and  _55
REMARK                            x       y       z     vdW  Elec       q    Type
REMARK                         _______ _______ _______ _____ _____    ______ ____
ROOT
ATOM     10  C   UNL     1      15.503 -53.824  13.613  0.00  0.00    +0.038 A 
ATOM     11  C   UNL     1      16.227 -54.638  14.522  0.00  0.00    +0.047 A 
ATOM     12  C   UNL     1      16.770 -54.090  15.755  0.00  0.00    +0.035 A 
ATOM     32  C   UNL     1      16.554 -52.709  16.033  0.00  0.00    +0.024 A 
ATOM     33  C   UNL     1      15.821 -51.867  15.120  0.00  0.00    +0.007 A 
ATOM     34  C   UNL     1      15.286 -52.401  13.901  0.00  0.00    -0.029 A 
ATOM     35  C   UNL     1      14.514 -51.451  12.956  0.00  0.00    +0.045 C 
ENDROOT
BRANCH  10   9
ATOM      4  C   UNL     1      16.105 -55.957   9.356  0.00  0.00    +0.077 A 
ATOM      5  C   UNL     1      17.534 -55.889   9.457  0.00  0.00    +0.048 A 
ATOM      6  C   UNL     1      18.075 -55.291  10.618  0.00  0.00    +0.116 A 
ATOM      7  N   UNL     1      17.238 -54.801  11.598  0.00  0.00    -0.223 NA
ATOM      8  C   UNL     1      15.864 -54.882  11.468  0.00  0.00    +0.220 A 
ATOM      9  N   UNL     1      15.004 -54.403  12.444  0.00  0.00    -0.283 N 
ATOM     36  H   UNL     1      13.996 -54.474  12.307  0.00  0.00    +0.155 HD
ATOM     37  N   UNL     1      15.323 -55.447  10.368  0.00  0.00    -0.214 NA
BRANCH   4   3
ATOM      1  C   UNL     1      14.172 -58.460   7.054  0.00  0.00    +0.020 A 
ATOM      2  C   UNL     1      14.862 -57.923   8.204  0.00  0.00    +0.013 A 
ATOM      3  C   UNL     1      15.384 -56.563   8.192  0.00  0.00    +0.019 A 
ATOM     38  C   UNL     1      15.189 -55.765   6.991  0.00  0.00    +0.120 A 
ATOM     39  N   UNL     1      14.523 -56.309   5.897  0.00  0.00    -0.263 NA
ATOM     40  C   UNL     1      14.017 -57.618   5.897  0.00  0.00    +0.111 A 
ENDBRANCH   4   3
ENDBRANCH  10   9
BRANCH  12  13
ATOM     13  N   UNL     1      17.520 -54.865  16.711  0.00  0.00    -0.281 N 
ATOM     14  C   UNL     1      18.896 -54.998  16.809  0.00  0.00    +0.248 C 
ATOM     30  O   UNL     1      19.687 -54.637  15.950  0.00  0.00    -0.270 OA
ATOM     31  H   UNL     1      16.971 -55.379  17.400  0.00  0.00    +0.155 HD
BRANCH  14  15
ATOM     15  C   UNL     1      19.475 -55.637  18.029  0.00  0.00    +0.037 A 
ATOM     16  C   UNL     1      20.235 -56.887  17.945  0.00  0.00    +0.013 A 
ATOM     17  C   UNL     1      20.768 -57.490  19.141  0.00  0.00    +0.005 A 
ATOM     18  C   UNL     1      20.544 -56.843  20.431  0.00  0.00    -0.033 A 
ATOM     28  C   UNL     1      19.791 -55.601  20.485  0.00  0.00    +0.005 A 
ATOM     29  C   UNL     1      19.266 -55.007  19.316  0.00  0.00    +0.013 A 
BRANCH  18  19
ATOM     19  C   UNL     1      21.059 -57.428  21.760  0.00  0.00    +0.119 C 
BRANCH  19  20
ATOM     20  N   UNL     1      20.440 -58.703  22.231  0.00  0.00    -0.302 NA
ATOM     21  C   UNL     1      21.070 -59.928  21.561  0.00  0.00    +0.066 C 
ATOM     22  C   UNL     1      20.427 -61.255  22.082  0.00  0.00    -0.064 C 
ATOM     23  N   UNL     1      18.917 -61.218  21.835  0.00  0.00    +0.379 N 
ATOM     24  C   UNL     1      18.318 -62.488  22.271  0.00  0.00    -0.096 C 
ATOM     25  H   UNL     1      18.757 -61.127  20.736  0.00  0.00    -0.082 HD
ATOM     26  C   UNL     1      18.284 -60.001  22.496  0.00  0.00    -0.064 C 
ATOM     27  C   UNL     1      18.950 -58.690  21.993  0.00  0.00    +0.066 C 
ENDBRANCH  19  20
ENDBRANCH  18  19
ENDBRANCH  14  15
ENDBRANCH  12  13
TORSDOF 6
ENDMDL
