MODEL 1
REMARK VINA RESULT:     -11.4      0.000      0.000
REMARK  Name = C:\Users\Docking\Desktop\test protocol\1iep_ligandH.pdb
REMARK  8 active torsions:
REMARK  status: ('A' for Active; 'I' for Inactive)
REMARK    1  A    between atoms: _5  and  _11
REMARK    2  A    between atoms: _19  and  _21
REMARK    3  A    between atoms: _22  and  _66
REMARK    4  A    between atoms: _27  and  _30
REMARK    5  A    between atoms: _32  and  _33
REMARK    6  A    between atoms: _38  and  _43
REMARK    7  A    between atoms: _43  and  _46
REMARK    8  A    between atoms: _53  and  _55
REMARK                            x       y       z     vdW  Elec       q    Type
REMARK                         _______ _______ _______ _____ _____    ______ ____
ROOT
ATOM     10  C   UNL     1     -11.619 -29.958   0.880  0.00  0.00    +0.038 A 
ATOM     11  C   UNL     1     -11.216 -28.644   1.229  0.00  0.00    +0.047 A 
ATOM     12  C   UNL     1     -11.016 -27.623   0.212  0.00  0.00    +0.035 A 
ATOM     32  C   UNL     1     -11.238 -27.976  -1.151  0.00  0.00    +0.024 A 
ATOM     33  C   UNL     1     -11.647 -29.307  -1.524  0.00  0.00    +0.007 A 
ATOM     34  C   UNL     1     -11.844 -30.318  -0.525  0.00  0.00    -0.029 A 
ATOM     35  C   UNL     1     -12.277 -31.731  -0.982  0.00  0.00    +0.045 C 
ENDROOT
BRANCH  10   9
ATOM      4  C   UNL     1      -9.975 -33.387   3.809  0.00  0.00    +0.077 A 
ATOM      5  C   UNL     1      -8.657 -33.318   3.246  0.00  0.00    +0.048 A 
ATOM      6  C   UNL     1      -8.446 -32.392   2.200  0.00  0.00    +0.116 A 
ATOM      7  N   UNL     1      -9.483 -31.599   1.758  0.00  0.00    -0.223 NA
ATOM      8  C   UNL     1     -10.742 -31.692   2.321  0.00  0.00    +0.220 A 
ATOM      9  N   UNL     1     -11.797 -30.898   1.898  0.00  0.00    -0.283 N 
ATOM     36  H   UNL     1     -12.713 -31.002   2.334  0.00  0.00    +0.155 HD
ATOM     37  N   UNL     1     -10.970 -32.569   3.321  0.00  0.00    -0.214 NA
BRANCH   4   3
ATOM      1  C   UNL     1     -10.016 -36.386   6.320  0.00  0.00    +0.020 A 
ATOM      2  C   UNL     1      -9.608 -35.526   5.233  0.00  0.00    +0.013 A 
ATOM      3  C   UNL     1     -10.354 -34.313   4.923  0.00  0.00    +0.019 A 
ATOM     38  C   UNL     1     -11.517 -33.996   5.738  0.00  0.00    +0.120 A 
ATOM     39  N   UNL     1     -11.887 -34.843   6.778  0.00  0.00    -0.263 NA
ATOM     40  C   UNL     1     -11.178 -36.014   7.084  0.00  0.00    +0.111 A 
ENDBRANCH   4   3
ENDBRANCH  10   9
BRANCH  12  13
ATOM     13  N   UNL     1     -10.599 -26.274   0.505  0.00  0.00    -0.281 N 
ATOM     14  C   UNL     1     -11.384 -25.135   0.565  0.00  0.00    +0.248 C 
ATOM     30  O   UNL     1     -12.537 -25.067   0.164  0.00  0.00    -0.270 OA
ATOM     31  H   UNL     1      -9.605 -26.144   0.691  0.00  0.00    +0.155 HD
BRANCH  14  15
ATOM     15  C   UNL     1     -10.800 -23.885   1.142  0.00  0.00    +0.037 A 
ATOM     16  C   UNL     1     -11.263 -23.352   2.425  0.00  0.00    +0.013 A 
ATOM     17  C   UNL     1     -10.695 -22.136   2.950  0.00  0.00    +0.005 A 
ATOM     18  C   UNL     1      -9.655 -21.445   2.191  0.00  0.00    -0.033 A 
ATOM     28  C   UNL     1      -9.211 -21.999   0.923  0.00  0.00    +0.005 A 
ATOM     29  C   UNL     1      -9.767 -23.190   0.404  0.00  0.00    +0.013 A 
BRANCH  18  19
ATOM     19  C   UNL     1      -9.008 -20.130   2.665  0.00  0.00    +0.119 C 
BRANCH  19  20
ATOM     20  N   UNL     1      -9.877 -19.168   3.406  0.00  0.00    -0.302 NA
ATOM     21  C   UNL     1      -9.107 -17.920   3.846  0.00  0.00    +0.066 C 
ATOM     22  C   UNL     1     -10.037 -16.914   4.600  0.00  0.00    -0.064 C 
ATOM     23  N   UNL     1     -10.668 -17.613   5.806  0.00  0.00    +0.379 N 
ATOM     24  C   UNL     1     -11.497 -16.654   6.550  0.00  0.00    -0.096 C 
ATOM     25  H   UNL     1      -9.840 -17.940   6.478  0.00  0.00    -0.082 HD
ATOM     26  C   UNL     1     -11.433 -18.858   5.378  0.00  0.00    -0.064 C 
ATOM     27  C   UNL     1     -10.507 -19.837   4.603  0.00  0.00    +0.066 C 
ENDBRANCH  19  20
ENDBRANCH  18  19
ENDBRANCH  14  15
ENDBRANCH  12  13
TORSDOF 6
ENDMDL
MODEL 2
REMARK VINA RESULT:     -11.3      2.741     12.836
REMARK  Name = C:\Users\Docking\Desktop\test protocol\1iep_ligandH.pdb
REMARK  8 active torsions:
REMARK  status: ('A' for Active; 'I' for Inactive)
REMARK    1  A    between atoms: _5  and  _11
REMARK    2  A    between atoms: _19  and  _21
REMARK    3  A    between atoms: _22  and  _66
REMARK    4  A    between atoms: _27  and  _30
REMARK    5  A    between atoms: _32  and  _33
REMARK    6  A    between atoms: _38  and  _43
REMARK    7  A    between atoms: _43  and  _46
REMARK    8  A    between atoms: _53  and  _55
REMARK                            x       y       z     vdW  Elec       q    Type
REMARK                         _______ _______ _______ _____ _____    ______ ____
ROOT
ATOM     10  C   UNL     1     -11.988 -26.574   0.565  0.00  0.00    +0.038 A 
ATOM     11  C   UNL     1     -11.324 -27.752   0.993  0.00  0.00    +0.047 A 
ATOM     12  C   UNL     1     -11.285 -28.941   0.156  0.00  0.00    +0.035 A 
ATOM     32  C   UNL     1     -11.932 -28.894  -1.114  0.00  0.00    +0.024 A 
ATOM     33  C   UNL     1     -12.613 -27.706  -1.564  0.00  0.00    +0.007 A 
ATOM     34  C   UNL     1     -12.656 -26.531  -0.741  0.00  0.00    -0.029 A 
ATOM     35  C   UNL     1     -13.405 -25.287  -1.272  0.00  0.00    +0.045 C 
ENDROOT
BRANCH  10   9
ATOM      4  C   UNL     1     -10.236 -22.343   2.002  0.00  0.00    +0.077 A 
ATOM      5  C   UNL     1      -9.207 -22.363   1.003  0.00  0.00    +0.048 A 
ATOM      6  C   UNL     1      -9.158 -23.483   0.144  0.00  0.00    +0.116 A 
ATOM      7  N   UNL     1     -10.076 -24.502   0.282  0.00  0.00    -0.223 NA
ATOM      8  C   UNL     1     -11.055 -24.452   1.257  0.00  0.00    +0.220 A 
ATOM      9  N   UNL     1     -11.993 -25.462   1.409  0.00  0.00    -0.283 N 
ATOM     36  H   UNL     1     -12.695 -25.391   2.146  0.00  0.00    +0.155 HD
ATOM     37  N   UNL     1     -11.122 -23.394   2.091  0.00  0.00    -0.214 NA
BRANCH   4   3
ATOM      1  C   UNL     1      -9.857 -18.947   3.907  0.00  0.00    +0.020 A 
ATOM      2  C   UNL     1      -9.640 -19.996   2.936  0.00  0.00    +0.013 A 
ATOM      3  C   UNL     1     -10.420 -21.226   2.982  0.00  0.00    +0.019 A 
ATOM     38  C   UNL     1     -11.420 -21.365   4.030  0.00  0.00    +0.120 A 
ATOM     39  N   UNL     1     -11.606 -20.339   4.951  0.00  0.00    -0.263 NA
ATOM     40  C   UNL     1     -10.860 -19.151   4.918  0.00  0.00    +0.111 A 
ENDBRANCH   4   3
ENDBRANCH  10   9
BRANCH  12  13
ATOM     13  N   UNL     1     -10.634 -30.168   0.541  0.00  0.00    -0.281 N 
ATOM     14  C   UNL     1     -11.139 -31.190   1.328  0.00  0.00    +0.248 C 
ATOM     30  O   UNL     1     -12.156 -31.107   2.000  0.00  0.00    -0.270 OA
ATOM     31  H   UNL     1      -9.685 -30.299   0.190  0.00  0.00    +0.155 HD
BRANCH  14  15
ATOM     15  C   UNL     1     -10.399 -32.488   1.388  0.00  0.00    +0.037 A 
ATOM     16  C   UNL     1      -9.141 -32.612   2.128  0.00  0.00    +0.013 A 
ATOM     17  C   UNL     1      -8.439 -33.871   2.156  0.00  0.00    +0.005 A 
ATOM     18  C   UNL     1      -8.996 -35.017   1.442  0.00  0.00    -0.033 A 
ATOM     28  C   UNL     1     -10.249 -34.868   0.720  0.00  0.00    +0.005 A 
ATOM     29  C   UNL     1     -10.939 -33.635   0.690  0.00  0.00    +0.013 A 
BRANCH  18  19
ATOM     19  C   UNL     1      -8.305 -36.393   1.400  0.00  0.00    +0.119 C 
BRANCH  19  20
ATOM     20  N   UNL     1      -7.899 -36.994   2.705  0.00  0.00    -0.302 NA
ATOM     21  C   UNL     1      -7.089 -38.280   2.518  0.00  0.00    +0.066 C 
ATOM     22  C   UNL     1      -6.654 -38.884   3.893  0.00  0.00    -0.064 C 
ATOM     23  N   UNL     1      -7.895 -39.146   4.747  0.00  0.00    +0.379 N 
ATOM     24  C   UNL     1      -7.494 -39.767   6.018  0.00  0.00    -0.096 C 
ATOM     25  H   UNL     1      -8.534 -39.877   4.200  0.00  0.00    -0.082 HD
ATOM     26  C   UNL     1      -8.708 -37.873   4.936  0.00  0.00    -0.064 C 
ATOM     27  C   UNL     1      -9.110 -37.265   3.563  0.00  0.00    +0.066 C 
ENDBRANCH  19  20
ENDBRANCH  18  19
ENDBRANCH  14  15
ENDBRANCH  12  13
TORSDOF 6
ENDMDL
MODEL 3
REMARK VINA RESULT:     -11.3      5.675      7.410
REMARK  Name = C:\Users\Docking\Desktop\test protocol\1iep_ligandH.pdb
REMARK  8 active torsions:
REMARK  status: ('A' for Active; 'I' for Inactive)
REMARK    1  A    between atoms: _5  and  _11
REMARK    2  A    between atoms: _19  and  _21
REMARK    3  A    between atoms: _22  and  _66
REMARK    4  A    between atoms: _27  and  _30
REMARK    5  A    between atoms: _32  and  _33
REMARK    6  A    between atoms: _38  and  _43
REMARK    7  A    between atoms: _43  and  _46
REMARK    8  A    between atoms: _53  and  _55
REMARK                            x       y       z     vdW  Elec       q    Type
REMARK                         _______ _______ _______ _____ _____    ______ ____
ROOT
ATOM     10  C   UNL     1     -11.640 -25.651   0.341  0.00  0.00    +0.038 A 
ATOM     11  C   UNL     1     -11.597 -24.575   1.265  0.00  0.00    +0.047 A 
ATOM     12  C   UNL     1     -10.410 -23.746   1.400  0.00  0.00    +0.035 A 
ATOM     32  C   UNL     1      -9.284 -24.039   0.575  0.00  0.00    +0.024 A 
ATOM     33  C   UNL     1      -9.310 -25.129  -0.368  0.00  0.00    +0.007 A 
ATOM     34  C   UNL     1     -10.478 -25.952  -0.503  0.00  0.00    -0.029 A 
ATOM     35  C   UNL     1     -10.447 -27.111  -1.526  0.00  0.00    +0.045 C 
ENDROOT
BRANCH  10   9
ATOM      4  C   UNL     1     -15.795 -26.805  -1.766  0.00  0.00    +0.077 A 
ATOM      5  C   UNL     1     -15.643 -25.782  -2.761  0.00  0.00    +0.048 A 
ATOM      6  C   UNL     1     -14.485 -24.976  -2.690  0.00  0.00    +0.116 A 
ATOM      7  N   UNL     1     -13.554 -25.186  -1.695  0.00  0.00    -0.223 NA
ATOM      8  C   UNL     1     -13.733 -26.180  -0.751  0.00  0.00    +0.220 A 
ATOM      9  N   UNL     1     -12.806 -26.415   0.253  0.00  0.00    -0.283 N 
ATOM     36  H   UNL     1     -12.978 -27.153   0.935  0.00  0.00    +0.155 HD
ATOM     37  N   UNL     1     -14.831 -26.962  -0.796  0.00  0.00    -0.214 NA
BRANCH   4   3
ATOM      1  C   UNL     1     -18.692 -29.225  -2.790  0.00  0.00    +0.020 A 
ATOM      2  C   UNL     1     -17.565 -28.328  -2.899  0.00  0.00    +0.013 A 
ATOM      3  C   UNL     1     -16.963 -27.739  -1.710  0.00  0.00    +0.019 A 
ATOM     38  C   UNL     1     -17.529 -28.083  -0.414  0.00  0.00    +0.120 A 
ATOM     39  N   UNL     1     -18.615 -28.949  -0.339  0.00  0.00    -0.263 NA
ATOM     40  C   UNL     1     -19.204 -29.520  -1.477  0.00  0.00    +0.111 A 
ENDBRANCH   4   3
ENDBRANCH  10   9
BRANCH  12  13
ATOM     13  N   UNL     1     -10.305 -22.646   2.326  0.00  0.00    -0.281 N 
ATOM     14  C   UNL     1      -9.868 -21.356   2.070  0.00  0.00    +0.248 C 
ATOM     30  O   UNL     1      -9.296 -21.010   1.047  0.00  0.00    -0.270 OA
ATOM     31  H   UNL     1     -10.587 -22.841   3.286  0.00  0.00    +0.155 HD
BRANCH  14  15
ATOM     15  C   UNL     1     -10.086 -20.301   3.106  0.00  0.00    +0.037 A 
ATOM     16  C   UNL     1      -9.235 -19.110   3.168  0.00  0.00    +0.013 A 
ATOM     17  C   UNL     1      -9.456 -18.116   4.189  0.00  0.00    +0.005 A 
ATOM     18  C   UNL     1     -10.533 -18.309   5.156  0.00  0.00    -0.033 A 
ATOM     28  C   UNL     1     -11.365 -19.498   5.068  0.00  0.00    +0.005 A 
ATOM     29  C   UNL     1     -11.152 -20.475   4.070  0.00  0.00    +0.013 A 
BRANCH  18  19
ATOM     19  C   UNL     1     -10.827 -17.311   6.291  0.00  0.00    +0.119 C 
BRANCH  19  20
ATOM     20  N   UNL     1     -10.324 -15.915   6.122  0.00  0.00    -0.302 NA
ATOM     21  C   UNL     1      -9.331 -15.526   7.220  0.00  0.00    +0.066 C 
ATOM     22  C   UNL     1      -8.798 -14.070   7.015  0.00  0.00    -0.064 C 
ATOM     23  N   UNL     1      -9.978 -13.098   6.982  0.00  0.00    +0.379 N 
ATOM     24  C   UNL     1      -9.476 -11.722   6.847  0.00  0.00    -0.096 C 
ATOM     25  H   UNL     1     -10.504 -13.171   7.962  0.00  0.00    -0.082 HD
ATOM     26  C   UNL     1     -10.972 -13.479   5.894  0.00  0.00    -0.064 C 
ATOM     27  C   UNL     1     -11.473 -14.938   6.091  0.00  0.00    +0.066 C 
ENDBRANCH  19  20
ENDBRANCH  18  19
ENDBRANCH  14  15
ENDBRANCH  12  13
TORSDOF 6
ENDMDL
MODEL 4
REMARK VINA RESULT:     -11.3      2.318     12.482
REMARK  Name = C:\Users\Docking\Desktop\test protocol\1iep_ligandH.pdb
REMARK  8 active torsions:
REMARK  status: ('A' for Active; 'I' for Inactive)
REMARK    1  A    between atoms: _5  and  _11
REMARK    2  A    between atoms: _19  and  _21
REMARK    3  A    between atoms: _22  and  _66
REMARK    4  A    between atoms: _27  and  _30
REMARK    5  A    between atoms: _32  and  _33
REMARK    6  A    between atoms: _38  and  _43
REMARK    7  A    between atoms: _43  and  _46
REMARK    8  A    between atoms: _53  and  _55
REMARK                            x       y       z     vdW  Elec       q    Type
REMARK                         _______ _______ _______ _____ _____    ______ ____
ROOT
ATOM     10  C   UNL     1     -12.397 -28.182   1.072  0.00  0.00    +0.038 A 
ATOM     11  C   UNL     1     -11.679 -29.294   1.582  0.00  0.00    +0.047 A 
ATOM     12  C   UNL     1     -11.888 -30.632   1.053  0.00  0.00    +0.035 A 
ATOM     32  C   UNL     1     -12.835 -30.802   0.001  0.00  0.00    +0.024 A 
ATOM     33  C   UNL     1     -13.575 -29.684  -0.529  0.00  0.00    +0.007 A 
ATOM     34  C   UNL     1     -13.374 -28.362  -0.009  0.00  0.00    -0.029 A 
ATOM     35  C   UNL     1     -14.200 -27.200  -0.610  0.00  0.00    +0.045 C 
ENDROOT
BRANCH  10   9
ATOM      4  C   UNL     1     -10.320 -23.856   0.977  0.00  0.00    +0.077 A 
ATOM      5  C   UNL     1      -9.635 -24.146  -0.250  0.00  0.00    +0.048 A 
ATOM      6  C   UNL     1      -9.839 -25.423  -0.820  0.00  0.00    +0.116 A 
ATOM      7  N   UNL     1     -10.668 -26.333  -0.201  0.00  0.00    -0.223 NA
ATOM      8  C   UNL     1     -11.312 -26.022   0.982  0.00  0.00    +0.220 A 
ATOM      9  N   UNL     1     -12.157 -26.919   1.617  0.00  0.00    -0.283 N 
ATOM     36  H   UNL     1     -12.608 -26.654   2.493  0.00  0.00    +0.155 HD
ATOM     37  N   UNL     1     -11.133 -24.810   1.548  0.00  0.00    -0.214 NA
BRANCH   4   3
ATOM      1  C   UNL     1      -9.330 -20.198   1.947  0.00  0.00    +0.020 A 
ATOM      2  C   UNL     1      -9.403 -21.439   1.210  0.00  0.00    +0.013 A 
ATOM      3  C   UNL     1     -10.210 -22.550   1.700  0.00  0.00    +0.019 A 
ATOM     38  C   UNL     1     -10.937 -22.370   2.947  0.00  0.00    +0.120 A 
ATOM     39  N   UNL     1     -10.847 -21.164   3.636  0.00  0.00    -0.263 NA
ATOM     40  C   UNL     1     -10.072 -20.089   3.175  0.00  0.00    +0.111 A 
ENDBRANCH   4   3
ENDBRANCH  10   9
BRANCH  12  13
ATOM     13  N   UNL     1     -11.194 -31.800   1.536  0.00  0.00    -0.281 N 
ATOM     14  C   UNL     1      -9.829 -31.974   1.696  0.00  0.00    +0.248 C 
ATOM     30  O   UNL     1      -8.978 -31.222   1.243  0.00  0.00    -0.270 OA
ATOM     31  H   UNL     1     -11.780 -32.594   1.792  0.00  0.00    +0.155 HD
BRANCH  14  15
ATOM     15  C   UNL     1      -9.336 -33.162   2.457  0.00  0.00    +0.037 A 
ATOM     16  C   UNL     1      -9.378 -34.507   1.876  0.00  0.00    +0.013 A 
ATOM     17  C   UNL     1      -8.912 -35.638   2.638  0.00  0.00    +0.005 A 
ATOM     18  C   UNL     1      -8.399 -35.429   3.990  0.00  0.00    -0.033 A 
ATOM     28  C   UNL     1      -8.365 -34.084   4.539  0.00  0.00    +0.005 A 
ATOM     29  C   UNL     1      -8.821 -32.973   3.796  0.00  0.00    +0.013 A 
BRANCH  18  19
ATOM     19  C   UNL     1      -7.901 -36.581   4.883  0.00  0.00    +0.119 C 
BRANCH  19  20
ATOM     20  N   UNL     1      -8.634 -36.820   6.162  0.00  0.00    -0.302 NA
ATOM     21  C   UNL     1      -8.215 -38.135   6.827  0.00  0.00    +0.066 C 
ATOM     22  C   UNL     1      -8.975 -38.358   8.175  0.00  0.00    -0.064 C 
ATOM     23  N   UNL     1     -10.482 -38.338   7.917  0.00  0.00    +0.379 N 
ATOM     24  C   UNL     1     -11.199 -38.606   9.173  0.00  0.00    -0.096 C 
ATOM     25  H   UNL     1     -10.715 -39.169   7.211  0.00  0.00    -0.082 HD
ATOM     26  C   UNL     1     -10.907 -37.036   7.253  0.00  0.00    -0.064 C 
ATOM     27  C   UNL     1     -10.125 -36.809   5.929  0.00  0.00    +0.066 C 
ENDBRANCH  19  20
ENDBRANCH  18  19
ENDBRANCH  14  15
ENDBRANCH  12  13
TORSDOF 6
ENDMDL
MODEL 5
REMARK VINA RESULT:     -11.2      2.868     12.968
REMARK  Name = C:\Users\Docking\Desktop\test protocol\1iep_ligandH.pdb
REMARK  8 active torsions:
REMARK  status: ('A' for Active; 'I' for Inactive)
REMARK    1  A    between atoms: _5  and  _11
REMARK    2  A    between atoms: _19  and  _21
REMARK    3  A    between atoms: _22  and  _66
REMARK    4  A    between atoms: _27  and  _30
REMARK    5  A    between atoms: _32  and  _33
REMARK    6  A    between atoms: _38  and  _43
REMARK    7  A    between atoms: _43  and  _46
REMARK    8  A    between atoms: _53  and  _55
REMARK                            x       y       z     vdW  Elec       q    Type
REMARK                         _______ _______ _______ _____ _____    ______ ____
ROOT
ATOM     10  C   UNL     1     -12.432 -27.883   0.926  0.00  0.00    +0.038 A 
ATOM     11  C   UNL     1     -11.856 -29.013   1.561  0.00  0.00    +0.047 A 
ATOM     12  C   UNL     1     -12.015 -30.349   1.009  0.00  0.00    +0.035 A 
ATOM     32  C   UNL     1     -12.765 -30.498  -0.194  0.00  0.00    +0.024 A 
ATOM     33  C   UNL     1     -13.358 -29.361  -0.852  0.00  0.00    +0.007 A 
ATOM     34  C   UNL     1     -13.207 -28.041  -0.311  0.00  0.00    -0.029 A 
ATOM     35  C   UNL     1     -13.870 -26.859  -1.056  0.00  0.00    +0.045 C 
ENDROOT
BRANCH  10   9
ATOM      4  C   UNL     1     -10.223 -23.629   1.178  0.00  0.00    +0.077 A 
ATOM      5  C   UNL     1      -9.344 -23.955   0.092  0.00  0.00    +0.048 A 
ATOM      6  C   UNL     1      -9.488 -25.230  -0.500  0.00  0.00    +0.116 A 
ATOM      7  N   UNL     1     -10.444 -26.106  -0.032  0.00  0.00    -0.223 NA
ATOM      8  C   UNL     1     -11.274 -25.761   1.018  0.00  0.00    +0.220 A 
ATOM      9  N   UNL     1     -12.247 -26.623   1.499  0.00  0.00    -0.283 N 
ATOM     36  H   UNL     1     -12.835 -26.334   2.281  0.00  0.00    +0.155 HD
ATOM     37  N   UNL     1     -11.156 -24.550   1.601  0.00  0.00    -0.214 NA
BRANCH   4   3
ATOM      1  C   UNL     1      -9.421 -19.936   2.186  0.00  0.00    +0.020 A 
ATOM      2  C   UNL     1      -9.412 -21.178   1.449  0.00  0.00    +0.013 A 
ATOM      3  C   UNL     1     -10.196 -22.320   1.903  0.00  0.00    +0.019 A 
ATOM     38  C   UNL     1     -10.986 -22.169   3.116  0.00  0.00    +0.120 A 
ATOM     39  N   UNL     1     -10.974 -20.961   3.806  0.00  0.00    -0.263 NA
ATOM     40  C   UNL     1     -10.222 -19.856   3.379  0.00  0.00    +0.111 A 
ENDBRANCH   4   3
ENDBRANCH  10   9
BRANCH  12  13
ATOM     13  N   UNL     1     -11.460 -31.534   1.615  0.00  0.00    -0.281 N 
ATOM     14  C   UNL     1     -10.124 -31.839   1.822  0.00  0.00    +0.248 C 
ATOM     30  O   UNL     1      -9.190 -31.229   1.323  0.00  0.00    -0.270 OA
ATOM     31  H   UNL     1     -12.133 -32.234   1.928  0.00  0.00    +0.155 HD
BRANCH  14  15
ATOM     15  C   UNL     1      -9.776 -32.997   2.701  0.00  0.00    +0.037 A 
ATOM     16  C   UNL     1     -10.621 -34.193   2.751  0.00  0.00    +0.013 A 
ATOM     17  C   UNL     1     -10.271 -35.289   3.620  0.00  0.00    +0.005 A 
ATOM     18  C   UNL     1      -9.069 -35.194   4.444  0.00  0.00    -0.033 A 
ATOM     28  C   UNL     1      -8.246 -33.998   4.370  0.00  0.00    +0.005 A 
ATOM     29  C   UNL     1      -8.586 -32.922   3.521  0.00  0.00    +0.013 A 
BRANCH  18  19
ATOM     19  C   UNL     1      -8.631 -36.306   5.415  0.00  0.00    +0.119 C 
BRANCH  19  20
ATOM     20  N   UNL     1      -8.271 -37.629   4.822  0.00  0.00    -0.302 NA
ATOM     21  C   UNL     1      -7.872 -38.649   5.893  0.00  0.00    +0.066 C 
ATOM     22  C   UNL     1      -7.521 -40.033   5.257  0.00  0.00    -0.064 C 
ATOM     23  N   UNL     1      -6.396 -39.852   4.237  0.00  0.00    +0.379 N 
ATOM     24  C   UNL     1      -6.023 -41.160   3.679  0.00  0.00    -0.096 C 
ATOM     25  H   UNL     1      -5.509 -39.450   4.779  0.00  0.00    -0.082 HD
ATOM     26  C   UNL     1      -6.783 -38.837   3.170  0.00  0.00    -0.064 C 
ATOM     27  C   UNL     1      -7.158 -37.474   3.815  0.00  0.00    +0.066 C 
ENDBRANCH  19  20
ENDBRANCH  18  19
ENDBRANCH  14  15
ENDBRANCH  12  13
TORSDOF 6
ENDMDL
