MODEL 1
REMARK VINA RESULT:     -11.0      0.000      0.000
REMARK  Name = C:\Users\Docking\Desktop\test protocol\1iep_ligandH.pdb
REMARK  8 active torsions:
REMARK  status: ('A' for Active; 'I' for Inactive)
REMARK    1  A    between atoms: _5  and  _11
REMARK    2  A    between atoms: _19  and  _21
REMARK    3  A    between atoms: _22  and  _66
REMARK    4  A    between atoms: _27  and  _30
REMARK    5  A    between atoms: _32  and  _33
REMARK    6  A    between atoms: _38  and  _43
REMARK    7  A    between atoms: _43  and  _46
REMARK    8  A    between atoms: _53  and  _55
REMARK                            x       y       z     vdW  Elec       q    Type
REMARK                         _______ _______ _______ _____ _____    ______ ____
ROOT
ATOM     10  C   UNL     1     -11.590 -25.613   0.370  0.00  0.00    +0.038 A 
ATOM     11  C   UNL     1     -11.548 -24.531   1.286  0.00  0.00    +0.047 A 
ATOM     12  C   UNL     1     -10.367 -23.689   1.402  0.00  0.00    +0.035 A 
ATOM     32  C   UNL     1      -9.248 -23.977   0.568  0.00  0.00    +0.024 A 
ATOM     33  C   UNL     1      -9.273 -25.073  -0.367  0.00  0.00    +0.007 A 
ATOM     34  C   UNL     1     -10.434 -25.908  -0.485  0.00  0.00    -0.029 A 
ATOM     35  C   UNL     1     -10.403 -27.074  -1.501  0.00  0.00    +0.045 C 
ENDROOT
BRANCH  10   9
ATOM      4  C   UNL     1     -15.775 -26.795  -1.662  0.00  0.00    +0.077 A 
ATOM      5  C   UNL     1     -15.653 -25.763  -2.651  0.00  0.00    +0.048 A 
ATOM      6  C   UNL     1     -14.503 -24.945  -2.598  0.00  0.00    +0.116 A 
ATOM      7  N   UNL     1     -13.550 -25.153  -1.624  0.00  0.00    -0.223 NA
ATOM      8  C   UNL     1     -13.699 -26.156  -0.684  0.00  0.00    +0.220 A 
ATOM      9  N   UNL     1     -12.750 -26.388   0.300  0.00  0.00    -0.283 N 
ATOM     36  H   UNL     1     -12.900 -27.134   0.979  0.00  0.00    +0.155 HD
ATOM     37  N   UNL     1     -14.790 -26.950  -0.713  0.00  0.00    -0.214 NA
BRANCH   4   3
ATOM      1  C   UNL     1     -18.775 -29.106  -2.642  0.00  0.00    +0.020 A 
ATOM      2  C   UNL     1     -17.666 -28.189  -2.767  0.00  0.00    +0.013 A 
ATOM      3  C   UNL     1     -16.931 -27.743  -1.590  0.00  0.00    +0.019 A 
ATOM     38  C   UNL     1     -17.348 -28.249  -0.290  0.00  0.00    +0.120 A 
ATOM     39  N   UNL     1     -18.421 -29.130  -0.200  0.00  0.00    -0.263 NA
ATOM     40  C   UNL     1     -19.136 -29.564  -1.326  0.00  0.00    +0.111 A 
ENDBRANCH   4   3
ENDBRANCH  10   9
BRANCH  12  13
ATOM     13  N   UNL     1     -10.264 -22.582   2.320  0.00  0.00    -0.281 N 
ATOM     14  C   UNL     1      -9.852 -21.287   2.049  0.00  0.00    +0.248 C 
ATOM     30  O   UNL     1      -9.304 -20.939   1.014  0.00  0.00    -0.270 OA
ATOM     31  H   UNL     1     -10.526 -22.776   3.287  0.00  0.00    +0.155 HD
BRANCH  14  15
ATOM     15  C   UNL     1     -10.067 -20.230   3.083  0.00  0.00    +0.037 A 
ATOM     16  C   UNL     1      -9.228 -19.029   3.129  0.00  0.00    +0.013 A 
ATOM     17  C   UNL     1      -9.446 -18.033   4.147  0.00  0.00    +0.005 A 
ATOM     18  C   UNL     1     -10.511 -18.232   5.128  0.00  0.00    -0.033 A 
ATOM     28  C   UNL     1     -11.332 -19.430   5.056  0.00  0.00    +0.005 A 
ATOM     29  C   UNL     1     -11.120 -20.409   4.060  0.00  0.00    +0.013 A 
BRANCH  18  19
ATOM     19  C   UNL     1     -10.801 -17.232   6.262  0.00  0.00    +0.119 C 
BRANCH  19  20
ATOM     20  N   UNL     1     -10.299 -15.836   6.088  0.00  0.00    -0.302 NA
ATOM     21  C   UNL     1      -9.314 -15.438   7.191  0.00  0.00    +0.066 C 
ATOM     22  C   UNL     1      -8.782 -13.983   6.980  0.00  0.00    -0.064 C 
ATOM     23  N   UNL     1      -9.963 -13.012   6.933  0.00  0.00    +0.379 N 
ATOM     24  C   UNL     1      -9.463 -11.637   6.793  0.00  0.00    -0.096 C 
ATOM     25  H   UNL     1     -10.496 -13.081   7.910  0.00  0.00    -0.082 HD
ATOM     26  C   UNL     1     -10.949 -13.403   5.841  0.00  0.00    -0.064 C 
ATOM     27  C   UNL     1     -11.449 -14.860   6.043  0.00  0.00    +0.066 C 
ENDBRANCH  19  20
ENDBRANCH  18  19
ENDBRANCH  14  15
ENDBRANCH  12  13
TORSDOF 6
ENDMDL
MODEL 2
REMARK VINA RESULT:     -10.9      5.723      7.915
REMARK  Name = C:\Users\Docking\Desktop\test protocol\1iep_ligandH.pdb
REMARK  8 active torsions:
REMARK  status: ('A' for Active; 'I' for Inactive)
REMARK    1  A    between atoms: _5  and  _11
REMARK    2  A    between atoms: _19  and  _21
REMARK    3  A    between atoms: _22  and  _66
REMARK    4  A    between atoms: _27  and  _30
REMARK    5  A    between atoms: _32  and  _33
REMARK    6  A    between atoms: _38  and  _43
REMARK    7  A    between atoms: _43  and  _46
REMARK    8  A    between atoms: _53  and  _55
REMARK                            x       y       z     vdW  Elec       q    Type
REMARK                         _______ _______ _______ _____ _____    ______ ____
ROOT
ATOM     10  C   UNL     1     -11.459 -30.367   0.438  0.00  0.00    +0.038 A 
ATOM     11  C   UNL     1     -10.833 -29.130   0.739  0.00  0.00    +0.047 A 
ATOM     12  C   UNL     1     -11.596 -27.892   0.786  0.00  0.00    +0.035 A 
ATOM     32  C   UNL     1     -12.996 -27.951   0.523  0.00  0.00    +0.024 A 
ATOM     33  C   UNL     1     -13.648 -29.200   0.215  0.00  0.00    +0.007 A 
ATOM     34  C   UNL     1     -12.901 -30.423   0.165  0.00  0.00    -0.029 A 
ATOM     35  C   UNL     1     -13.651 -31.732  -0.177  0.00  0.00    +0.045 C 
ENDROOT
BRANCH  10   9
ATOM      4  C   UNL     1      -9.394 -34.138   2.571  0.00  0.00    +0.077 A 
ATOM      5  C   UNL     1      -9.889 -33.754   3.862  0.00  0.00    +0.048 A 
ATOM      6  C   UNL     1     -10.666 -32.576   3.935  0.00  0.00    +0.116 A 
ATOM      7  N   UNL     1     -10.922 -31.844   2.796  0.00  0.00    -0.223 NA
ATOM      8  C   UNL     1     -10.427 -32.241   1.567  0.00  0.00    +0.220 A 
ATOM      9  N   UNL     1     -10.679 -31.525   0.407  0.00  0.00    -0.283 N 
ATOM     36  H   UNL     1     -10.290 -31.846  -0.479  0.00  0.00    +0.155 HD
ATOM     37  N   UNL     1      -9.682 -33.362   1.471  0.00  0.00    -0.214 NA
BRANCH   4   3
ATOM      1  C   UNL     1      -7.213 -36.890   0.847  0.00  0.00    +0.020 A 
ATOM      2  C   UNL     1      -8.011 -35.699   1.025  0.00  0.00    +0.013 A 
ATOM      3  C   UNL     1      -8.561 -35.359   2.331  0.00  0.00    +0.019 A 
ATOM     38  C   UNL     1      -8.282 -36.252   3.446  0.00  0.00    +0.120 A 
ATOM     39  N   UNL     1      -7.511 -37.393   3.244  0.00  0.00    -0.263 NA
ATOM     40  C   UNL     1      -6.978 -37.731   1.991  0.00  0.00    +0.111 A 
ENDBRANCH   4   3
ENDBRANCH  10   9
BRANCH  12  13
ATOM     13  N   UNL     1     -11.014 -26.606   1.077  0.00  0.00    -0.281 N 
ATOM     14  C   UNL     1     -11.114 -25.438   0.339  0.00  0.00    +0.248 C 
ATOM     30  O   UNL     1     -11.546 -25.378  -0.803  0.00  0.00    -0.270 OA
ATOM     31  H   UNL     1     -10.460 -26.549   1.932  0.00  0.00    +0.155 HD
BRANCH  14  15
ATOM     15  C   UNL     1     -10.655 -24.155   0.951  0.00  0.00    +0.037 A 
ATOM     16  C   UNL     1     -11.239 -23.656   2.199  0.00  0.00    +0.013 A 
ATOM     17  C   UNL     1     -10.789 -22.406   2.759  0.00  0.00    +0.005 A 
ATOM     18  C   UNL     1      -9.748 -21.647   2.071  0.00  0.00    -0.033 A 
ATOM     28  C   UNL     1      -9.182 -22.167   0.838  0.00  0.00    +0.005 A 
ATOM     29  C   UNL     1      -9.621 -23.391   0.285  0.00  0.00    +0.013 A 
BRANCH  18  19
ATOM     19  C   UNL     1      -9.222 -20.293   2.586  0.00  0.00    +0.119 C 
BRANCH  19  20
ATOM     20  N   UNL     1     -10.164 -19.453   3.385  0.00  0.00    -0.302 NA
ATOM     21  C   UNL     1      -9.486 -18.195   3.933  0.00  0.00    +0.066 C 
ATOM     22  C   UNL     1     -10.491 -17.316   4.748  0.00  0.00    -0.064 C 
ATOM     23  N   UNL     1     -11.088 -18.149   5.883  0.00  0.00    +0.379 N 
ATOM     24  C   UNL     1     -11.989 -17.309   6.686  0.00  0.00    -0.096 C 
ATOM     25  H   UNL     1     -10.249 -18.471   6.543  0.00  0.00    -0.082 HD
ATOM     26  C   UNL     1     -11.761 -19.404   5.347  0.00  0.00    -0.064 C 
ATOM     27  C   UNL     1     -10.762 -20.255   4.514  0.00  0.00    +0.066 C 
ENDBRANCH  19  20
ENDBRANCH  18  19
ENDBRANCH  14  15
ENDBRANCH  12  13
TORSDOF 6
ENDMDL
MODEL 3
REMARK VINA RESULT:     -10.9      7.842     14.547
REMARK  Name = C:\Users\Docking\Desktop\test protocol\1iep_ligandH.pdb
REMARK  8 active torsions:
REMARK  status: ('A' for Active; 'I' for Inactive)
REMARK    1  A    between atoms: _5  and  _11
REMARK    2  A    between atoms: _19  and  _21
REMARK    3  A    between atoms: _22  and  _66
REMARK    4  A    between atoms: _27  and  _30
REMARK    5  A    between atoms: _32  and  _33
REMARK    6  A    between atoms: _38  and  _43
REMARK    7  A    between atoms: _43  and  _46
REMARK    8  A    between atoms: _53  and  _55
REMARK                            x       y       z     vdW  Elec       q    Type
REMARK                         _______ _______ _______ _____ _____    ______ ____
ROOT
ATOM     10  C   UNL     1     -12.509 -28.011   1.033  0.00  0.00    +0.038 A 
ATOM     11  C   UNL     1     -11.901 -29.121   1.672  0.00  0.00    +0.047 A 
ATOM     12  C   UNL     1     -12.077 -30.472   1.163  0.00  0.00    +0.035 A 
ATOM     32  C   UNL     1     -12.878 -30.656  -0.002  0.00  0.00    +0.024 A 
ATOM     33  C   UNL     1     -13.505 -29.539  -0.664  0.00  0.00    +0.007 A 
ATOM     34  C   UNL     1     -13.336 -28.204  -0.165  0.00  0.00    -0.029 A 
ATOM     35  C   UNL     1     -14.037 -27.045  -0.911  0.00  0.00    +0.045 C 
ENDROOT
BRANCH  10   9
ATOM      4  C   UNL     1     -10.261 -23.771   1.123  0.00  0.00    +0.077 A 
ATOM      5  C   UNL     1      -9.400 -24.138   0.037  0.00  0.00    +0.048 A 
ATOM      6  C   UNL     1      -9.562 -25.430  -0.513  0.00  0.00    +0.116 A 
ATOM      7  N   UNL     1     -10.519 -26.282  -0.006  0.00  0.00    -0.223 NA
ATOM      8  C   UNL     1     -11.333 -25.897   1.044  0.00  0.00    +0.220 A 
ATOM      9  N   UNL     1     -12.307 -26.735   1.564  0.00  0.00    -0.283 N 
ATOM     36  H   UNL     1     -12.882 -26.417   2.344  0.00  0.00    +0.155 HD
ATOM     37  N   UNL     1     -11.196 -24.670   1.587  0.00  0.00    -0.214 NA
BRANCH   4   3
ATOM      1  C   UNL     1      -9.447 -20.043   1.983  0.00  0.00    +0.020 A 
ATOM      2  C   UNL     1      -9.460 -21.307   1.284  0.00  0.00    +0.013 A 
ATOM      3  C   UNL     1     -10.213 -22.440   1.807  0.00  0.00    +0.019 A 
ATOM     38  C   UNL     1     -10.949 -22.259   3.049  0.00  0.00    +0.120 A 
ATOM     39  N   UNL     1     -10.917 -21.030   3.701  0.00  0.00    -0.263 NA
ATOM     40  C   UNL     1     -10.194 -19.933   3.208  0.00  0.00    +0.111 A 
ENDBRANCH   4   3
ENDBRANCH  10   9
BRANCH  12  13
ATOM     13  N   UNL     1     -11.490 -31.639   1.774  0.00  0.00    -0.281 N 
ATOM     14  C   UNL     1     -10.147 -31.954   1.891  0.00  0.00    +0.248 C 
ATOM     30  O   UNL     1      -9.248 -31.381   1.294  0.00  0.00    -0.270 OA
ATOM     31  H   UNL     1     -12.145 -32.314   2.169  0.00  0.00    +0.155 HD
BRANCH  14  15
ATOM     15  C   UNL     1      -9.745 -33.079   2.789  0.00  0.00    +0.037 A 
ATOM     16  C   UNL     1      -8.577 -32.970   3.668  0.00  0.00    +0.013 A 
ATOM     17  C   UNL     1      -8.201 -34.077   4.512  0.00  0.00    +0.005 A 
ATOM     18  C   UNL     1      -8.996 -35.302   4.482  0.00  0.00    -0.033 A 
ATOM     28  C   UNL     1     -10.152 -35.382   3.605  0.00  0.00    +0.005 A 
ATOM     29  C   UNL     1     -10.523 -34.300   2.775  0.00  0.00    +0.013 A 
BRANCH  18  19
ATOM     19  C   UNL     1      -8.656 -36.540   5.333  0.00  0.00    +0.119 C 
BRANCH  19  20
ATOM     20  N   UNL     1      -8.252 -37.780   4.605  0.00  0.00    -0.302 NA
ATOM     21  C   UNL     1      -7.816 -38.893   5.563  0.00  0.00    +0.066 C 
ATOM     22  C   UNL     1      -7.418 -40.190   4.786  0.00  0.00    -0.064 C 
ATOM     23  N   UNL     1      -6.302 -39.863   3.793  0.00  0.00    +0.379 N 
ATOM     24  C   UNL     1      -5.886 -41.092   3.102  0.00  0.00    -0.096 C 
ATOM     25  H   UNL     1      -5.429 -39.490   4.376  0.00  0.00    -0.082 HD
ATOM     26  C   UNL     1      -6.726 -38.756   2.838  0.00  0.00    -0.064 C 
ATOM     27  C   UNL     1      -7.147 -37.482   3.621  0.00  0.00    +0.066 C 
ENDBRANCH  19  20
ENDBRANCH  18  19
ENDBRANCH  14  15
ENDBRANCH  12  13
TORSDOF 6
ENDMDL
MODEL 4
REMARK VINA RESULT:     -10.9      7.105     14.317
REMARK  Name = C:\Users\Docking\Desktop\test protocol\1iep_ligandH.pdb
REMARK  8 active torsions:
REMARK  status: ('A' for Active; 'I' for Inactive)
REMARK    1  A    between atoms: _5  and  _11
REMARK    2  A    between atoms: _19  and  _21
REMARK    3  A    between atoms: _22  and  _66
REMARK    4  A    between atoms: _27  and  _30
REMARK    5  A    between atoms: _32  and  _33
REMARK    6  A    between atoms: _38  and  _43
REMARK    7  A    between atoms: _43  and  _46
REMARK    8  A    between atoms: _53  and  _55
REMARK                            x       y       z     vdW  Elec       q    Type
REMARK                         _______ _______ _______ _____ _____    ______ ____
ROOT
ATOM     10  C   UNL     1     -11.999 -26.677   0.501  0.00  0.00    +0.038 A 
ATOM     11  C   UNL     1     -11.326 -27.852   0.924  0.00  0.00    +0.047 A 
ATOM     12  C   UNL     1     -11.288 -29.040   0.086  0.00  0.00    +0.035 A 
ATOM     32  C   UNL     1     -11.942 -28.996  -1.180  0.00  0.00    +0.024 A 
ATOM     33  C   UNL     1     -12.632 -27.811  -1.625  0.00  0.00    +0.007 A 
ATOM     34  C   UNL     1     -12.675 -26.636  -0.801  0.00  0.00    -0.029 A 
ATOM     35  C   UNL     1     -13.434 -25.396  -1.327  0.00  0.00    +0.045 C 
ENDROOT
BRANCH  10   9
ATOM      4  C   UNL     1     -10.243 -22.451   1.946  0.00  0.00    +0.077 A 
ATOM      5  C   UNL     1      -9.210 -22.473   0.951  0.00  0.00    +0.048 A 
ATOM      6  C   UNL     1      -9.161 -23.593   0.091  0.00  0.00    +0.116 A 
ATOM      7  N   UNL     1     -10.081 -24.609   0.226  0.00  0.00    -0.223 NA
ATOM      8  C   UNL     1     -11.064 -24.558   1.198  0.00  0.00    +0.220 A 
ATOM      9  N   UNL     1     -12.005 -25.565   1.346  0.00  0.00    -0.283 N 
ATOM     36  H   UNL     1     -12.709 -25.494   2.080  0.00  0.00    +0.155 HD
ATOM     37  N   UNL     1     -11.131 -23.500   2.032  0.00  0.00    -0.214 NA
BRANCH   4   3
ATOM      1  C   UNL     1      -9.879 -19.047   3.839  0.00  0.00    +0.020 A 
ATOM      2  C   UNL     1      -9.663 -20.095   2.868  0.00  0.00    +0.013 A 
ATOM      3  C   UNL     1     -10.427 -21.334   2.926  0.00  0.00    +0.019 A 
ATOM     38  C   UNL     1     -11.412 -21.483   3.987  0.00  0.00    +0.120 A 
ATOM     39  N   UNL     1     -11.598 -20.457   4.909  0.00  0.00    -0.263 NA
ATOM     40  C   UNL     1     -10.867 -19.261   4.864  0.00  0.00    +0.111 A 
ENDBRANCH   4   3
ENDBRANCH  10   9
BRANCH  12  13
ATOM     13  N   UNL     1     -10.627 -30.264   0.466  0.00  0.00    -0.281 N 
ATOM     14  C   UNL     1     -11.094 -31.256   1.312  0.00  0.00    +0.248 C 
ATOM     30  O   UNL     1     -12.066 -31.140   2.043  0.00  0.00    -0.270 OA
ATOM     31  H   UNL     1      -9.703 -30.418   0.061  0.00  0.00    +0.155 HD
BRANCH  14  15
ATOM     15  C   UNL     1     -10.368 -32.562   1.365  0.00  0.00    +0.037 A 
ATOM     16  C   UNL     1      -9.100 -32.697   2.088  0.00  0.00    +0.013 A 
ATOM     17  C   UNL     1      -8.411 -33.963   2.109  0.00  0.00    +0.005 A 
ATOM     18  C   UNL     1      -8.990 -35.105   1.405  0.00  0.00    -0.033 A 
ATOM     28  C   UNL     1     -10.251 -34.944   0.701  0.00  0.00    +0.005 A 
ATOM     29  C   UNL     1     -10.929 -33.704   0.677  0.00  0.00    +0.013 A 
BRANCH  18  19
ATOM     19  C   UNL     1      -8.314 -36.488   1.357  0.00  0.00    +0.119 C 
BRANCH  19  20
ATOM     20  N   UNL     1      -7.832 -37.059   2.650  0.00  0.00    -0.302 NA
ATOM     21  C   UNL     1      -7.115 -38.398   2.454  0.00  0.00    +0.066 C 
ATOM     22  C   UNL     1      -6.598 -38.971   3.814  0.00  0.00    -0.064 C 
ATOM     23  N   UNL     1      -7.775 -39.122   4.780  0.00  0.00    +0.379 N 
ATOM     24  C   UNL     1      -7.302 -39.715   6.040  0.00  0.00    -0.096 C 
ATOM     25  H   UNL     1      -8.498 -39.835   4.322  0.00  0.00    -0.082 HD
ATOM     26  C   UNL     1      -8.495 -37.796   4.978  0.00  0.00    -0.064 C 
ATOM     27  C   UNL     1      -8.979 -37.222   3.617  0.00  0.00    +0.066 C 
ENDBRANCH  19  20
ENDBRANCH  18  19
ENDBRANCH  14  15
ENDBRANCH  12  13
TORSDOF 6
ENDMDL
MODEL 5
REMARK VINA RESULT:     -10.9      7.800     14.033
REMARK  Name = C:\Users\Docking\Desktop\test protocol\1iep_ligandH.pdb
REMARK  8 active torsions:
REMARK  status: ('A' for Active; 'I' for Inactive)
REMARK    1  A    between atoms: _5  and  _11
REMARK    2  A    between atoms: _19  and  _21
REMARK    3  A    between atoms: _22  and  _66
REMARK    4  A    between atoms: _27  and  _30
REMARK    5  A    between atoms: _32  and  _33
REMARK    6  A    between atoms: _38  and  _43
REMARK    7  A    between atoms: _43  and  _46
REMARK    8  A    between atoms: _53  and  _55
REMARK                            x       y       z     vdW  Elec       q    Type
REMARK                         _______ _______ _______ _____ _____    ______ ____
ROOT
ATOM     10  C   UNL     1     -12.470 -28.224   1.051  0.00  0.00    +0.038 A 
ATOM     11  C   UNL     1     -11.743 -29.326   1.568  0.00  0.00    +0.047 A 
ATOM     12  C   UNL     1     -11.948 -30.671   1.053  0.00  0.00    +0.035 A 
ATOM     32  C   UNL     1     -12.900 -30.856   0.009  0.00  0.00    +0.024 A 
ATOM     33  C   UNL     1     -13.648 -29.747  -0.528  0.00  0.00    +0.007 A 
ATOM     34  C   UNL     1     -13.452 -28.419  -0.022  0.00  0.00    -0.029 A 
ATOM     35  C   UNL     1     -14.287 -27.268  -0.630  0.00  0.00    +0.045 C 
ENDROOT
BRANCH  10   9
ATOM      4  C   UNL     1     -10.325 -23.931   0.964  0.00  0.00    +0.077 A 
ATOM      5  C   UNL     1      -9.594 -24.255  -0.227  0.00  0.00    +0.048 A 
ATOM      6  C   UNL     1      -9.792 -25.539  -0.781  0.00  0.00    +0.116 A 
ATOM      7  N   UNL     1     -10.661 -26.425  -0.181  0.00  0.00    -0.223 NA
ATOM      8  C   UNL     1     -11.349 -26.081   0.967  0.00  0.00    +0.220 A 
ATOM      9  N   UNL     1     -12.233 -26.954   1.583  0.00  0.00    -0.283 N 
ATOM     36  H   UNL     1     -12.716 -26.665   2.434  0.00  0.00    +0.155 HD
ATOM     37  N   UNL     1     -11.176 -24.862   1.517  0.00  0.00    -0.214 NA
BRANCH   4   3
ATOM      1  C   UNL     1      -9.361 -20.252   1.879  0.00  0.00    +0.020 A 
ATOM      2  C   UNL     1      -9.424 -21.505   1.162  0.00  0.00    +0.013 A 
ATOM      3  C   UNL     1     -10.225 -22.612   1.667  0.00  0.00    +0.019 A 
ATOM     38  C   UNL     1     -10.957 -22.418   2.909  0.00  0.00    +0.120 A 
ATOM     39  N   UNL     1     -10.876 -21.201   3.579  0.00  0.00    -0.263 NA
ATOM     40  C   UNL     1     -10.107 -20.129   3.103  0.00  0.00    +0.111 A 
ENDBRANCH   4   3
ENDBRANCH  10   9
BRANCH  12  13
ATOM     13  N   UNL     1     -11.245 -31.830   1.545  0.00  0.00    -0.281 N 
ATOM     14  C   UNL     1      -9.878 -31.996   1.696  0.00  0.00    +0.248 C 
ATOM     30  O   UNL     1      -9.034 -31.245   1.228  0.00  0.00    -0.270 OA
ATOM     31  H   UNL     1     -11.825 -32.624   1.814  0.00  0.00    +0.155 HD
BRANCH  14  15
ATOM     15  C   UNL     1      -9.374 -33.174   2.466  0.00  0.00    +0.037 A 
ATOM     16  C   UNL     1      -9.312 -34.507   1.861  0.00  0.00    +0.013 A 
ATOM     17  C   UNL     1      -8.838 -35.629   2.632  0.00  0.00    +0.005 A 
ATOM     18  C   UNL     1      -8.421 -35.422   4.016  0.00  0.00    -0.033 A 
ATOM     28  C   UNL     1      -8.488 -34.088   4.589  0.00  0.00    +0.005 A 
ATOM     29  C   UNL     1      -8.953 -32.986   3.838  0.00  0.00    +0.013 A 
BRANCH  18  19
ATOM     19  C   UNL     1      -7.922 -36.566   4.919  0.00  0.00    +0.119 C 
BRANCH  19  20
ATOM     20  N   UNL     1      -8.691 -36.834   6.171  0.00  0.00    -0.302 NA
ATOM     21  C   UNL     1      -8.211 -38.104   6.879  0.00  0.00    +0.066 C 
ATOM     22  C   UNL     1      -9.012 -38.357   8.198  0.00  0.00    -0.064 C 
ATOM     23  N   UNL     1     -10.504 -38.448   7.876  0.00  0.00    +0.379 N 
ATOM     24  C   UNL     1     -11.254 -38.743   9.106  0.00  0.00    -0.096 C 
ATOM     25  H   UNL     1     -10.648 -39.304   7.178  0.00  0.00    -0.082 HD
ATOM     26  C   UNL     1     -10.989 -37.190   7.169  0.00  0.00    -0.064 C 
ATOM     27  C   UNL     1     -10.168 -36.931   5.876  0.00  0.00    +0.066 C 
ENDBRANCH  19  20
ENDBRANCH  18  19
ENDBRANCH  14  15
ENDBRANCH  12  13
TORSDOF 6
ENDMDL
