MODEL 1
REMARK VINA RESULT:     -11.4      0.000      0.000
REMARK  Name = C:\Users\Docking\Desktop\test protocol\1iep_ligandH.pdb
REMARK  8 active torsions:
REMARK  status: ('A' for Active; 'I' for Inactive)
REMARK    1  A    between atoms: _5  and  _11
REMARK    2  A    between atoms: _19  and  _21
REMARK    3  A    between atoms: _22  and  _66
REMARK    4  A    between atoms: _27  and  _30
REMARK    5  A    between atoms: _32  and  _33
REMARK    6  A    between atoms: _38  and  _43
REMARK    7  A    between atoms: _43  and  _46
REMARK    8  A    between atoms: _53  and  _55
REMARK                            x       y       z     vdW  Elec       q    Type
REMARK                         _______ _______ _______ _____ _____    ______ ____
ROOT
ATOM     10  C   UNL     1     -11.606 -30.026   0.872  0.00  0.00    +0.038 A 
ATOM     11  C   UNL     1     -11.197 -28.714   1.221  0.00  0.00    +0.047 A 
ATOM     12  C   UNL     1     -11.030 -27.684   0.207  0.00  0.00    +0.035 A 
ATOM     32  C   UNL     1     -11.292 -28.024  -1.152  0.00  0.00    +0.024 A 
ATOM     33  C   UNL     1     -11.708 -29.354  -1.524  0.00  0.00    +0.007 A 
ATOM     34  C   UNL     1     -11.872 -30.375  -0.529  0.00  0.00    -0.029 A 
ATOM     35  C   UNL     1     -12.314 -31.784  -0.986  0.00  0.00    +0.045 C 
ENDROOT
BRANCH  10   9
ATOM      4  C   UNL     1      -9.851 -33.435   3.759  0.00  0.00    +0.077 A 
ATOM      5  C   UNL     1      -8.542 -33.334   3.181  0.00  0.00    +0.048 A 
ATOM      6  C   UNL     1      -8.364 -32.397   2.138  0.00  0.00    +0.116 A 
ATOM      7  N   UNL     1      -9.423 -31.625   1.714  0.00  0.00    -0.223 NA
ATOM      8  C   UNL     1     -10.673 -31.749   2.292  0.00  0.00    +0.220 A 
ATOM      9  N   UNL     1     -11.751 -30.976   1.886  0.00  0.00    -0.283 N 
ATOM     36  H   UNL     1     -12.659 -31.103   2.332  0.00  0.00    +0.155 HD
ATOM     37  N   UNL     1     -10.869 -32.637   3.288  0.00  0.00    -0.214 NA
BRANCH   4   3
ATOM      1  C   UNL     1     -11.605 -35.093   6.838  0.00  0.00    +0.020 A 
ATOM      2  C   UNL     1     -11.315 -34.153   5.780  0.00  0.00    +0.013 A 
ATOM      3  C   UNL     1     -10.196 -34.376   4.872  0.00  0.00    +0.019 A 
ATOM     38  C   UNL     1      -9.386 -35.569   5.063  0.00  0.00    +0.120 A 
ATOM     39  N   UNL     1      -9.689 -36.456   6.091  0.00  0.00    -0.263 NA
ATOM     40  C   UNL     1     -10.762 -36.251   6.972  0.00  0.00    +0.111 A 
ENDBRANCH   4   3
ENDBRANCH  10   9
BRANCH  12  13
ATOM     13  N   UNL     1     -10.609 -26.336   0.500  0.00  0.00    -0.281 N 
ATOM     14  C   UNL     1     -11.389 -25.193   0.554  0.00  0.00    +0.248 C 
ATOM     30  O   UNL     1     -12.539 -25.121   0.147  0.00  0.00    -0.270 OA
ATOM     31  H   UNL     1      -9.614 -26.210   0.691  0.00  0.00    +0.155 HD
BRANCH  14  15
ATOM     15  C   UNL     1     -10.802 -23.945   1.131  0.00  0.00    +0.037 A 
ATOM     16  C   UNL     1     -11.268 -23.408   2.412  0.00  0.00    +0.013 A 
ATOM     17  C   UNL     1     -10.697 -22.193   2.938  0.00  0.00    +0.005 A 
ATOM     18  C   UNL     1      -9.652 -21.508   2.182  0.00  0.00    -0.033 A 
ATOM     28  C   UNL     1      -9.204 -22.066   0.917  0.00  0.00    +0.005 A 
ATOM     29  C   UNL     1      -9.762 -23.256   0.398  0.00  0.00    +0.013 A 
BRANCH  18  19
ATOM     19  C   UNL     1      -9.001 -20.195   2.657  0.00  0.00    +0.119 C 
BRANCH  19  20
ATOM     20  N   UNL     1      -9.869 -19.228   3.391  0.00  0.00    -0.302 NA
ATOM     21  C   UNL     1      -9.102 -17.970   3.810  0.00  0.00    +0.066 C 
ATOM     22  C   UNL     1     -10.032 -16.959   4.557  0.00  0.00    -0.064 C 
ATOM     23  N   UNL     1     -10.652 -17.646   5.775  0.00  0.00    +0.379 N 
ATOM     24  C   UNL     1     -11.481 -16.681   6.513  0.00  0.00    -0.096 C 
ATOM     25  H   UNL     1      -9.820 -17.960   6.447  0.00  0.00    -0.082 HD
ATOM     26  C   UNL     1     -11.414 -18.899   5.368  0.00  0.00    -0.064 C 
ATOM     27  C   UNL     1     -10.489 -19.884   4.601  0.00  0.00    +0.066 C 
ENDBRANCH  19  20
ENDBRANCH  18  19
ENDBRANCH  14  15
ENDBRANCH  12  13
TORSDOF 6
ENDMDL
MODEL 2
REMARK VINA RESULT:     -11.4      2.410     12.800
REMARK  Name = C:\Users\Docking\Desktop\test protocol\1iep_ligandH.pdb
REMARK  8 active torsions:
REMARK  status: ('A' for Active; 'I' for Inactive)
REMARK    1  A    between atoms: _5  and  _11
REMARK    2  A    between atoms: _19  and  _21
REMARK    3  A    between atoms: _22  and  _66
REMARK    4  A    between atoms: _27  and  _30
REMARK    5  A    between atoms: _32  and  _33
REMARK    6  A    between atoms: _38  and  _43
REMARK    7  A    between atoms: _43  and  _46
REMARK    8  A    between atoms: _53  and  _55
REMARK                            x       y       z     vdW  Elec       q    Type
REMARK                         _______ _______ _______ _____ _____    ______ ____
ROOT
ATOM     10  C   UNL     1     -11.969 -26.546   0.591  0.00  0.00    +0.038 A 
ATOM     11  C   UNL     1     -11.329 -27.726   1.047  0.00  0.00    +0.047 A 
ATOM     12  C   UNL     1     -11.281 -28.923   0.221  0.00  0.00    +0.035 A 
ATOM     32  C   UNL     1     -11.893 -28.881  -1.065  0.00  0.00    +0.024 A 
ATOM     33  C   UNL     1     -12.549 -27.690  -1.544  0.00  0.00    +0.007 A 
ATOM     34  C   UNL     1     -12.601 -26.507  -0.733  0.00  0.00    -0.029 A 
ATOM     35  C   UNL     1     -13.323 -25.260  -1.295  0.00  0.00    +0.045 C 
ENDROOT
BRANCH  10   9
ATOM      4  C   UNL     1     -10.224 -22.310   2.025  0.00  0.00    +0.077 A 
ATOM      5  C   UNL     1      -9.175 -22.345   1.047  0.00  0.00    +0.048 A 
ATOM      6  C   UNL     1      -9.115 -23.473   0.199  0.00  0.00    +0.116 A 
ATOM      7  N   UNL     1     -10.041 -24.486   0.328  0.00  0.00    -0.223 NA
ATOM      8  C   UNL     1     -11.039 -24.422   1.283  0.00  0.00    +0.220 A 
ATOM      9  N   UNL     1     -11.985 -25.426   1.425  0.00  0.00    -0.283 N 
ATOM     36  H   UNL     1     -12.701 -25.345   2.147  0.00  0.00    +0.155 HD
ATOM     37  N   UNL     1     -11.116 -23.356   2.106  0.00  0.00    -0.214 NA
BRANCH   4   3
ATOM      1  C   UNL     1      -9.871 -18.896   3.900  0.00  0.00    +0.020 A 
ATOM      2  C   UNL     1      -9.641 -19.953   2.943  0.00  0.00    +0.013 A 
ATOM      3  C   UNL     1     -10.421 -21.184   2.991  0.00  0.00    +0.019 A 
ATOM     38  C   UNL     1     -11.434 -21.313   4.027  0.00  0.00    +0.120 A 
ATOM     39  N   UNL     1     -11.633 -20.278   4.936  0.00  0.00    -0.263 NA
ATOM     40  C   UNL     1     -10.887 -19.090   4.900  0.00  0.00    +0.111 A 
ENDBRANCH   4   3
ENDBRANCH  10   9
BRANCH  12  13
ATOM     13  N   UNL     1     -10.653 -30.154   0.634  0.00  0.00    -0.281 N 
ATOM     14  C   UNL     1     -11.228 -31.220   1.306  0.00  0.00    +0.248 C 
ATOM     30  O   UNL     1     -12.324 -31.186   1.846  0.00  0.00    -0.270 OA
ATOM     31  H   UNL     1      -9.664 -30.250   0.403  0.00  0.00    +0.155 HD
BRANCH  14  15
ATOM     15  C   UNL     1     -10.470 -32.504   1.406  0.00  0.00    +0.037 A 
ATOM     16  C   UNL     1     -11.034 -33.760   0.905  0.00  0.00    +0.013 A 
ATOM     17  C   UNL     1     -10.289 -34.988   1.029  0.00  0.00    +0.005 A 
ATOM     18  C   UNL     1      -8.969 -34.964   1.656  0.00  0.00    -0.033 A 
ATOM     28  C   UNL     1      -8.432 -33.704   2.140  0.00  0.00    +0.005 A 
ATOM     29  C   UNL     1      -9.160 -32.499   2.021  0.00  0.00    +0.013 A 
BRANCH  18  19
ATOM     19  C   UNL     1      -8.113 -36.230   1.849  0.00  0.00    +0.119 C 
BRANCH  19  20
ATOM     20  N   UNL     1      -8.398 -37.071   3.050  0.00  0.00    -0.302 NA
ATOM     21  C   UNL     1      -7.747 -36.506   4.315  0.00  0.00    +0.066 C 
ATOM     22  C   UNL     1      -8.074 -37.386   5.565  0.00  0.00    -0.064 C 
ATOM     23  N   UNL     1      -7.608 -38.821   5.311  0.00  0.00    +0.379 N 
ATOM     24  C   UNL     1      -7.861 -39.638   6.507  0.00  0.00    -0.096 C 
ATOM     25  H   UNL     1      -6.506 -38.794   5.147  0.00  0.00    -0.082 HD
ATOM     26  C   UNL     1      -8.248 -39.390   4.053  0.00  0.00    -0.064 C 
ATOM     27  C   UNL     1      -7.941 -38.492   2.822  0.00  0.00    +0.066 C 
ENDBRANCH  19  20
ENDBRANCH  18  19
ENDBRANCH  14  15
ENDBRANCH  12  13
TORSDOF 6
ENDMDL
MODEL 3
REMARK VINA RESULT:     -11.3      1.856      2.745
REMARK  Name = C:\Users\Docking\Desktop\test protocol\1iep_ligandH.pdb
REMARK  8 active torsions:
REMARK  status: ('A' for Active; 'I' for Inactive)
REMARK    1  A    between atoms: _5  and  _11
REMARK    2  A    between atoms: _19  and  _21
REMARK    3  A    between atoms: _22  and  _66
REMARK    4  A    between atoms: _27  and  _30
REMARK    5  A    between atoms: _32  and  _33
REMARK    6  A    between atoms: _38  and  _43
REMARK    7  A    between atoms: _43  and  _46
REMARK    8  A    between atoms: _53  and  _55
REMARK                            x       y       z     vdW  Elec       q    Type
REMARK                         _______ _______ _______ _____ _____    ______ ____
ROOT
ATOM     10  C   UNL     1     -10.859 -27.956  -0.166  0.00  0.00    +0.038 A 
ATOM     11  C   UNL     1     -10.576 -26.689   0.405  0.00  0.00    +0.047 A 
ATOM     12  C   UNL     1     -11.209 -25.479  -0.095  0.00  0.00    +0.035 A 
ATOM     32  C   UNL     1     -12.129 -25.597  -1.178  0.00  0.00    +0.024 A 
ATOM     33  C   UNL     1     -12.428 -26.876  -1.771  0.00  0.00    +0.007 A 
ATOM     34  C   UNL     1     -11.804 -28.073  -1.284  0.00  0.00    -0.029 A 
ATOM     35  C   UNL     1     -12.157 -29.417  -1.963  0.00  0.00    +0.045 C 
ENDROOT
BRANCH  10   9
ATOM      4  C   UNL     1     -10.915 -32.145   2.176  0.00  0.00    +0.077 A 
ATOM      5  C   UNL     1     -12.328 -32.064   2.408  0.00  0.00    +0.048 A 
ATOM      6  C   UNL     1     -13.003 -30.925   1.914  0.00  0.00    +0.116 A 
ATOM      7  N   UNL     1     -12.305 -29.946   1.240  0.00  0.00    -0.223 NA
ATOM      8  C   UNL     1     -10.942 -30.054   1.035  0.00  0.00    +0.220 A 
ATOM      9  N   UNL     1     -10.222 -29.085   0.353  0.00  0.00    -0.283 N 
ATOM     36  H   UNL     1      -9.216 -29.198   0.230  0.00  0.00    +0.155 HD
ATOM     37  N   UNL     1     -10.275 -31.131   1.498  0.00  0.00    -0.214 NA
BRANCH   4   3
ATOM      1  C   UNL     1      -9.143 -35.625   2.399  0.00  0.00    +0.020 A 
ATOM      2  C   UNL     1      -9.982 -34.553   1.915  0.00  0.00    +0.013 A 
ATOM      3  C   UNL     1     -10.063 -33.288   2.634  0.00  0.00    +0.019 A 
ATOM     38  C   UNL     1      -9.277 -33.139   3.849  0.00  0.00    +0.120 A 
ATOM     39  N   UNL     1      -8.479 -34.189   4.293  0.00  0.00    -0.263 NA
ATOM     40  C   UNL     1      -8.394 -35.412   3.610  0.00  0.00    +0.111 A 
ENDBRANCH   4   3
ENDBRANCH  10   9
BRANCH  12  13
ATOM     13  N   UNL     1     -10.955 -24.165   0.440  0.00  0.00    -0.281 N 
ATOM     14  C   UNL     1     -11.142 -23.724   1.740  0.00  0.00    +0.248 C 
ATOM     30  O   UNL     1     -11.761 -24.338   2.596  0.00  0.00    -0.270 OA
ATOM     31  H   UNL     1     -10.593 -23.476  -0.219  0.00  0.00    +0.155 HD
BRANCH  14  15
ATOM     15  C   UNL     1     -10.570 -22.403   2.143  0.00  0.00    +0.037 A 
ATOM     16  C   UNL     1     -10.968 -21.753   3.395  0.00  0.00    +0.013 A 
ATOM     17  C   UNL     1     -10.414 -20.471   3.752  0.00  0.00    +0.005 A 
ATOM     18  C   UNL     1      -9.454 -19.831   2.856  0.00  0.00    -0.033 A 
ATOM     28  C   UNL     1      -9.073 -20.500   1.623  0.00  0.00    +0.005 A 
ATOM     29  C   UNL     1      -9.615 -21.757   1.269  0.00  0.00    +0.013 A 
BRANCH  18  19
ATOM     19  C   UNL     1      -8.829 -18.454   3.146  0.00  0.00    +0.119 C 
BRANCH  19  20
ATOM     20  N   UNL     1      -9.498 -17.602   4.174  0.00  0.00    -0.302 NA
ATOM     21  C   UNL     1      -9.385 -16.110   3.845  0.00  0.00    +0.066 C 
ATOM     22  C   UNL     1     -10.110 -15.235   4.919  0.00  0.00    -0.064 C 
ATOM     23  N   UNL     1      -9.519 -15.532   6.298  0.00  0.00    +0.379 N 
ATOM     24  C   UNL     1     -10.159 -14.668   7.302  0.00  0.00    -0.096 C 
ATOM     25  H   UNL     1      -8.436 -15.269   6.266  0.00  0.00    -0.082 HD
ATOM     26  C   UNL     1      -9.625 -17.013   6.632  0.00  0.00    -0.064 C 
ATOM     27  C   UNL     1      -8.927 -17.876   5.543  0.00  0.00    +0.066 C 
ENDBRANCH  19  20
ENDBRANCH  18  19
ENDBRANCH  14  15
ENDBRANCH  12  13
TORSDOF 6
ENDMDL
MODEL 4
REMARK VINA RESULT:     -11.3      2.212     12.617
REMARK  Name = C:\Users\Docking\Desktop\test protocol\1iep_ligandH.pdb
REMARK  8 active torsions:
REMARK  status: ('A' for Active; 'I' for Inactive)
REMARK    1  A    between atoms: _5  and  _11
REMARK    2  A    between atoms: _19  and  _21
REMARK    3  A    between atoms: _22  and  _66
REMARK    4  A    between atoms: _27  and  _30
REMARK    5  A    between atoms: _32  and  _33
REMARK    6  A    between atoms: _38  and  _43
REMARK    7  A    between atoms: _43  and  _46
REMARK    8  A    between atoms: _53  and  _55
REMARK                            x       y       z     vdW  Elec       q    Type
REMARK                         _______ _______ _______ _____ _____    ______ ____
ROOT
ATOM     10  C   UNL     1     -12.380 -28.092   1.099  0.00  0.00    +0.038 A 
ATOM     11  C   UNL     1     -11.689 -29.198   1.655  0.00  0.00    +0.047 A 
ATOM     12  C   UNL     1     -11.885 -30.544   1.139  0.00  0.00    +0.035 A 
ATOM     32  C   UNL     1     -12.792 -30.726   0.054  0.00  0.00    +0.024 A 
ATOM     33  C   UNL     1     -13.504 -29.613  -0.522  0.00  0.00    +0.007 A 
ATOM     34  C   UNL     1     -13.316 -28.283  -0.016  0.00  0.00    -0.029 A 
ATOM     35  C   UNL     1     -14.110 -27.128  -0.668  0.00  0.00    +0.045 C 
ENDROOT
BRANCH  10   9
ATOM      4  C   UNL     1     -10.293 -23.771   1.004  0.00  0.00    +0.077 A 
ATOM      5  C   UNL     1      -9.572 -24.080  -0.197  0.00  0.00    +0.048 A 
ATOM      6  C   UNL     1      -9.761 -25.364  -0.754  0.00  0.00    +0.116 A 
ATOM      7  N   UNL     1     -10.610 -26.264  -0.148  0.00  0.00    -0.223 NA
ATOM      8  C   UNL     1     -11.289 -25.935   1.011  0.00  0.00    +0.220 A 
ATOM      9  N   UNL     1     -12.154 -26.821   1.633  0.00  0.00    -0.283 N 
ATOM     36  H   UNL     1     -12.630 -26.543   2.491  0.00  0.00    +0.155 HD
ATOM     37  N   UNL     1     -11.124 -24.715   1.564  0.00  0.00    -0.214 NA
BRANCH   4   3
ATOM      1  C   UNL     1      -9.374 -20.080   1.918  0.00  0.00    +0.020 A 
ATOM      2  C   UNL     1      -9.429 -21.330   1.196  0.00  0.00    +0.013 A 
ATOM      3  C   UNL     1     -10.201 -22.454   1.711  0.00  0.00    +0.019 A 
ATOM     38  C   UNL     1     -10.912 -22.278   2.969  0.00  0.00    +0.120 A 
ATOM     39  N   UNL     1     -10.839 -21.063   3.643  0.00  0.00    -0.263 NA
ATOM     40  C   UNL     1     -10.098 -19.975   3.158  0.00  0.00    +0.111 A 
ENDBRANCH   4   3
ENDBRANCH  10   9
BRANCH  12  13
ATOM     13  N   UNL     1     -11.217 -31.708   1.668  0.00  0.00    -0.281 N 
ATOM     14  C   UNL     1      -9.854 -31.931   1.777  0.00  0.00    +0.248 C 
ATOM     30  O   UNL     1      -8.997 -31.248   1.238  0.00  0.00    -0.270 OA
ATOM     31  H   UNL     1     -11.823 -32.458   2.002  0.00  0.00    +0.155 HD
BRANCH  14  15
ATOM     15  C   UNL     1      -9.376 -33.088   2.593  0.00  0.00    +0.037 A 
ATOM     16  C   UNL     1      -8.930 -34.332   1.959  0.00  0.00    +0.013 A 
ATOM     17  C   UNL     1      -8.489 -35.439   2.770  0.00  0.00    +0.005 A 
ATOM     18  C   UNL     1      -8.490 -35.307   4.225  0.00  0.00    -0.033 A 
ATOM     28  C   UNL     1      -8.932 -34.060   4.827  0.00  0.00    +0.005 A 
ATOM     29  C   UNL     1      -9.366 -32.973   4.036  0.00  0.00    +0.013 A 
BRANCH  18  19
ATOM     19  C   UNL     1      -8.057 -36.444   5.168  0.00  0.00    +0.119 C 
BRANCH  19  20
ATOM     20  N   UNL     1      -9.043 -36.893   6.196  0.00  0.00    -0.302 NA
ATOM     21  C   UNL     1      -8.414 -37.845   7.218  0.00  0.00    +0.066 C 
ATOM     22  C   UNL     1      -9.454 -38.287   8.298  0.00  0.00    -0.064 C 
ATOM     23  N   UNL     1     -10.651 -38.945   7.611  0.00  0.00    +0.379 N 
ATOM     24  C   UNL     1     -11.604 -39.415   8.627  0.00  0.00    -0.096 C 
ATOM     25  H   UNL     1     -10.276 -39.839   7.061  0.00  0.00    -0.082 HD
ATOM     26  C   UNL     1     -11.281 -38.007   6.591  0.00  0.00    -0.064 C 
ATOM     27  C   UNL     1     -10.232 -37.550   5.539  0.00  0.00    +0.066 C 
ENDBRANCH  19  20
ENDBRANCH  18  19
ENDBRANCH  14  15
ENDBRANCH  12  13
TORSDOF 6
ENDMDL
MODEL 5
REMARK VINA RESULT:     -11.3      5.688      7.449
REMARK  Name = C:\Users\Docking\Desktop\test protocol\1iep_ligandH.pdb
REMARK  8 active torsions:
REMARK  status: ('A' for Active; 'I' for Inactive)
REMARK    1  A    between atoms: _5  and  _11
REMARK    2  A    between atoms: _19  and  _21
REMARK    3  A    between atoms: _22  and  _66
REMARK    4  A    between atoms: _27  and  _30
REMARK    5  A    between atoms: _32  and  _33
REMARK    6  A    between atoms: _38  and  _43
REMARK    7  A    between atoms: _43  and  _46
REMARK    8  A    between atoms: _53  and  _55
REMARK                            x       y       z     vdW  Elec       q    Type
REMARK                         _______ _______ _______ _____ _____    ______ ____
ROOT
ATOM     10  C   UNL     1     -11.551 -25.585   0.409  0.00  0.00    +0.038 A 
ATOM     11  C   UNL     1     -11.508 -24.504   1.325  0.00  0.00    +0.047 A 
ATOM     12  C   UNL     1     -10.334 -23.651   1.428  0.00  0.00    +0.035 A 
ATOM     32  C   UNL     1      -9.222 -23.927   0.580  0.00  0.00    +0.024 A 
ATOM     33  C   UNL     1      -9.248 -25.023  -0.356  0.00  0.00    +0.007 A 
ATOM     34  C   UNL     1     -10.403 -25.869  -0.460  0.00  0.00    -0.029 A 
ATOM     35  C   UNL     1     -10.373 -27.034  -1.477  0.00  0.00    +0.045 C 
ENDROOT
BRANCH  10   9
ATOM      4  C   UNL     1     -15.759 -26.792  -1.561  0.00  0.00    +0.077 A 
ATOM      5  C   UNL     1     -15.665 -25.750  -2.543  0.00  0.00    +0.048 A 
ATOM      6  C   UNL     1     -14.521 -24.921  -2.502  0.00  0.00    +0.116 A 
ATOM      7  N   UNL     1     -13.550 -25.128  -1.547  0.00  0.00    -0.223 NA
ATOM      8  C   UNL     1     -13.672 -26.141  -0.613  0.00  0.00    +0.220 A 
ATOM      9  N   UNL     1     -12.704 -26.372   0.352  0.00  0.00    -0.283 N 
ATOM     36  H   UNL     1     -12.835 -27.124   1.027  0.00  0.00    +0.155 HD
ATOM     37  N   UNL     1     -14.756 -26.945  -0.630  0.00  0.00    -0.214 NA
BRANCH   4   3
ATOM      1  C   UNL     1     -19.133 -28.647  -2.249  0.00  0.00    +0.020 A 
ATOM      2  C   UNL     1     -18.052 -27.696  -2.373  0.00  0.00    +0.013 A 
ATOM      3  C   UNL     1     -16.905 -27.751  -1.476  0.00  0.00    +0.019 A 
ATOM     38  C   UNL     1     -16.881 -28.790  -0.458  0.00  0.00    +0.120 A 
ATOM     39  N   UNL     1     -17.936 -29.692  -0.362  0.00  0.00    -0.263 NA
ATOM     40  C   UNL     1     -19.046 -29.647  -1.218  0.00  0.00    +0.111 A 
ENDBRANCH   4   3
ENDBRANCH  10   9
BRANCH  12  13
ATOM     13  N   UNL     1     -10.229 -22.543   2.345  0.00  0.00    -0.281 N 
ATOM     14  C   UNL     1      -9.846 -21.241   2.068  0.00  0.00    +0.248 C 
ATOM     30  O   UNL     1      -9.327 -20.882   1.022  0.00  0.00    -0.270 OA
ATOM     31  H   UNL     1     -10.467 -22.743   3.317  0.00  0.00    +0.155 HD
BRANCH  14  15
ATOM     15  C   UNL     1     -10.057 -20.189   3.109  0.00  0.00    +0.037 A 
ATOM     16  C   UNL     1      -9.241 -18.973   3.136  0.00  0.00    +0.013 A 
ATOM     17  C   UNL     1      -9.454 -17.982   4.161  0.00  0.00    +0.005 A 
ATOM     18  C   UNL     1     -10.490 -18.203   5.167  0.00  0.00    -0.033 A 
ATOM     28  C   UNL     1     -11.289 -19.417   5.113  0.00  0.00    +0.005 A 
ATOM     29  C   UNL     1     -11.082 -20.391   4.111  0.00  0.00    +0.013 A 
BRANCH  18  19
ATOM     19  C   UNL     1     -10.773 -17.210   6.309  0.00  0.00    +0.119 C 
BRANCH  19  20
ATOM     20  N   UNL     1     -10.288 -15.808   6.132  0.00  0.00    -0.302 NA
ATOM     21  C   UNL     1      -9.276 -15.410   7.209  0.00  0.00    +0.066 C 
ATOM     22  C   UNL     1      -8.762 -13.949   6.996  0.00  0.00    -0.064 C 
ATOM     23  N   UNL     1      -9.953 -12.989   6.990  0.00  0.00    +0.379 N 
ATOM     24  C   UNL     1      -9.469 -11.608   6.847  0.00  0.00    -0.096 C 
ATOM     25  H   UNL     1     -10.458 -13.070   7.981  0.00  0.00    -0.082 HD
ATOM     26  C   UNL     1     -10.966 -13.379   5.923  0.00  0.00    -0.064 C 
ATOM     27  C   UNL     1     -11.448 -14.843   6.128  0.00  0.00    +0.066 C 
ENDBRANCH  19  20
ENDBRANCH  18  19
ENDBRANCH  14  15
ENDBRANCH  12  13
TORSDOF 6
ENDMDL
