MODEL 1
REMARK VINA RESULT:     -11.9      0.000      0.000
REMARK  Name = C:\Users\Docking\Desktop\test protocol\1iep_ligandH.pdb
REMARK  8 active torsions:
REMARK  status: ('A' for Active; 'I' for Inactive)
REMARK    1  A    between atoms: _5  and  _11
REMARK    2  A    between atoms: _19  and  _21
REMARK    3  A    between atoms: _22  and  _66
REMARK    4  A    between atoms: _27  and  _30
REMARK    5  A    between atoms: _32  and  _33
REMARK    6  A    between atoms: _38  and  _43
REMARK    7  A    between atoms: _43  and  _46
REMARK    8  A    between atoms: _53  and  _55
REMARK                            x       y       z     vdW  Elec       q    Type
REMARK                         _______ _______ _______ _____ _____    ______ ____
ROOT
ATOM     10  C   UNL     1      -1.415  -3.929   3.541  0.00  0.00    +0.038 A 
ATOM     11  C   UNL     1      -0.546  -3.728   4.644  0.00  0.00    +0.047 A 
ATOM     12  C   UNL     1      -1.070  -3.492   5.980  0.00  0.00    +0.035 A 
ATOM     32  C   UNL     1      -2.484  -3.471   6.158  0.00  0.00    +0.024 A 
ATOM     33  C   UNL     1      -3.381  -3.672   5.047  0.00  0.00    +0.007 A 
ATOM     34  C   UNL     1      -2.870  -3.902   3.726  0.00  0.00    -0.029 A 
ATOM     35  C   UNL     1      -3.879  -4.105   2.572  0.00  0.00    +0.045 C 
ENDROOT
BRANCH  10   9
ATOM      4  C   UNL     1       0.873  -2.422  -0.401  0.00  0.00    +0.077 A 
ATOM      5  C   UNL     1       0.940  -1.073   0.082  0.00  0.00    +0.048 A 
ATOM      6  C   UNL     1       0.368  -0.807   1.346  0.00  0.00    +0.116 A 
ATOM      7  N   UNL     1      -0.225  -1.822   2.065  0.00  0.00    -0.223 NA
ATOM      8  C   UNL     1      -0.274  -3.112   1.570  0.00  0.00    +0.220 A 
ATOM      9  N   UNL     1      -0.857  -4.151   2.279  0.00  0.00    -0.283 N 
ATOM     36  H   UNL     1      -0.880  -5.087   1.876  0.00  0.00    +0.155 HD
ATOM     37  N   UNL     1       0.264  -3.392   0.364  0.00  0.00    -0.214 NA
BRANCH   4   3
ATOM      1  C   UNL     1       2.672  -4.497  -3.186  0.00  0.00    +0.020 A 
ATOM      2  C   UNL     1       2.149  -4.120  -1.893  0.00  0.00    +0.013 A 
ATOM      3  C   UNL     1       1.435  -2.861  -1.717  0.00  0.00    +0.019 A 
ATOM     38  C   UNL     1       1.266  -2.001  -2.878  0.00  0.00    +0.120 A 
ATOM     39  N   UNL     1       1.782  -2.390  -4.111  0.00  0.00    -0.263 NA
ATOM     40  C   UNL     1       2.472  -3.598  -4.292  0.00  0.00    +0.111 A 
ENDBRANCH   4   3
ENDBRANCH  10   9
BRANCH  12  13
ATOM     13  N   UNL     1      -0.237  -3.273   7.137  0.00  0.00    -0.281 N 
ATOM     14  C   UNL     1      -0.463  -2.412   8.198  0.00  0.00    +0.248 C 
ATOM     30  O   UNL     1      -1.317  -1.537   8.209  0.00  0.00    -0.270 OA
ATOM     31  H   UNL     1       0.623  -3.820   7.179  0.00  0.00    +0.155 HD
BRANCH  14  15
ATOM     15  C   UNL     1       0.392  -2.530   9.419  0.00  0.00    +0.037 A 
ATOM     16  C   UNL     1       1.840  -2.725   9.316  0.00  0.00    +0.013 A 
ATOM     17  C   UNL     1       2.639  -2.853  10.509  0.00  0.00    +0.005 A 
ATOM     18  C   UNL     1       1.991  -2.785  11.816  0.00  0.00    -0.033 A 
ATOM     28  C   UNL     1       0.553  -2.585  11.889  0.00  0.00    +0.005 A 
ATOM     29  C   UNL     1      -0.234  -2.460  10.722  0.00  0.00    +0.013 A 
BRANCH  18  19
ATOM     19  C   UNL     1       2.762  -2.932  13.141  0.00  0.00    +0.119 C 
BRANCH  19  20
ATOM     20  N   UNL     1       2.254  -3.940  14.119  0.00  0.00    -0.302 NA
ATOM     21  C   UNL     1       3.371  -4.486  15.013  0.00  0.00    +0.066 C 
ATOM     22  C   UNL     1       2.819  -5.523  16.045  0.00  0.00    -0.064 C 
ATOM     23  N   UNL     1       2.120  -6.659  15.297  0.00  0.00    +0.379 N 
ATOM     24  C   UNL     1       1.650  -7.665  16.262  0.00  0.00    -0.096 C 
ATOM     25  H   UNL     1       2.877  -7.148  14.641  0.00  0.00    -0.082 HD
ATOM     26  C   UNL     1       1.009  -6.125  14.404  0.00  0.00    -0.064 C 
ATOM     27  C   UNL     1       1.564  -5.074  13.402  0.00  0.00    +0.066 C 
ENDBRANCH  19  20
ENDBRANCH  18  19
ENDBRANCH  14  15
ENDBRANCH  12  13
TORSDOF 6
ENDMDL
MODEL 2
REMARK VINA RESULT:     -11.1      2.363     12.551
REMARK  Name = C:\Users\Docking\Desktop\test protocol\1iep_ligandH.pdb
REMARK  8 active torsions:
REMARK  status: ('A' for Active; 'I' for Inactive)
REMARK    1  A    between atoms: _5  and  _11
REMARK    2  A    between atoms: _19  and  _21
REMARK    3  A    between atoms: _22  and  _66
REMARK    4  A    between atoms: _27  and  _30
REMARK    5  A    between atoms: _32  and  _33
REMARK    6  A    between atoms: _38  and  _43
REMARK    7  A    between atoms: _43  and  _46
REMARK    8  A    between atoms: _53  and  _55
REMARK                            x       y       z     vdW  Elec       q    Type
REMARK                         _______ _______ _______ _____ _____    ______ ____
ROOT
ATOM     10  C   UNL     1      -1.718  -3.996   8.119  0.00  0.00    +0.038 A 
ATOM     11  C   UNL     1      -1.020  -3.911   6.888  0.00  0.00    +0.047 A 
ATOM     12  C   UNL     1      -1.481  -3.037   5.820  0.00  0.00    +0.035 A 
ATOM     32  C   UNL     1      -2.656  -2.261   6.042  0.00  0.00    +0.024 A 
ATOM     33  C   UNL     1      -3.378  -2.336   7.288  0.00  0.00    +0.007 A 
ATOM     34  C   UNL     1      -2.930  -3.199   8.343  0.00  0.00    -0.029 A 
ATOM     35  C   UNL     1      -3.747  -3.244   9.655  0.00  0.00    +0.045 C 
ENDROOT
BRANCH  10   9
ATOM      4  C   UNL     1       0.710  -4.827  12.175  0.00  0.00    +0.077 A 
ATOM      5  C   UNL     1       1.060  -3.443  12.319  0.00  0.00    +0.048 A 
ATOM      6  C   UNL     1       0.602  -2.551  11.324  0.00  0.00    +0.116 A 
ATOM      7  N   UNL     1      -0.150  -3.020  10.268  0.00  0.00    -0.223 NA
ATOM      8  C   UNL     1      -0.469  -4.361  10.159  0.00  0.00    +0.220 A 
ATOM      9  N   UNL     1      -1.231  -4.852   9.110  0.00  0.00    -0.283 N 
ATOM     36  H   UNL     1      -1.438  -5.849   9.061  0.00  0.00    +0.155 HD
ATOM     37  N   UNL     1      -0.042  -5.233  11.095  0.00  0.00    -0.214 NA
BRANCH   4   3
ATOM      1  C   UNL     1       2.036  -8.172  13.710  0.00  0.00    +0.020 A 
ATOM      2  C   UNL     1       1.657  -7.179  12.731  0.00  0.00    +0.013 A 
ATOM      3  C   UNL     1       1.117  -5.891  13.147  0.00  0.00    +0.019 A 
ATOM     38  C   UNL     1       0.973  -5.637  14.572  0.00  0.00    +0.120 A 
ATOM     39  N   UNL     1       1.344  -6.613  15.492  0.00  0.00    -0.263 NA
ATOM     40  C   UNL     1       1.863  -7.857  15.103  0.00  0.00    +0.111 A 
ENDBRANCH   4   3
ENDBRANCH  10   9
BRANCH  12  13
ATOM     13  N   UNL     1      -0.818  -2.916   4.545  0.00  0.00    -0.281 N 
ATOM     14  C   UNL     1      -1.370  -3.051   3.282  0.00  0.00    +0.248 C 
ATOM     30  O   UNL     1      -2.479  -3.512   3.059  0.00  0.00    -0.270 OA
ATOM     31  H   UNL     1       0.179  -2.703   4.579  0.00  0.00    +0.155 HD
BRANCH  14  15
ATOM     15  C   UNL     1      -0.567  -2.628   2.094  0.00  0.00    +0.037 A 
ATOM     16  C   UNL     1      -0.054  -1.261   1.972  0.00  0.00    +0.013 A 
ATOM     17  C   UNL     1       0.703  -0.875   0.808  0.00  0.00    +0.005 A 
ATOM     18  C   UNL     1       0.952  -1.858  -0.244  0.00  0.00    -0.033 A 
ATOM     28  C   UNL     1       0.436  -3.208  -0.094  0.00  0.00    +0.005 A 
ATOM     29  C   UNL     1      -0.308  -3.591   1.045  0.00  0.00    +0.013 A 
BRANCH  18  19
ATOM     19  C   UNL     1       1.732  -1.527  -1.530  0.00  0.00    +0.119 C 
BRANCH  19  20
ATOM     20  N   UNL     1       2.995  -2.284  -1.778  0.00  0.00    -0.302 NA
ATOM     21  C   UNL     1       4.162  -1.740  -0.950  0.00  0.00    +0.066 C 
ATOM     22  C   UNL     1       5.470  -2.558  -1.204  0.00  0.00    -0.064 C 
ATOM     23  N   UNL     1       5.805  -2.529  -2.697  0.00  0.00    +0.379 N 
ATOM     24  C   UNL     1       7.065  -3.248  -2.932  0.00  0.00    -0.096 C 
ATOM     25  H   UNL     1       5.964  -1.464  -2.987  0.00  0.00    -0.082 HD
ATOM     26  C   UNL     1       4.648  -3.065  -3.528  0.00  0.00    -0.064 C 
ATOM     27  C   UNL     1       3.346  -2.264  -3.245  0.00  0.00    +0.066 C 
ENDBRANCH  19  20
ENDBRANCH  18  19
ENDBRANCH  14  15
ENDBRANCH  12  13
TORSDOF 6
ENDMDL
MODEL 3
REMARK VINA RESULT:     -10.7      2.204     13.178
REMARK  Name = C:\Users\Docking\Desktop\test protocol\1iep_ligandH.pdb
REMARK  8 active torsions:
REMARK  status: ('A' for Active; 'I' for Inactive)
REMARK    1  A    between atoms: _5  and  _11
REMARK    2  A    between atoms: _19  and  _21
REMARK    3  A    between atoms: _22  and  _66
REMARK    4  A    between atoms: _27  and  _30
REMARK    5  A    between atoms: _32  and  _33
REMARK    6  A    between atoms: _38  and  _43
REMARK    7  A    between atoms: _43  and  _46
REMARK    8  A    between atoms: _53  and  _55
REMARK                            x       y       z     vdW  Elec       q    Type
REMARK                         _______ _______ _______ _____ _____    ______ ____
ROOT
ATOM     10  C   UNL     1      -1.645  -4.088   7.822  0.00  0.00    +0.038 A 
ATOM     11  C   UNL     1      -0.910  -3.997   6.613  0.00  0.00    +0.047 A 
ATOM     12  C   UNL     1      -1.375  -3.170   5.510  0.00  0.00    +0.035 A 
ATOM     32  C   UNL     1      -2.592  -2.447   5.674  0.00  0.00    +0.024 A 
ATOM     33  C   UNL     1      -3.353  -2.529   6.896  0.00  0.00    +0.007 A 
ATOM     34  C   UNL     1      -2.900  -3.345   7.987  0.00  0.00    -0.029 A 
ATOM     35  C   UNL     1      -3.760  -3.401   9.271  0.00  0.00    +0.045 C 
ENDROOT
BRANCH  10   9
ATOM      4  C   UNL     1       0.715  -4.715  11.954  0.00  0.00    +0.077 A 
ATOM      5  C   UNL     1       1.015  -3.316  12.064  0.00  0.00    +0.048 A 
ATOM      6  C   UNL     1       0.550  -2.471  11.032  0.00  0.00    +0.116 A 
ATOM      7  N   UNL     1      -0.162  -2.995   9.975  0.00  0.00    -0.223 NA
ATOM      8  C   UNL     1      -0.432  -4.349   9.899  0.00  0.00    +0.220 A 
ATOM      9  N   UNL     1      -1.152  -4.897   8.849  0.00  0.00    -0.283 N 
ATOM     36  H   UNL     1      -1.324  -5.902   8.825  0.00  0.00    +0.155 HD
ATOM     37  N   UNL     1       0.003  -5.178  10.871  0.00  0.00    -0.214 NA
BRANCH   4   3
ATOM      1  C   UNL     1       1.931  -8.038  13.623  0.00  0.00    +0.020 A 
ATOM      2  C   UNL     1       1.533  -7.091  12.607  0.00  0.00    +0.013 A 
ATOM      3  C   UNL     1       1.136  -5.735  12.966  0.00  0.00    +0.019 A 
ATOM     38  C   UNL     1       1.153  -5.367  14.374  0.00  0.00    +0.120 A 
ATOM     39  N   UNL     1       1.539  -6.300  15.330  0.00  0.00    -0.263 NA
ATOM     40  C   UNL     1       1.922  -7.608  14.996  0.00  0.00    +0.111 A 
ENDBRANCH   4   3
ENDBRANCH  10   9
BRANCH  12  13
ATOM     13  N   UNL     1      -0.675  -3.045   4.256  0.00  0.00    -0.281 N 
ATOM     14  C   UNL     1      -1.212  -3.024   2.979  0.00  0.00    +0.248 C 
ATOM     30  O   UNL     1      -2.365  -3.327   2.710  0.00  0.00    -0.270 OA
ATOM     31  H   UNL     1       0.340  -2.961   4.316  0.00  0.00    +0.155 HD
BRANCH  14  15
ATOM     15  C   UNL     1      -0.338  -2.624   1.834  0.00  0.00    +0.037 A 
ATOM     16  C   UNL     1      -0.102  -3.528   0.706  0.00  0.00    +0.013 A 
ATOM     17  C   UNL     1       0.758  -3.123  -0.377  0.00  0.00    +0.005 A 
ATOM     18  C   UNL     1       1.389  -1.806  -0.337  0.00  0.00    -0.033 A 
ATOM     28  C   UNL     1       1.133  -0.927   0.792  0.00  0.00    +0.005 A 
ATOM     29  C   UNL     1       0.291  -1.321   1.856  0.00  0.00    +0.013 A 
BRANCH  18  19
ATOM     19  C   UNL     1       2.338  -1.300  -1.439  0.00  0.00    +0.119 C 
BRANCH  19  20
ATOM     20  N   UNL     1       1.715  -0.727  -2.669  0.00  0.00    -0.302 NA
ATOM     21  C   UNL     1       1.087  -1.809  -3.552  0.00  0.00    +0.066 C 
ATOM     22  C   UNL     1       0.419  -1.190  -4.823  0.00  0.00    -0.064 C 
ATOM     23  N   UNL     1       1.463  -0.391  -5.606  0.00  0.00    +0.379 N 
ATOM     24  C   UNL     1       0.853   0.144  -6.832  0.00  0.00    -0.096 C 
ATOM     25  H   UNL     1       2.271  -1.097  -5.910  0.00  0.00    -0.082 HD
ATOM     26  C   UNL     1       2.094   0.686  -4.734  0.00  0.00    -0.064 C 
ATOM     27  C   UNL     1       2.729   0.063  -3.459  0.00  0.00    +0.066 C 
ENDBRANCH  19  20
ENDBRANCH  18  19
ENDBRANCH  14  15
ENDBRANCH  12  13
TORSDOF 6
ENDMDL
MODEL 4
REMARK VINA RESULT:     -10.1      2.272     12.161
REMARK  Name = C:\Users\Docking\Desktop\test protocol\1iep_ligandH.pdb
REMARK  8 active torsions:
REMARK  status: ('A' for Active; 'I' for Inactive)
REMARK    1  A    between atoms: _5  and  _11
REMARK    2  A    between atoms: _19  and  _21
REMARK    3  A    between atoms: _22  and  _66
REMARK    4  A    between atoms: _27  and  _30
REMARK    5  A    between atoms: _32  and  _33
REMARK    6  A    between atoms: _38  and  _43
REMARK    7  A    between atoms: _43  and  _46
REMARK    8  A    between atoms: _53  and  _55
REMARK                            x       y       z     vdW  Elec       q    Type
REMARK                         _______ _______ _______ _____ _____    ______ ____
ROOT
ATOM     10  C   UNL     1      -1.737  -3.218   8.027  0.00  0.00    +0.038 A 
ATOM     11  C   UNL     1      -0.998  -2.949   6.846  0.00  0.00    +0.047 A 
ATOM     12  C   UNL     1      -1.652  -2.877   5.549  0.00  0.00    +0.035 A 
ATOM     32  C   UNL     1      -3.062  -3.082   5.491  0.00  0.00    +0.024 A 
ATOM     33  C   UNL     1      -3.828  -3.358   6.681  0.00  0.00    +0.007 A 
ATOM     34  C   UNL     1      -3.188  -3.432   7.963  0.00  0.00    -0.029 A 
ATOM     35  C   UNL     1      -4.058  -3.737   9.204  0.00  0.00    +0.045 C 
ENDROOT
BRANCH  10   9
ATOM      4  C   UNL     1       2.260  -2.897  10.664  0.00  0.00    +0.077 A 
ATOM      5  C   UNL     1       3.068  -2.617   9.513  0.00  0.00    +0.048 A 
ATOM      6  C   UNL     1       2.418  -2.572   8.259  0.00  0.00    +0.116 A 
ATOM      7  N   UNL     1       1.060  -2.791   8.175  0.00  0.00    -0.223 NA
ATOM      8  C   UNL     1       0.310  -3.060   9.306  0.00  0.00    +0.220 A 
ATOM      9  N   UNL     1      -1.058  -3.275   9.246  0.00  0.00    -0.283 N 
ATOM     36  H   UNL     1      -1.574  -3.478  10.101  0.00  0.00    +0.155 HD
ATOM     37  N   UNL     1       0.908  -3.110  10.514  0.00  0.00    -0.214 NA
BRANCH   4   3
ATOM      1  C   UNL     1       3.420  -1.946  14.277  0.00  0.00    +0.020 A 
ATOM      2  C   UNL     1       2.890  -1.817  12.939  0.00  0.00    +0.013 A 
ATOM      3  C   UNL     1       2.801  -2.974  12.058  0.00  0.00    +0.019 A 
ATOM     38  C   UNL     1       3.259  -4.259  12.566  0.00  0.00    +0.120 A 
ATOM     39  N   UNL     1       3.766  -4.353  13.859  0.00  0.00    -0.263 NA
ATOM     40  C   UNL     1       3.858  -3.245  14.715  0.00  0.00    +0.111 A 
ENDBRANCH   4   3
ENDBRANCH  10   9
BRANCH  12  13
ATOM     13  N   UNL     1      -0.953  -2.616   4.315  0.00  0.00    -0.281 N 
ATOM     14  C   UNL     1      -0.999  -3.346   3.139  0.00  0.00    +0.248 C 
ATOM     30  O   UNL     1      -1.486  -4.462   3.037  0.00  0.00    -0.270 OA
ATOM     31  H   UNL     1      -0.351  -1.793   4.309  0.00  0.00    +0.155 HD
BRANCH  14  15
ATOM     15  C   UNL     1      -0.404  -2.758   1.900  0.00  0.00    +0.037 A 
ATOM     16  C   UNL     1      -0.075  -3.595   0.744  0.00  0.00    +0.013 A 
ATOM     17  C   UNL     1       0.513  -3.004  -0.432  0.00  0.00    +0.005 A 
ATOM     18  C   UNL     1       0.775  -1.567  -0.458  0.00  0.00    -0.033 A 
ATOM     28  C   UNL     1       0.433  -0.760   0.702  0.00  0.00    +0.005 A 
ATOM     29  C   UNL     1      -0.142  -1.335   1.856  0.00  0.00    +0.013 A 
BRANCH  18  19
ATOM     19  C   UNL     1       1.419  -0.856  -1.662  0.00  0.00    +0.119 C 
BRANCH  19  20
ATOM     20  N   UNL     1       2.754  -1.349  -2.114  0.00  0.00    -0.302 NA
ATOM     21  C   UNL     1       2.644  -2.271  -3.332  0.00  0.00    +0.066 C 
ATOM     22  C   UNL     1       4.051  -2.760  -3.805  0.00  0.00    -0.064 C 
ATOM     23  N   UNL     1       4.756  -3.472  -2.649  0.00  0.00    +0.379 N 
ATOM     24  C   UNL     1       6.055  -3.984  -3.107  0.00  0.00    -0.096 C 
ATOM     25  H   UNL     1       4.129  -4.348  -2.360  0.00  0.00    -0.082 HD
ATOM     26  C   UNL     1       4.867  -2.564  -1.433  0.00  0.00    -0.064 C 
ATOM     27  C   UNL     1       3.466  -2.060  -0.989  0.00  0.00    +0.066 C 
ENDBRANCH  19  20
ENDBRANCH  18  19
ENDBRANCH  14  15
ENDBRANCH  12  13
TORSDOF 6
ENDMDL
MODEL 5
REMARK VINA RESULT:      -9.9      4.286      6.514
REMARK  Name = C:\Users\Docking\Desktop\test protocol\1iep_ligandH.pdb
REMARK  8 active torsions:
REMARK  status: ('A' for Active; 'I' for Inactive)
REMARK    1  A    between atoms: _5  and  _11
REMARK    2  A    between atoms: _19  and  _21
REMARK    3  A    between atoms: _22  and  _66
REMARK    4  A    between atoms: _27  and  _30
REMARK    5  A    between atoms: _32  and  _33
REMARK    6  A    between atoms: _38  and  _43
REMARK    7  A    between atoms: _43  and  _46
REMARK    8  A    between atoms: _53  and  _55
REMARK                            x       y       z     vdW  Elec       q    Type
REMARK                         _______ _______ _______ _____ _____    ______ ____
ROOT
ATOM     10  C   UNL     1       1.279  -0.655  -0.165  0.00  0.00    +0.038 A 
ATOM     11  C   UNL     1       0.793  -0.875   1.149  0.00  0.00    +0.047 A 
ATOM     12  C   UNL     1      -0.196  -1.906   1.423  0.00  0.00    +0.035 A 
ATOM     32  C   UNL     1      -0.665  -2.698   0.335  0.00  0.00    +0.024 A 
ATOM     33  C   UNL     1      -0.183  -2.488  -1.008  0.00  0.00    +0.007 A 
ATOM     34  C   UNL     1       0.791  -1.470  -1.284  0.00  0.00    -0.029 A 
ATOM     35  C   UNL     1       1.268  -1.285  -2.744  0.00  0.00    +0.045 C 
ENDROOT
BRANCH  10   9
ATOM      4  C   UNL     1       2.496   3.915  -0.983  0.00  0.00    +0.077 A 
ATOM      5  C   UNL     1       1.125   4.334  -1.030  0.00  0.00    +0.048 A 
ATOM      6  C   UNL     1       0.136   3.341  -0.846  0.00  0.00    +0.116 A 
ATOM      7  N   UNL     1       0.504   2.030  -0.632  0.00  0.00    -0.223 NA
ATOM      8  C   UNL     1       1.835   1.660  -0.594  0.00  0.00    +0.220 A 
ATOM      9  N   UNL     1       2.228   0.349  -0.371  0.00  0.00    -0.283 N 
ATOM     36  H   UNL     1       3.220   0.115  -0.358  0.00  0.00    +0.155 HD
ATOM     37  N   UNL     1       2.798   2.589  -0.768  0.00  0.00    -0.214 NA
BRANCH   4   3
ATOM      1  C   UNL     1       5.132   6.344  -2.550  0.00  0.00    +0.020 A 
ATOM      2  C   UNL     1       4.003   5.449  -2.437  0.00  0.00    +0.013 A 
ATOM      3  C   UNL     1       3.654   4.848  -1.156  0.00  0.00    +0.019 A 
ATOM     38  C   UNL     1       4.475   5.175   0.001  0.00  0.00    +0.120 A 
ATOM     39  N   UNL     1       5.556   6.039  -0.139  0.00  0.00    -0.263 NA
ATOM     40  C   UNL     1       5.902   6.622  -1.367  0.00  0.00    +0.111 A 
ENDBRANCH   4   3
ENDBRANCH  10   9
BRANCH  12  13
ATOM     13  N   UNL     1      -0.732  -2.170   2.735  0.00  0.00    -0.281 N 
ATOM     14  C   UNL     1      -1.081  -3.393   3.283  0.00  0.00    +0.248 C 
ATOM     30  O   UNL     1      -1.184  -4.431   2.646  0.00  0.00    -0.270 OA
ATOM     31  H   UNL     1      -0.873  -1.355   3.333  0.00  0.00    +0.155 HD
BRANCH  14  15
ATOM     15  C   UNL     1      -1.370  -3.473   4.747  0.00  0.00    +0.037 A 
ATOM     16  C   UNL     1      -0.292  -3.618   5.728  0.00  0.00    +0.013 A 
ATOM     17  C   UNL     1      -0.600  -3.710   7.133  0.00  0.00    +0.005 A 
ATOM     18  C   UNL     1      -1.994  -3.654   7.566  0.00  0.00    -0.033 A 
ATOM     28  C   UNL     1      -3.044  -3.504   6.572  0.00  0.00    +0.005 A 
ATOM     29  C   UNL     1      -2.746  -3.416   5.194  0.00  0.00    +0.013 A 
BRANCH  18  19
ATOM     19  C   UNL     1      -2.416  -3.765   9.043  0.00  0.00    +0.119 C 
BRANCH  19  20
ATOM     20  N   UNL     1      -1.334  -3.978  10.050  0.00  0.00    -0.302 NA
ATOM     21  C   UNL     1      -1.809  -4.823  11.235  0.00  0.00    +0.066 C 
ATOM     22  C   UNL     1      -0.658  -5.054  12.267  0.00  0.00    -0.064 C 
ATOM     23  N   UNL     1      -0.126  -3.701  12.745  0.00  0.00    +0.379 N 
ATOM     24  C   UNL     1       0.916  -3.915  13.759  0.00  0.00    -0.096 C 
ATOM     25  H   UNL     1      -0.969  -3.161  13.235  0.00  0.00    -0.082 HD
ATOM     26  C   UNL     1       0.346  -2.854  11.572  0.00  0.00    -0.064 C 
ATOM     27  C   UNL     1      -0.797  -2.655  10.538  0.00  0.00    +0.066 C 
ENDBRANCH  19  20
ENDBRANCH  18  19
ENDBRANCH  14  15
ENDBRANCH  12  13
TORSDOF 6
ENDMDL
