MODEL 1
REMARK VINA RESULT:     -11.7      0.000      0.000
REMARK  Name = C:\Users\Docking\Desktop\test protocol\1iep_ligandH.pdb
REMARK  8 active torsions:
REMARK  status: ('A' for Active; 'I' for Inactive)
REMARK    1  A    between atoms: _5  and  _11
REMARK    2  A    between atoms: _19  and  _21
REMARK    3  A    between atoms: _22  and  _66
REMARK    4  A    between atoms: _27  and  _30
REMARK    5  A    between atoms: _32  and  _33
REMARK    6  A    between atoms: _38  and  _43
REMARK    7  A    between atoms: _43  and  _46
REMARK    8  A    between atoms: _53  and  _55
REMARK                            x       y       z     vdW  Elec       q    Type
REMARK                         _______ _______ _______ _____ _____    ______ ____
ROOT
ATOM     10  C   UNL     1      -1.499  -4.001   3.594  0.00  0.00    +0.038 A 
ATOM     11  C   UNL     1      -0.642  -3.849   4.714  0.00  0.00    +0.047 A 
ATOM     12  C   UNL     1      -1.180  -3.629   6.048  0.00  0.00    +0.035 A 
ATOM     32  C   UNL     1      -2.595  -3.571   6.205  0.00  0.00    +0.024 A 
ATOM     33  C   UNL     1      -3.481  -3.721   5.077  0.00  0.00    +0.007 A 
ATOM     34  C   UNL     1      -2.956  -3.937   3.759  0.00  0.00    -0.029 A 
ATOM     35  C   UNL     1      -3.952  -4.085   2.585  0.00  0.00    +0.045 C 
ENDROOT
BRANCH  10   9
ATOM      4  C   UNL     1       0.859  -2.464  -0.294  0.00  0.00    +0.077 A 
ATOM      5  C   UNL     1       0.939  -1.124   0.212  0.00  0.00    +0.048 A 
ATOM      6  C   UNL     1       0.354  -0.870   1.473  0.00  0.00    +0.116 A 
ATOM      7  N   UNL     1      -0.261  -1.888   2.168  0.00  0.00    -0.223 NA
ATOM      8  C   UNL     1      -0.322  -3.169   1.651  0.00  0.00    +0.220 A 
ATOM      9  N   UNL     1      -0.929  -4.211   2.336  0.00  0.00    -0.283 N 
ATOM     36  H   UNL     1      -0.959  -5.140   1.918  0.00  0.00    +0.155 HD
ATOM     37  N   UNL     1       0.228  -3.437   0.448  0.00  0.00    -0.214 NA
BRANCH   4   3
ATOM      1  C   UNL     1       2.698  -4.502  -3.081  0.00  0.00    +0.020 A 
ATOM      2  C   UNL     1       2.165  -4.137  -1.788  0.00  0.00    +0.013 A 
ATOM      3  C   UNL     1       1.432  -2.890  -1.610  0.00  0.00    +0.019 A 
ATOM     38  C   UNL     1       1.254  -2.028  -2.769  0.00  0.00    +0.120 A 
ATOM     39  N   UNL     1       1.779  -2.405  -4.000  0.00  0.00    -0.263 NA
ATOM     40  C   UNL     1       2.488  -3.602  -4.184  0.00  0.00    +0.111 A 
ENDBRANCH   4   3
ENDBRANCH  10   9
BRANCH  12  13
ATOM     13  N   UNL     1      -0.359  -3.460   7.222  0.00  0.00    -0.281 N 
ATOM     14  C   UNL     1      -0.445  -2.469   8.186  0.00  0.00    +0.248 C 
ATOM     30  O   UNL     1      -1.108  -1.449   8.071  0.00  0.00    -0.270 OA
ATOM     31  H   UNL     1       0.374  -4.156   7.358  0.00  0.00    +0.155 HD
BRANCH  14  15
ATOM     15  C   UNL     1       0.328  -2.627   9.455  0.00  0.00    +0.037 A 
ATOM     16  C   UNL     1       1.792  -2.691   9.449  0.00  0.00    +0.013 A 
ATOM     17  C   UNL     1       2.513  -2.860  10.686  0.00  0.00    +0.005 A 
ATOM     18  C   UNL     1       1.770  -2.966  11.939  0.00  0.00    -0.033 A 
ATOM     28  C   UNL     1       0.318  -2.894  11.916  0.00  0.00    +0.005 A 
ATOM     29  C   UNL     1      -0.392  -2.728  10.706  0.00  0.00    +0.013 A 
BRANCH  18  19
ATOM     19  C   UNL     1       2.456  -3.169  13.303  0.00  0.00    +0.119 C 
BRANCH  19  20
ATOM     20  N   UNL     1       2.618  -4.574  13.784  0.00  0.00    -0.302 NA
ATOM     21  C   UNL     1       2.065  -5.591  12.783  0.00  0.00    +0.066 C 
ATOM     22  C   UNL     1       2.263  -7.056  13.291  0.00  0.00    -0.064 C 
ATOM     23  N   UNL     1       1.588  -7.216  14.655  0.00  0.00    +0.379 N 
ATOM     24  C   UNL     1       1.723  -8.608  15.109  0.00  0.00    -0.096 C 
ATOM     25  H   UNL     1       0.501  -7.008  14.520  0.00  0.00    -0.082 HD
ATOM     26  C   UNL     1       2.131  -6.206  15.656  0.00  0.00    -0.064 C 
ATOM     27  C   UNL     1       1.955  -4.755  15.127  0.00  0.00    +0.066 C 
ENDBRANCH  19  20
ENDBRANCH  18  19
ENDBRANCH  14  15
ENDBRANCH  12  13
TORSDOF 6
ENDMDL
MODEL 2
REMARK VINA RESULT:     -11.2      2.203     13.021
REMARK  Name = C:\Users\Docking\Desktop\test protocol\1iep_ligandH.pdb
REMARK  8 active torsions:
REMARK  status: ('A' for Active; 'I' for Inactive)
REMARK    1  A    between atoms: _5  and  _11
REMARK    2  A    between atoms: _19  and  _21
REMARK    3  A    between atoms: _22  and  _66
REMARK    4  A    between atoms: _27  and  _30
REMARK    5  A    between atoms: _32  and  _33
REMARK    6  A    between atoms: _38  and  _43
REMARK    7  A    between atoms: _43  and  _46
REMARK    8  A    between atoms: _53  and  _55
REMARK                            x       y       z     vdW  Elec       q    Type
REMARK                         _______ _______ _______ _____ _____    ______ ____
ROOT
ATOM     10  C   UNL     1      -1.857  -3.994   8.198  0.00  0.00    +0.038 A 
ATOM     11  C   UNL     1      -1.138  -3.837   6.985  0.00  0.00    +0.047 A 
ATOM     12  C   UNL     1      -1.620  -2.956   5.933  0.00  0.00    +0.035 A 
ATOM     32  C   UNL     1      -2.838  -2.247   6.151  0.00  0.00    +0.024 A 
ATOM     33  C   UNL     1      -3.581  -2.395   7.377  0.00  0.00    +0.007 A 
ATOM     34  C   UNL     1      -3.112  -3.265   8.417  0.00  0.00    -0.029 A 
ATOM     35  C   UNL     1      -3.954  -3.390   9.708  0.00  0.00    +0.045 C 
ENDROOT
BRANCH  10   9
ATOM      4  C   UNL     1       0.672  -4.841  12.188  0.00  0.00    +0.077 A 
ATOM      5  C   UNL     1       1.032  -3.459  12.324  0.00  0.00    +0.048 A 
ATOM      6  C   UNL     1       0.552  -2.563  11.342  0.00  0.00    +0.116 A 
ATOM      7  N   UNL     1      -0.230  -3.027  10.306  0.00  0.00    -0.223 NA
ATOM      8  C   UNL     1      -0.557  -4.366  10.203  0.00  0.00    +0.220 A 
ATOM      9  N   UNL     1      -1.348  -4.853   9.174  0.00  0.00    -0.283 N 
ATOM     36  H   UNL     1      -1.560  -5.849   9.129  0.00  0.00    +0.155 HD
ATOM     37  N   UNL     1      -0.109  -5.242  11.127  0.00  0.00    -0.214 NA
BRANCH   4   3
ATOM      1  C   UNL     1       2.060  -8.178  13.683  0.00  0.00    +0.020 A 
ATOM      2  C   UNL     1       1.663  -7.182  12.716  0.00  0.00    +0.013 A 
ATOM      3  C   UNL     1       1.100  -5.908  13.147  0.00  0.00    +0.019 A 
ATOM     38  C   UNL     1       0.953  -5.673  14.575  0.00  0.00    +0.120 A 
ATOM     39  N   UNL     1       1.343  -6.652  15.483  0.00  0.00    -0.263 NA
ATOM     40  C   UNL     1       1.884  -7.882  15.080  0.00  0.00    +0.111 A 
ENDBRANCH   4   3
ENDBRANCH  10   9
BRANCH  12  13
ATOM     13  N   UNL     1      -0.938  -2.763   4.677  0.00  0.00    -0.281 N 
ATOM     14  C   UNL     1      -1.241  -3.325   3.448  0.00  0.00    +0.248 C 
ATOM     30  O   UNL     1      -2.021  -4.252   3.285  0.00  0.00    -0.270 OA
ATOM     31  H   UNL     1      -0.134  -2.136   4.697  0.00  0.00    +0.155 HD
BRANCH  14  15
ATOM     15  C   UNL     1      -0.570  -2.791   2.224  0.00  0.00    +0.037 A 
ATOM     16  C   UNL     1      -0.248  -1.367   2.095  0.00  0.00    +0.013 A 
ATOM     17  C   UNL     1       0.384  -0.875   0.896  0.00  0.00    +0.005 A 
ATOM     18  C   UNL     1       0.701  -1.809  -0.182  0.00  0.00    -0.033 A 
ATOM     28  C   UNL     1       0.375  -3.216  -0.025  0.00  0.00    +0.005 A 
ATOM     29  C   UNL     1      -0.246  -3.702   1.148  0.00  0.00    +0.013 A 
BRANCH  18  19
ATOM     19  C   UNL     1       1.356  -1.368  -1.504  0.00  0.00    +0.119 C 
BRANCH  19  20
ATOM     20  N   UNL     1       0.649  -1.726  -2.770  0.00  0.00    -0.302 NA
ATOM     21  C   UNL     1       1.480  -1.382  -4.009  0.00  0.00    +0.066 C 
ATOM     22  C   UNL     1       0.736  -1.784  -5.324  0.00  0.00    -0.064 C 
ATOM     23  N   UNL     1      -0.623  -1.084  -5.372  0.00  0.00    +0.379 N 
ATOM     24  C   UNL     1      -1.301  -1.414  -6.633  0.00  0.00    -0.096 C 
ATOM     25  H   UNL     1      -0.437   0.015  -5.365  0.00  0.00    -0.082 HD
ATOM     26  C   UNL     1      -1.455  -1.419  -4.142  0.00  0.00    -0.064 C 
ATOM     27  C   UNL     1      -0.694  -1.042  -2.840  0.00  0.00    +0.066 C 
ENDBRANCH  19  20
ENDBRANCH  18  19
ENDBRANCH  14  15
ENDBRANCH  12  13
TORSDOF 6
ENDMDL
MODEL 3
REMARK VINA RESULT:     -11.1      2.120     12.579
REMARK  Name = C:\Users\Docking\Desktop\test protocol\1iep_ligandH.pdb
REMARK  8 active torsions:
REMARK  status: ('A' for Active; 'I' for Inactive)
REMARK    1  A    between atoms: _5  and  _11
REMARK    2  A    between atoms: _19  and  _21
REMARK    3  A    between atoms: _22  and  _66
REMARK    4  A    between atoms: _27  and  _30
REMARK    5  A    between atoms: _32  and  _33
REMARK    6  A    between atoms: _38  and  _43
REMARK    7  A    between atoms: _43  and  _46
REMARK    8  A    between atoms: _53  and  _55
REMARK                            x       y       z     vdW  Elec       q    Type
REMARK                         _______ _______ _______ _____ _____    ______ ____
ROOT
ATOM     10  C   UNL     1      -1.867  -4.001   8.166  0.00  0.00    +0.038 A 
ATOM     11  C   UNL     1      -1.147  -3.858   6.952  0.00  0.00    +0.047 A 
ATOM     12  C   UNL     1      -1.617  -2.972   5.899  0.00  0.00    +0.035 A 
ATOM     32  C   UNL     1      -2.823  -2.244   6.116  0.00  0.00    +0.024 A 
ATOM     33  C   UNL     1      -3.568  -2.378   7.344  0.00  0.00    +0.007 A 
ATOM     34  C   UNL     1      -3.110  -3.252   8.385  0.00  0.00    -0.029 A 
ATOM     35  C   UNL     1      -3.953  -3.362   9.678  0.00  0.00    +0.045 C 
ENDROOT
BRANCH  10   9
ATOM      4  C   UNL     1       0.669  -4.882  12.145  0.00  0.00    +0.077 A 
ATOM      5  C   UNL     1       1.059  -3.507  12.272  0.00  0.00    +0.048 A 
ATOM      6  C   UNL     1       0.592  -2.607  11.288  0.00  0.00    +0.116 A 
ATOM      7  N   UNL     1      -0.206  -3.058  10.259  0.00  0.00    -0.223 NA
ATOM      8  C   UNL     1      -0.562  -4.391  10.165  0.00  0.00    +0.220 A 
ATOM      9  N   UNL     1      -1.370  -4.866   9.144  0.00  0.00    -0.283 N 
ATOM     36  H   UNL     1      -1.604  -5.858   9.106  0.00  0.00    +0.155 HD
ATOM     37  N   UNL     1      -0.128  -5.271  11.091  0.00  0.00    -0.214 NA
BRANCH   4   3
ATOM      1  C   UNL     1       2.010  -8.234  13.649  0.00  0.00    +0.020 A 
ATOM      2  C   UNL     1       1.629  -7.234  12.679  0.00  0.00    +0.013 A 
ATOM      3  C   UNL     1       1.080  -5.953  13.107  0.00  0.00    +0.019 A 
ATOM     38  C   UNL     1       0.930  -5.714  14.534  0.00  0.00    +0.120 A 
ATOM     39  N   UNL     1       1.304  -6.697  15.445  0.00  0.00    -0.263 NA
ATOM     40  C   UNL     1       1.832  -7.934  15.045  0.00  0.00    +0.111 A 
ENDBRANCH   4   3
ENDBRANCH  10   9
BRANCH  12  13
ATOM     13  N   UNL     1      -0.933  -2.792   4.642  0.00  0.00    -0.281 N 
ATOM     14  C   UNL     1      -1.255  -3.340   3.411  0.00  0.00    +0.248 C 
ATOM     30  O   UNL     1      -2.062  -4.244   3.247  0.00  0.00    -0.270 OA
ATOM     31  H   UNL     1      -0.112  -2.188   4.663  0.00  0.00    +0.155 HD
BRANCH  14  15
ATOM     15  C   UNL     1      -0.573  -2.819   2.188  0.00  0.00    +0.037 A 
ATOM     16  C   UNL     1      -0.243  -1.398   2.049  0.00  0.00    +0.013 A 
ATOM     17  C   UNL     1       0.400  -0.919   0.851  0.00  0.00    +0.005 A 
ATOM     18  C   UNL     1       0.719  -1.863  -0.217  0.00  0.00    -0.033 A 
ATOM     28  C   UNL     1       0.385  -3.268  -0.051  0.00  0.00    +0.005 A 
ATOM     29  C   UNL     1      -0.247  -3.741   1.121  0.00  0.00    +0.013 A 
BRANCH  18  19
ATOM     19  C   UNL     1       1.385  -1.437  -1.539  0.00  0.00    +0.119 C 
BRANCH  19  20
ATOM     20  N   UNL     1       2.469  -2.315  -2.072  0.00  0.00    -0.302 NA
ATOM     21  C   UNL     1       3.863  -1.777  -1.734  0.00  0.00    +0.066 C 
ATOM     22  C   UNL     1       4.984  -2.720  -2.280  0.00  0.00    -0.064 C 
ATOM     23  N   UNL     1       4.819  -2.882  -3.792  0.00  0.00    +0.379 N 
ATOM     24  C   UNL     1       5.906  -3.721  -4.318  0.00  0.00    -0.096 C 
ATOM     25  H   UNL     1       4.918  -1.871  -4.253  0.00  0.00    -0.082 HD
ATOM     26  C   UNL     1       3.435  -3.413  -4.138  0.00  0.00    -0.064 C 
ATOM     27  C   UNL     1       2.327  -2.485  -3.565  0.00  0.00    +0.066 C 
ENDBRANCH  19  20
ENDBRANCH  18  19
ENDBRANCH  14  15
ENDBRANCH  12  13
TORSDOF 6
ENDMDL
MODEL 4
REMARK VINA RESULT:     -10.5      2.577     12.092
REMARK  Name = C:\Users\Docking\Desktop\test protocol\1iep_ligandH.pdb
REMARK  8 active torsions:
REMARK  status: ('A' for Active; 'I' for Inactive)
REMARK    1  A    between atoms: _5  and  _11
REMARK    2  A    between atoms: _19  and  _21
REMARK    3  A    between atoms: _22  and  _66
REMARK    4  A    between atoms: _27  and  _30
REMARK    5  A    between atoms: _32  and  _33
REMARK    6  A    between atoms: _38  and  _43
REMARK    7  A    between atoms: _43  and  _46
REMARK    8  A    between atoms: _53  and  _55
REMARK                            x       y       z     vdW  Elec       q    Type
REMARK                         _______ _______ _______ _____ _____    ______ ____
ROOT
ATOM     10  C   UNL     1      -2.016  -3.669   8.673  0.00  0.00    +0.038 A 
ATOM     11  C   UNL     1      -1.257  -3.548   7.481  0.00  0.00    +0.047 A 
ATOM     12  C   UNL     1      -1.873  -3.114   6.237  0.00  0.00    +0.035 A 
ATOM     32  C   UNL     1      -3.265  -2.809   6.243  0.00  0.00    +0.024 A 
ATOM     33  C   UNL     1      -4.053  -2.928   7.445  0.00  0.00    +0.007 A 
ATOM     34  C   UNL     1      -3.451  -3.358   8.674  0.00  0.00    -0.029 A 
ATOM     35  C   UNL     1      -4.345  -3.474   9.931  0.00  0.00    +0.045 C 
ENDROOT
BRANCH  10   9
ATOM      4  C   UNL     1       1.747  -3.713  11.651  0.00  0.00    +0.077 A 
ATOM      5  C   UNL     1       2.508  -2.846  10.798  0.00  0.00    +0.048 A 
ATOM      6  C   UNL     1       1.897  -2.417   9.598  0.00  0.00    +0.116 A 
ATOM      7  N   UNL     1       0.620  -2.830   9.286  0.00  0.00    -0.223 NA
ATOM      8  C   UNL     1      -0.085  -3.668  10.130  0.00  0.00    +0.220 A 
ATOM      9  N   UNL     1      -1.373  -4.090   9.839  0.00  0.00    -0.283 N 
ATOM     36  H   UNL     1      -1.857  -4.714  10.484  0.00  0.00    +0.155 HD
ATOM     37  N   UNL     1       0.477  -4.093  11.280  0.00  0.00    -0.214 NA
BRANCH   4   3
ATOM      1  C   UNL     1       4.106  -5.000  14.493  0.00  0.00    +0.020 A 
ATOM      2  C   UNL     1       3.669  -4.482  13.218  0.00  0.00    +0.013 A 
ATOM      3  C   UNL     1       2.255  -4.249  12.954  0.00  0.00    +0.019 A 
ATOM     38  C   UNL     1       1.301  -4.553  14.010  0.00  0.00    +0.120 A 
ATOM     39  N   UNL     1       1.752  -5.052  15.228  0.00  0.00    -0.263 NA
ATOM     40  C   UNL     1       3.110  -5.282  15.493  0.00  0.00    +0.111 A 
ENDBRANCH   4   3
ENDBRANCH  10   9
BRANCH  12  13
ATOM     13  N   UNL     1      -1.154  -2.980   4.994  0.00  0.00    -0.281 N 
ATOM     14  C   UNL     1      -1.529  -3.434   3.740  0.00  0.00    +0.248 C 
ATOM     30  O   UNL     1      -2.445  -4.215   3.533  0.00  0.00    -0.270 OA
ATOM     31  H   UNL     1      -0.260  -2.491   5.045  0.00  0.00    +0.155 HD
BRANCH  14  15
ATOM     15  C   UNL     1      -0.767  -2.962   2.544  0.00  0.00    +0.037 A 
ATOM     16  C   UNL     1      -0.274  -1.585   2.451  0.00  0.00    +0.013 A 
ATOM     17  C   UNL     1       0.443  -1.152   1.278  0.00  0.00    +0.005 A 
ATOM     18  C   UNL     1       0.674  -2.098   0.189  0.00  0.00    -0.033 A 
ATOM     28  C   UNL     1       0.179  -3.459   0.310  0.00  0.00    +0.005 A 
ATOM     29  C   UNL     1      -0.525  -3.887   1.457  0.00  0.00    +0.013 A 
BRANCH  18  19
ATOM     19  C   UNL     1       1.412  -1.716  -1.108  0.00  0.00    +0.119 C 
BRANCH  19  20
ATOM     20  N   UNL     1       2.706  -0.984  -0.969  0.00  0.00    -0.302 NA
ATOM     21  C   UNL     1       3.206  -0.441  -2.310  0.00  0.00    +0.066 C 
ATOM     22  C   UNL     1       4.549   0.341  -2.142  0.00  0.00    -0.064 C 
ATOM     23  N   UNL     1       5.595  -0.577  -1.506  0.00  0.00    +0.379 N 
ATOM     24  C   UNL     1       6.875   0.137  -1.400  0.00  0.00    -0.096 C 
ATOM     25  H   UNL     1       5.746  -1.443  -2.192  0.00  0.00    -0.082 HD
ATOM     26  C   UNL     1       5.104  -1.124  -0.173  0.00  0.00    -0.064 C 
ATOM     27  C   UNL     1       3.754  -1.874  -0.346  0.00  0.00    +0.066 C 
ENDBRANCH  19  20
ENDBRANCH  18  19
ENDBRANCH  14  15
ENDBRANCH  12  13
TORSDOF 6
ENDMDL
MODEL 5
REMARK VINA RESULT:     -10.0      2.333     12.691
REMARK  Name = C:\Users\Docking\Desktop\test protocol\1iep_ligandH.pdb
REMARK  8 active torsions:
REMARK  status: ('A' for Active; 'I' for Inactive)
REMARK    1  A    between atoms: _5  and  _11
REMARK    2  A    between atoms: _19  and  _21
REMARK    3  A    between atoms: _22  and  _66
REMARK    4  A    between atoms: _27  and  _30
REMARK    5  A    between atoms: _32  and  _33
REMARK    6  A    between atoms: _38  and  _43
REMARK    7  A    between atoms: _43  and  _46
REMARK    8  A    between atoms: _53  and  _55
REMARK                            x       y       z     vdW  Elec       q    Type
REMARK                         _______ _______ _______ _____ _____    ______ ____
ROOT
ATOM     10  C   UNL     1      -1.839  -3.161   8.298  0.00  0.00    +0.038 A 
ATOM     11  C   UNL     1      -1.116  -2.933   7.100  0.00  0.00    +0.047 A 
ATOM     12  C   UNL     1      -1.799  -2.800   5.822  0.00  0.00    +0.035 A 
ATOM     32  C   UNL     1      -3.221  -2.902   5.803  0.00  0.00    +0.024 A 
ATOM     33  C   UNL     1      -3.972  -3.135   7.012  0.00  0.00    +0.007 A 
ATOM     34  C   UNL     1      -3.303  -3.269   8.274  0.00  0.00    -0.029 A 
ATOM     35  C   UNL     1      -4.158  -3.524   9.537  0.00  0.00    +0.045 C 
ENDROOT
BRANCH  10   9
ATOM      4  C   UNL     1       2.220  -2.984  10.853  0.00  0.00    +0.077 A 
ATOM      5  C   UNL     1       3.003  -2.652   9.698  0.00  0.00    +0.048 A 
ATOM      6  C   UNL     1       2.324  -2.543   8.464  0.00  0.00    +0.116 A 
ATOM      7  N   UNL     1       0.963  -2.753   8.402  0.00  0.00    -0.223 NA
ATOM      8  C   UNL     1       0.238  -3.073   9.535  0.00  0.00    +0.220 A 
ATOM      9  N   UNL     1      -1.132  -3.281   9.497  0.00  0.00    -0.283 N 
ATOM     36  H   UNL     1      -1.629  -3.523  10.354  0.00  0.00    +0.155 HD
ATOM     37  N   UNL     1       0.864  -3.185  10.725  0.00  0.00    -0.214 NA
BRANCH   4   3
ATOM      1  C   UNL     1       3.533  -2.204  14.454  0.00  0.00    +0.020 A 
ATOM      2  C   UNL     1       2.976  -2.007  13.136  0.00  0.00    +0.013 A 
ATOM      3  C   UNL     1       2.793  -3.132  12.229  0.00  0.00    +0.019 A 
ATOM     38  C   UNL     1       3.187  -4.455  12.690  0.00  0.00    +0.120 A 
ATOM     39  N   UNL     1       3.722  -4.614  13.964  0.00  0.00    -0.263 NA
ATOM     40  C   UNL     1       3.904  -3.538  14.846  0.00  0.00    +0.111 A 
ENDBRANCH   4   3
ENDBRANCH  10   9
BRANCH  12  13
ATOM     13  N   UNL     1      -1.118  -2.577   4.572  0.00  0.00    -0.281 N 
ATOM     14  C   UNL     1      -1.109  -3.389   3.449  0.00  0.00    +0.248 C 
ATOM     30  O   UNL     1      -1.516  -4.541   3.427  0.00  0.00    -0.270 OA
ATOM     31  H   UNL     1      -0.576  -1.715   4.506  0.00  0.00    +0.155 HD
BRANCH  14  15
ATOM     15  C   UNL     1      -0.556  -2.847   2.171  0.00  0.00    +0.037 A 
ATOM     16  C   UNL     1      -0.334  -1.411   1.987  0.00  0.00    +0.013 A 
ATOM     17  C   UNL     1       0.185  -0.913   0.737  0.00  0.00    +0.005 A 
ATOM     18  C   UNL     1       0.487  -1.855  -0.338  0.00  0.00    -0.033 A 
ATOM     28  C   UNL     1       0.262  -3.275  -0.127  0.00  0.00    +0.005 A 
ATOM     29  C   UNL     1      -0.247  -3.766   1.096  0.00  0.00    +0.013 A 
BRANCH  18  19
ATOM     19  C   UNL     1       1.024  -1.411  -1.712  0.00  0.00    +0.119 C 
BRANCH  19  20
ATOM     20  N   UNL     1       0.203  -1.756  -2.911  0.00  0.00    -0.302 NA
ATOM     21  C   UNL     1       0.757  -1.120  -4.189  0.00  0.00    +0.066 C 
ATOM     22  C   UNL     1      -0.101  -1.509  -5.437  0.00  0.00    -0.064 C 
ATOM     23  N   UNL     1      -1.553  -1.085  -5.206  0.00  0.00    +0.379 N 
ATOM     24  C   UNL     1      -2.351  -1.398  -6.401  0.00  0.00    -0.096 C 
ATOM     25  H   UNL     1      -1.565   0.021  -5.071  0.00  0.00    -0.082 HD
ATOM     26  C   UNL     1      -2.111  -1.711  -3.936  0.00  0.00    -0.064 C 
ATOM     27  C   UNL     1      -1.234  -1.342  -2.707  0.00  0.00    +0.066 C 
ENDBRANCH  19  20
ENDBRANCH  18  19
ENDBRANCH  14  15
ENDBRANCH  12  13
TORSDOF 6
ENDMDL
