MODEL 1
REMARK VINA RESULT:     -11.8      0.000      0.000
REMARK  Name = C:\Users\Docking\Desktop\test protocol\1iep_ligandH.pdb
REMARK  8 active torsions:
REMARK  status: ('A' for Active; 'I' for Inactive)
REMARK    1  A    between atoms: _5  and  _11
REMARK    2  A    between atoms: _19  and  _21
REMARK    3  A    between atoms: _22  and  _66
REMARK    4  A    between atoms: _27  and  _30
REMARK    5  A    between atoms: _32  and  _33
REMARK    6  A    between atoms: _38  and  _43
REMARK    7  A    between atoms: _43  and  _46
REMARK    8  A    between atoms: _53  and  _55
REMARK                            x       y       z     vdW  Elec       q    Type
REMARK                         _______ _______ _______ _____ _____    ______ ____
ROOT
ATOM     10  C   UNL     1      -1.459  -3.944   3.511  0.00  0.00    +0.038 A 
ATOM     11  C   UNL     1      -0.584  -3.752   4.610  0.00  0.00    +0.047 A 
ATOM     12  C   UNL     1      -1.099  -3.531   5.952  0.00  0.00    +0.035 A 
ATOM     32  C   UNL     1      -2.511  -3.513   6.139  0.00  0.00    +0.024 A 
ATOM     33  C   UNL     1      -3.416  -3.705   5.033  0.00  0.00    +0.007 A 
ATOM     34  C   UNL     1      -2.914  -3.921   3.706  0.00  0.00    -0.029 A 
ATOM     35  C   UNL     1      -3.930  -4.115   2.556  0.00  0.00    +0.045 C 
ENDROOT
BRANCH  10   9
ATOM      4  C   UNL     1       0.923  -2.431  -0.372  0.00  0.00    +0.077 A 
ATOM      5  C   UNL     1       1.062  -1.105   0.157  0.00  0.00    +0.048 A 
ATOM      6  C   UNL     1       0.500  -0.851   1.429  0.00  0.00    +0.116 A 
ATOM      7  N   UNL     1      -0.150  -1.857   2.111  0.00  0.00    -0.223 NA
ATOM      8  C   UNL     1      -0.268  -3.124   1.571  0.00  0.00    +0.220 A 
ATOM      9  N   UNL     1      -0.910  -4.153   2.243  0.00  0.00    -0.283 N 
ATOM     36  H   UNL     1      -0.982  -5.072   1.808  0.00  0.00    +0.155 HD
ATOM     37  N   UNL     1       0.259  -3.392   0.358  0.00  0.00    -0.214 NA
BRANCH   4   3
ATOM      1  C   UNL     1       2.725  -4.449  -3.197  0.00  0.00    +0.020 A 
ATOM      2  C   UNL     1       2.223  -4.085  -1.892  0.00  0.00    +0.013 A 
ATOM      3  C   UNL     1       1.465  -2.855  -1.702  0.00  0.00    +0.019 A 
ATOM     38  C   UNL     1       1.230  -2.009  -2.862  0.00  0.00    +0.120 A 
ATOM     39  N   UNL     1       1.726  -2.384  -4.106  0.00  0.00    -0.263 NA
ATOM     40  C   UNL     1       2.458  -3.564  -4.301  0.00  0.00    +0.111 A 
ENDBRANCH   4   3
ENDBRANCH  10   9
BRANCH  12  13
ATOM     13  N   UNL     1      -0.258  -3.322   7.106  0.00  0.00    -0.281 N 
ATOM     14  C   UNL     1      -0.444  -2.424   8.143  0.00  0.00    +0.248 C 
ATOM     30  O   UNL     1      -1.255  -1.509   8.129  0.00  0.00    -0.270 OA
ATOM     31  H   UNL     1       0.574  -3.908   7.164  0.00  0.00    +0.155 HD
BRANCH  14  15
ATOM     15  C   UNL     1       0.402  -2.551   9.369  0.00  0.00    +0.037 A 
ATOM     16  C   UNL     1       1.854  -2.718   9.276  0.00  0.00    +0.013 A 
ATOM     17  C   UNL     1       2.645  -2.856  10.473  0.00  0.00    +0.005 A 
ATOM     18  C   UNL     1       1.983  -2.825  11.775  0.00  0.00    -0.033 A 
ATOM     28  C   UNL     1       0.542  -2.653  11.839  0.00  0.00    +0.005 A 
ATOM     29  C   UNL     1      -0.237  -2.519  10.668  0.00  0.00    +0.013 A 
BRANCH  18  19
ATOM     19  C   UNL     1       2.745  -2.985  13.104  0.00  0.00    +0.119 C 
BRANCH  19  20
ATOM     20  N   UNL     1       2.225  -3.996  14.073  0.00  0.00    -0.302 NA
ATOM     21  C   UNL     1       3.306  -4.462  15.052  0.00  0.00    +0.066 C 
ATOM     22  C   UNL     1       2.739  -5.502  16.073  0.00  0.00    -0.064 C 
ATOM     23  N   UNL     1       2.148  -6.690  15.311  0.00  0.00    +0.379 N 
ATOM     24  C   UNL     1       1.666  -7.696  16.269  0.00  0.00    -0.096 C 
ATOM     25  H   UNL     1       2.970  -7.154  14.718  0.00  0.00    -0.082 HD
ATOM     26  C   UNL     1       1.074  -6.234  14.333  0.00  0.00    -0.064 C 
ATOM     27  C   UNL     1       1.641  -5.179  13.342  0.00  0.00    +0.066 C 
ENDBRANCH  19  20
ENDBRANCH  18  19
ENDBRANCH  14  15
ENDBRANCH  12  13
TORSDOF 6
ENDMDL
MODEL 2
REMARK VINA RESULT:     -11.3      2.209     13.162
REMARK  Name = C:\Users\Docking\Desktop\test protocol\1iep_ligandH.pdb
REMARK  8 active torsions:
REMARK  status: ('A' for Active; 'I' for Inactive)
REMARK    1  A    between atoms: _5  and  _11
REMARK    2  A    between atoms: _19  and  _21
REMARK    3  A    between atoms: _22  and  _66
REMARK    4  A    between atoms: _27  and  _30
REMARK    5  A    between atoms: _32  and  _33
REMARK    6  A    between atoms: _38  and  _43
REMARK    7  A    between atoms: _43  and  _46
REMARK    8  A    between atoms: _53  and  _55
REMARK                            x       y       z     vdW  Elec       q    Type
REMARK                         _______ _______ _______ _____ _____    ______ ____
ROOT
ATOM     10  C   UNL     1      -1.854  -4.001   8.160  0.00  0.00    +0.038 A 
ATOM     11  C   UNL     1      -1.125  -3.861   6.952  0.00  0.00    +0.047 A 
ATOM     12  C   UNL     1      -1.606  -3.006   5.878  0.00  0.00    +0.035 A 
ATOM     32  C   UNL     1      -2.832  -2.305   6.069  0.00  0.00    +0.024 A 
ATOM     33  C   UNL     1      -3.586  -2.436   7.291  0.00  0.00    +0.007 A 
ATOM     34  C   UNL     1      -3.118  -3.280   8.353  0.00  0.00    -0.029 A 
ATOM     35  C   UNL     1      -3.971  -3.388   9.638  0.00  0.00    +0.045 C 
ENDROOT
BRANCH  10   9
ATOM      4  C   UNL     1       0.718  -4.757  12.142  0.00  0.00    +0.077 A 
ATOM      5  C   UNL     1       1.105  -3.378  12.225  0.00  0.00    +0.048 A 
ATOM      6  C   UNL     1       0.626  -2.508  11.219  0.00  0.00    +0.116 A 
ATOM      7  N   UNL     1      -0.179  -2.992  10.211  0.00  0.00    -0.223 NA
ATOM      8  C   UNL     1      -0.531  -4.328  10.159  0.00  0.00    +0.220 A 
ATOM      9  N   UNL     1      -1.346  -4.835   9.159  0.00  0.00    -0.283 N 
ATOM     36  H   UNL     1      -1.577  -5.828   9.152  0.00  0.00    +0.155 HD
ATOM     37  N   UNL     1      -0.086  -5.180  11.107  0.00  0.00    -0.214 NA
BRANCH   4   3
ATOM      1  C   UNL     1       2.016  -8.086  13.733  0.00  0.00    +0.020 A 
ATOM      2  C   UNL     1       1.619  -7.117  12.737  0.00  0.00    +0.013 A 
ATOM      3  C   UNL     1       1.141  -5.798  13.131  0.00  0.00    +0.019 A 
ATOM     38  C   UNL     1       1.075  -5.489  14.551  0.00  0.00    +0.120 A 
ATOM     39  N   UNL     1       1.462  -6.443  15.487  0.00  0.00    -0.263 NA
ATOM     40  C   UNL     1       1.923  -7.716  15.120  0.00  0.00    +0.111 A 
ENDBRANCH   4   3
ENDBRANCH  10   9
BRANCH  12  13
ATOM     13  N   UNL     1      -0.913  -2.832   4.625  0.00  0.00    -0.281 N 
ATOM     14  C   UNL     1      -1.275  -3.312   3.377  0.00  0.00    +0.248 C 
ATOM     30  O   UNL     1      -2.144  -4.149   3.184  0.00  0.00    -0.270 OA
ATOM     31  H   UNL     1      -0.050  -2.289   4.663  0.00  0.00    +0.155 HD
BRANCH  14  15
ATOM     15  C   UNL     1      -0.559  -2.797   2.170  0.00  0.00    +0.037 A 
ATOM     16  C   UNL     1      -0.192  -1.384   2.049  0.00  0.00    +0.013 A 
ATOM     17  C   UNL     1       0.483  -0.911   0.867  0.00  0.00    +0.005 A 
ATOM     18  C   UNL     1       0.796  -1.854  -0.205  0.00  0.00    -0.033 A 
ATOM     28  C   UNL     1       0.425  -3.251  -0.056  0.00  0.00    +0.005 A 
ATOM     29  C   UNL     1      -0.238  -3.718   1.101  0.00  0.00    +0.013 A 
BRANCH  18  19
ATOM     19  C   UNL     1       1.496  -1.434  -1.511  0.00  0.00    +0.119 C 
BRANCH  19  20
ATOM     20  N   UNL     1       0.800  -1.755  -2.793  0.00  0.00    -0.302 NA
ATOM     21  C   UNL     1       1.666  -1.431  -4.013  0.00  0.00    +0.066 C 
ATOM     22  C   UNL     1       0.932  -1.794  -5.345  0.00  0.00    -0.064 C 
ATOM     23  N   UNL     1      -0.399  -1.044  -5.411  0.00  0.00    +0.379 N 
ATOM     24  C   UNL     1      -1.065  -1.338  -6.689  0.00  0.00    -0.096 C 
ATOM     25  H   UNL     1      -0.173   0.048  -5.391  0.00  0.00    -0.082 HD
ATOM     26  C   UNL     1      -1.266  -1.358  -4.200  0.00  0.00    -0.064 C 
ATOM     27  C   UNL     1      -0.515  -1.021  -2.881  0.00  0.00    +0.066 C 
ENDBRANCH  19  20
ENDBRANCH  18  19
ENDBRANCH  14  15
ENDBRANCH  12  13
TORSDOF 6
ENDMDL
MODEL 3
REMARK VINA RESULT:     -11.3      2.205     12.628
REMARK  Name = C:\Users\Docking\Desktop\test protocol\1iep_ligandH.pdb
REMARK  8 active torsions:
REMARK  status: ('A' for Active; 'I' for Inactive)
REMARK    1  A    between atoms: _5  and  _11
REMARK    2  A    between atoms: _19  and  _21
REMARK    3  A    between atoms: _22  and  _66
REMARK    4  A    between atoms: _27  and  _30
REMARK    5  A    between atoms: _32  and  _33
REMARK    6  A    between atoms: _38  and  _43
REMARK    7  A    between atoms: _43  and  _46
REMARK    8  A    between atoms: _53  and  _55
REMARK                            x       y       z     vdW  Elec       q    Type
REMARK                         _______ _______ _______ _____ _____    ______ ____
ROOT
ATOM     10  C   UNL     1      -1.882  -3.979   8.302  0.00  0.00    +0.038 A 
ATOM     11  C   UNL     1      -1.167  -3.852   7.084  0.00  0.00    +0.047 A 
ATOM     12  C   UNL     1      -1.645  -2.987   6.017  0.00  0.00    +0.035 A 
ATOM     32  C   UNL     1      -2.855  -2.263   6.226  0.00  0.00    +0.024 A 
ATOM     33  C   UNL     1      -3.596  -2.381   7.457  0.00  0.00    +0.007 A 
ATOM     34  C   UNL     1      -3.130  -3.235   8.512  0.00  0.00    -0.029 A 
ATOM     35  C   UNL     1      -3.968  -3.328   9.808  0.00  0.00    +0.045 C 
ENDROOT
BRANCH  10   9
ATOM      4  C   UNL     1       0.720  -4.787  12.254  0.00  0.00    +0.077 A 
ATOM      5  C   UNL     1       1.129  -3.415  12.336  0.00  0.00    +0.048 A 
ATOM      6  C   UNL     1       0.653  -2.534  11.338  0.00  0.00    +0.116 A 
ATOM      7  N   UNL     1      -0.170  -3.003  10.337  0.00  0.00    -0.223 NA
ATOM      8  C   UNL     1      -0.544  -4.333  10.286  0.00  0.00    +0.220 A 
ATOM      9  N   UNL     1      -1.377  -4.824   9.293  0.00  0.00    -0.283 N 
ATOM     36  H   UNL     1      -1.624  -5.814   9.285  0.00  0.00    +0.155 HD
ATOM     37  N   UNL     1      -0.102  -5.194  11.226  0.00  0.00    -0.214 NA
BRANCH   4   3
ATOM      1  C   UNL     1       2.005  -8.133  13.821  0.00  0.00    +0.020 A 
ATOM      2  C   UNL     1       1.614  -7.154  12.832  0.00  0.00    +0.013 A 
ATOM      3  C   UNL     1       1.136  -5.838  13.236  0.00  0.00    +0.019 A 
ATOM     38  C   UNL     1       1.065  -5.540  14.658  0.00  0.00    +0.120 A 
ATOM     39  N   UNL     1       1.446  -6.503  15.588  0.00  0.00    -0.263 NA
ATOM     40  C   UNL     1       1.906  -7.774  15.212  0.00  0.00    +0.111 A 
ENDBRANCH   4   3
ENDBRANCH  10   9
BRANCH  12  13
ATOM     13  N   UNL     1      -0.966  -2.824   4.756  0.00  0.00    -0.281 N 
ATOM     14  C   UNL     1      -1.352  -3.298   3.513  0.00  0.00    +0.248 C 
ATOM     30  O   UNL     1      -2.236  -4.122   3.332  0.00  0.00    -0.270 OA
ATOM     31  H   UNL     1      -0.094  -2.294   4.782  0.00  0.00    +0.155 HD
BRANCH  14  15
ATOM     15  C   UNL     1      -0.643  -2.796   2.296  0.00  0.00    +0.037 A 
ATOM     16  C   UNL     1      -0.234  -1.394   2.180  0.00  0.00    +0.013 A 
ATOM     17  C   UNL     1       0.433  -0.932   0.988  0.00  0.00    +0.005 A 
ATOM     18  C   UNL     1       0.696  -1.875  -0.097  0.00  0.00    -0.033 A 
ATOM     28  C   UNL     1       0.283  -3.261   0.047  0.00  0.00    +0.005 A 
ATOM     29  C   UNL     1      -0.371  -3.717   1.213  0.00  0.00    +0.013 A 
BRANCH  18  19
ATOM     19  C   UNL     1       1.383  -1.465  -1.413  0.00  0.00    +0.119 C 
BRANCH  19  20
ATOM     20  N   UNL     1       2.484  -2.341  -1.911  0.00  0.00    -0.302 NA
ATOM     21  C   UNL     1       3.818  -2.033  -1.227  0.00  0.00    +0.066 C 
ATOM     22  C   UNL     1       4.954  -2.974  -1.744  0.00  0.00    -0.064 C 
ATOM     23  N   UNL     1       5.078  -2.833  -3.262  0.00  0.00    +0.379 N 
ATOM     24  C   UNL     1       6.184  -3.674  -3.744  0.00  0.00    -0.096 C 
ATOM     25  H   UNL     1       5.339  -1.772  -3.483  0.00  0.00    -0.082 HD
ATOM     26  C   UNL     1       3.755  -3.136  -3.950  0.00  0.00    -0.064 C 
ATOM     27  C   UNL     1       2.627  -2.214  -3.408  0.00  0.00    +0.066 C 
ENDBRANCH  19  20
ENDBRANCH  18  19
ENDBRANCH  14  15
ENDBRANCH  12  13
TORSDOF 6
ENDMDL
MODEL 4
REMARK VINA RESULT:     -11.2      2.743     12.680
REMARK  Name = C:\Users\Docking\Desktop\test protocol\1iep_ligandH.pdb
REMARK  8 active torsions:
REMARK  status: ('A' for Active; 'I' for Inactive)
REMARK    1  A    between atoms: _5  and  _11
REMARK    2  A    between atoms: _19  and  _21
REMARK    3  A    between atoms: _22  and  _66
REMARK    4  A    between atoms: _27  and  _30
REMARK    5  A    between atoms: _32  and  _33
REMARK    6  A    between atoms: _38  and  _43
REMARK    7  A    between atoms: _43  and  _46
REMARK    8  A    between atoms: _53  and  _55
REMARK                            x       y       z     vdW  Elec       q    Type
REMARK                         _______ _______ _______ _____ _____    ______ ____
ROOT
ATOM     10  C   UNL     1      -1.871  -3.987   8.175  0.00  0.00    +0.038 A 
ATOM     11  C   UNL     1      -1.152  -3.827   6.963  0.00  0.00    +0.047 A 
ATOM     12  C   UNL     1      -1.641  -2.955   5.906  0.00  0.00    +0.035 A 
ATOM     32  C   UNL     1      -2.866  -2.258   6.119  0.00  0.00    +0.024 A 
ATOM     33  C   UNL     1      -3.611  -2.409   7.344  0.00  0.00    +0.007 A 
ATOM     34  C   UNL     1      -3.134  -3.270   8.389  0.00  0.00    -0.029 A 
ATOM     35  C   UNL     1      -3.977  -3.399   9.679  0.00  0.00    +0.045 C 
ENDROOT
BRANCH  10   9
ATOM      4  C   UNL     1       0.658  -4.793  12.173  0.00  0.00    +0.077 A 
ATOM      5  C   UNL     1       1.003  -3.407  12.305  0.00  0.00    +0.048 A 
ATOM      6  C   UNL     1       0.516  -2.520  11.319  0.00  0.00    +0.116 A 
ATOM      7  N   UNL     1      -0.259  -2.995  10.283  0.00  0.00    -0.223 NA
ATOM      8  C   UNL     1      -0.572  -4.339  10.184  0.00  0.00    +0.220 A 
ATOM      9  N   UNL     1      -1.355  -4.837   9.155  0.00  0.00    -0.283 N 
ATOM     36  H   UNL     1      -1.558  -5.836   9.114  0.00  0.00    +0.155 HD
ATOM     37  N   UNL     1      -0.117  -5.206  11.113  0.00  0.00    -0.214 NA
BRANCH   4   3
ATOM      1  C   UNL     1       2.035  -8.129  13.683  0.00  0.00    +0.020 A 
ATOM      2  C   UNL     1       1.627  -7.141  12.711  0.00  0.00    +0.013 A 
ATOM      3  C   UNL     1       1.095  -5.852  13.137  0.00  0.00    +0.019 A 
ATOM     38  C   UNL     1       0.988  -5.593  14.565  0.00  0.00    +0.120 A 
ATOM     39  N   UNL     1       1.388  -6.565  15.478  0.00  0.00    -0.263 NA
ATOM     40  C   UNL     1       1.900  -7.809  15.079  0.00  0.00    +0.111 A 
ENDBRANCH   4   3
ENDBRANCH  10   9
BRANCH  12  13
ATOM     13  N   UNL     1      -0.958  -2.760   4.652  0.00  0.00    -0.281 N 
ATOM     14  C   UNL     1      -1.219  -3.370   3.436  0.00  0.00    +0.248 C 
ATOM     30  O   UNL     1      -1.948  -4.341   3.292  0.00  0.00    -0.270 OA
ATOM     31  H   UNL     1      -0.188  -2.091   4.661  0.00  0.00    +0.155 HD
BRANCH  14  15
ATOM     15  C   UNL     1      -0.566  -2.834   2.203  0.00  0.00    +0.037 A 
ATOM     16  C   UNL     1      -0.273  -3.701   1.059  0.00  0.00    +0.013 A 
ATOM     17  C   UNL     1       0.373  -3.162  -0.111  0.00  0.00    +0.005 A 
ATOM     18  C   UNL     1       0.730  -1.745  -0.143  0.00  0.00    -0.033 A 
ATOM     28  C   UNL     1       0.424  -0.906   1.004  0.00  0.00    +0.005 A 
ATOM     29  C   UNL     1      -0.209  -1.432   2.153  0.00  0.00    +0.013 A 
BRANCH  18  19
ATOM     19  C   UNL     1       1.441  -1.089  -1.341  0.00  0.00    +0.119 C 
BRANCH  19  20
ATOM     20  N   UNL     1       2.059   0.252  -1.118  0.00  0.00    -0.302 NA
ATOM     21  C   UNL     1       1.234   1.376  -1.752  0.00  0.00    +0.066 C 
ATOM     22  C   UNL     1       1.883   2.775  -1.491  0.00  0.00    -0.064 C 
ATOM     23  N   UNL     1       3.313   2.780  -2.033  0.00  0.00    +0.379 N 
ATOM     24  C   UNL     1       3.906   4.112  -1.841  0.00  0.00    -0.096 C 
ATOM     25  H   UNL     1       3.259   2.589  -3.130  0.00  0.00    -0.082 HD
ATOM     26  C   UNL     1       4.139   1.664  -1.410  0.00  0.00    -0.064 C 
ATOM     27  C   UNL     1       3.471   0.281  -1.650  0.00  0.00    +0.066 C 
ENDBRANCH  19  20
ENDBRANCH  18  19
ENDBRANCH  14  15
ENDBRANCH  12  13
TORSDOF 6
ENDMDL
MODEL 5
REMARK VINA RESULT:     -10.1      3.799      5.989
REMARK  Name = C:\Users\Docking\Desktop\test protocol\1iep_ligandH.pdb
REMARK  8 active torsions:
REMARK  status: ('A' for Active; 'I' for Inactive)
REMARK    1  A    between atoms: _5  and  _11
REMARK    2  A    between atoms: _19  and  _21
REMARK    3  A    between atoms: _22  and  _66
REMARK    4  A    between atoms: _27  and  _30
REMARK    5  A    between atoms: _32  and  _33
REMARK    6  A    between atoms: _38  and  _43
REMARK    7  A    between atoms: _43  and  _46
REMARK    8  A    between atoms: _53  and  _55
REMARK                            x       y       z     vdW  Elec       q    Type
REMARK                         _______ _______ _______ _____ _____    ______ ____
ROOT
ATOM     10  C   UNL     1       1.459  -2.295  -0.432  0.00  0.00    +0.038 A 
ATOM     11  C   UNL     1       0.920  -2.442   0.872  0.00  0.00    +0.047 A 
ATOM     12  C   UNL     1      -0.447  -2.044   1.170  0.00  0.00    +0.035 A 
ATOM     32  C   UNL     1      -1.238  -1.501   0.116  0.00  0.00    +0.024 A 
ATOM     33  C   UNL     1      -0.706  -1.344  -1.215  0.00  0.00    +0.007 A 
ATOM     34  C   UNL     1       0.642  -1.733  -1.515  0.00  0.00    -0.029 A 
ATOM     35  C   UNL     1       1.162  -1.535  -2.958  0.00  0.00    +0.045 C 
ENDROOT
BRANCH  10   9
ATOM      4  C   UNL     1       6.195  -1.525  -0.324  0.00  0.00    +0.077 A 
ATOM      5  C   UNL     1       6.028  -0.205   0.214  0.00  0.00    +0.048 A 
ATOM      6  C   UNL     1       4.706   0.240   0.441  0.00  0.00    +0.116 A 
ATOM      7  N   UNL     1       3.639  -0.581   0.149  0.00  0.00    -0.223 NA
ATOM      8  C   UNL     1       3.835  -1.848  -0.370  0.00  0.00    +0.220 A 
ATOM      9  N   UNL     1       2.777  -2.694  -0.663  0.00  0.00    -0.283 N 
ATOM     36  H   UNL     1       2.963  -3.618  -1.052  0.00  0.00    +0.155 HD
ATOM     37  N   UNL     1       5.087  -2.296  -0.597  0.00  0.00    -0.214 NA
BRANCH   4   3
ATOM      1  C   UNL     1       9.135  -3.396  -2.100  0.00  0.00    +0.020 A 
ATOM      2  C   UNL     1       7.830  -2.820  -1.868  0.00  0.00    +0.013 A 
ATOM      3  C   UNL     1       7.529  -2.139  -0.616  0.00  0.00    +0.019 A 
ATOM     38  C   UNL     1       8.578  -2.056   0.389  0.00  0.00    +0.120 A 
ATOM     39  N   UNL     1       9.825  -2.621   0.138  0.00  0.00    -0.263 NA
ATOM     40  C   UNL     1      10.126  -3.280  -1.063  0.00  0.00    +0.111 A 
ENDBRANCH   4   3
ENDBRANCH  10   9
BRANCH  12  13
ATOM     13  N   UNL     1      -1.045  -2.162   2.477  0.00  0.00    -0.281 N 
ATOM     14  C   UNL     1      -1.496  -3.310   3.107  0.00  0.00    +0.248 C 
ATOM     30  O   UNL     1      -1.649  -4.388   2.551  0.00  0.00    -0.270 OA
ATOM     31  H   UNL     1      -1.149  -1.293   3.001  0.00  0.00    +0.155 HD
BRANCH  14  15
ATOM     15  C   UNL     1      -1.841  -3.249   4.560  0.00  0.00    +0.037 A 
ATOM     16  C   UNL     1      -3.204  -3.509   5.029  0.00  0.00    +0.013 A 
ATOM     17  C   UNL     1      -3.514  -3.426   6.434  0.00  0.00    +0.005 A 
ATOM     18  C   UNL     1      -2.455  -3.084   7.382  0.00  0.00    -0.033 A 
ATOM     28  C   UNL     1      -1.110  -2.837   6.889  0.00  0.00    +0.005 A 
ATOM     29  C   UNL     1      -0.804  -2.916   5.512  0.00  0.00    +0.013 A 
BRANCH  18  19
ATOM     19  C   UNL     1      -2.699  -2.954   8.897  0.00  0.00    +0.119 C 
BRANCH  19  20
ATOM     20  N   UNL     1      -1.690  -3.571   9.808  0.00  0.00    -0.302 NA
ATOM     21  C   UNL     1      -2.342  -4.472  10.861  0.00  0.00    +0.066 C 
ATOM     22  C   UNL     1      -1.270  -5.127  11.791  0.00  0.00    -0.064 C 
ATOM     23  N   UNL     1      -0.436  -4.031  12.457  0.00  0.00    +0.379 N 
ATOM     24  C   UNL     1       0.534  -4.642  13.376  0.00  0.00    -0.096 C 
ATOM     25  H   UNL     1      -1.128  -3.402  13.064  0.00  0.00    -0.082 HD
ATOM     26  C   UNL     1       0.213  -3.129  11.416  0.00  0.00    -0.064 C 
ATOM     27  C   UNL     1      -0.858  -2.506  10.479  0.00  0.00    +0.066 C 
ENDBRANCH  19  20
ENDBRANCH  18  19
ENDBRANCH  14  15
ENDBRANCH  12  13
TORSDOF 6
ENDMDL
