MODEL 1
REMARK VINA RESULT:      -9.5      0.000      0.000
REMARK  Name = C:\Users\Docking\Desktop\test protocol\1iep_ligandH.pdb
REMARK  8 active torsions:
REMARK  status: ('A' for Active; 'I' for Inactive)
REMARK    1  A    between atoms: _5  and  _11
REMARK    2  A    between atoms: _19  and  _21
REMARK    3  A    between atoms: _22  and  _66
REMARK    4  A    between atoms: _27  and  _30
REMARK    5  A    between atoms: _32  and  _33
REMARK    6  A    between atoms: _38  and  _43
REMARK    7  A    between atoms: _43  and  _46
REMARK    8  A    between atoms: _53  and  _55
REMARK                            x       y       z     vdW  Elec       q    Type
REMARK                         _______ _______ _______ _____ _____    ______ ____
ROOT
ATOM     10  C   UNL     1      12.243   1.980 -13.730  0.00  0.00    +0.038 A 
ATOM     11  C   UNL     1      12.587   2.715 -14.893  0.00  0.00    +0.047 A 
ATOM     12  C   UNL     1      13.890   2.564 -15.522  0.00  0.00    +0.035 A 
ATOM     32  C   UNL     1      14.818   1.652 -14.940  0.00  0.00    +0.024 A 
ATOM     33  C   UNL     1      14.486   0.898 -13.757  0.00  0.00    +0.007 A 
ATOM     34  C   UNL     1      13.203   1.045 -13.132  0.00  0.00    -0.029 A 
ATOM     35  C   UNL     1      12.904   0.215 -11.861  0.00  0.00    +0.045 C 
ENDROOT
BRANCH  10   9
ATOM      4  C   UNL     1       7.640   0.742 -13.168  0.00  0.00    +0.077 A 
ATOM      5  C   UNL     1       7.759  -0.348 -14.092  0.00  0.00    +0.048 A 
ATOM      6  C   UNL     1       9.020  -0.552 -14.696  0.00  0.00    +0.116 A 
ATOM      7  N   UNL     1      10.076   0.278 -14.391  0.00  0.00    -0.223 NA
ATOM      8  C   UNL     1       9.927   1.322 -13.496  0.00  0.00    +0.220 A 
ATOM      9  N   UNL     1      10.978   2.165 -13.168  0.00  0.00    -0.283 N 
ATOM     36  H   UNL     1      10.825   2.928 -12.509  0.00  0.00    +0.155 HD
ATOM     37  N   UNL     1       8.733   1.539 -12.907  0.00  0.00    -0.214 NA
BRANCH   4   3
ATOM      1  C   UNL     1       4.168   2.292 -12.250  0.00  0.00    +0.020 A 
ATOM      2  C   UNL     1       5.374   1.996 -12.988  0.00  0.00    +0.013 A 
ATOM      3  C   UNL     1       6.374   1.084 -12.446  0.00  0.00    +0.019 A 
ATOM     38  C   UNL     1       6.119   0.482 -11.146  0.00  0.00    +0.120 A 
ATOM     39  N   UNL     1       4.949   0.787 -10.458  0.00  0.00    -0.263 NA
ATOM     40  C   UNL     1       3.981   1.665 -10.968  0.00  0.00    +0.111 A 
ENDBRANCH   4   3
ENDBRANCH  10   9
BRANCH  12  13
ATOM     13  N   UNL     1      14.298   3.290 -16.699  0.00  0.00    -0.281 N 
ATOM     14  C   UNL     1      14.882   4.544 -16.767  0.00  0.00    +0.248 C 
ATOM     30  O   UNL     1      14.947   5.327 -15.831  0.00  0.00    -0.270 OA
ATOM     31  H   UNL     1      14.137   2.822 -17.591  0.00  0.00    +0.155 HD
BRANCH  14  15
ATOM     15  C   UNL     1      15.465   5.000 -18.065  0.00  0.00    +0.037 A 
ATOM     16  C   UNL     1      16.056   4.048 -19.009  0.00  0.00    +0.013 A 
ATOM     17  C   UNL     1      16.626   4.517 -20.247  0.00  0.00    +0.005 A 
ATOM     18  C   UNL     1      16.607   5.946 -20.549  0.00  0.00    -0.033 A 
ATOM     28  C   UNL     1      16.010   6.868 -19.597  0.00  0.00    +0.005 A 
ATOM     29  C   UNL     1      15.450   6.412 -18.382  0.00  0.00    +0.013 A 
BRANCH  18  19
ATOM     19  C   UNL     1      17.212   6.537 -21.836  0.00  0.00    +0.119 C 
BRANCH  19  20
ATOM     20  N   UNL     1      16.514   6.235 -23.121  0.00  0.00    -0.302 NA
ATOM     21  C   UNL     1      17.322   6.698 -24.336  0.00  0.00    +0.066 C 
ATOM     22  C   UNL     1      16.588   6.354 -25.673  0.00  0.00    -0.064 C 
ATOM     23  N   UNL     1      15.199   6.996 -25.669  0.00  0.00    +0.379 N 
ATOM     24  C   UNL     1      14.528   6.723 -26.948  0.00  0.00    -0.096 C 
ATOM     25  H   UNL     1      15.337   8.100 -25.588  0.00  0.00    -0.082 HD
ATOM     26  C   UNL     1      14.390   6.543 -24.462  0.00  0.00    -0.064 C 
ATOM     27  C   UNL     1      15.142   6.863 -23.140  0.00  0.00    +0.066 C 
ENDBRANCH  19  20
ENDBRANCH  18  19
ENDBRANCH  14  15
ENDBRANCH  12  13
TORSDOF 6
ENDMDL
MODEL 2
REMARK VINA RESULT:      -9.4      1.988     12.772
REMARK  Name = C:\Users\Docking\Desktop\test protocol\1iep_ligandH.pdb
REMARK  8 active torsions:
REMARK  status: ('A' for Active; 'I' for Inactive)
REMARK    1  A    between atoms: _5  and  _11
REMARK    2  A    between atoms: _19  and  _21
REMARK    3  A    between atoms: _22  and  _66
REMARK    4  A    between atoms: _27  and  _30
REMARK    5  A    between atoms: _32  and  _33
REMARK    6  A    between atoms: _38  and  _43
REMARK    7  A    between atoms: _43  and  _46
REMARK    8  A    between atoms: _53  and  _55
REMARK                            x       y       z     vdW  Elec       q    Type
REMARK                         _______ _______ _______ _____ _____    ______ ____
ROOT
ATOM     10  C   UNL     1      15.876   7.577 -19.106  0.00  0.00    +0.038 A 
ATOM     11  C   UNL     1      15.115   6.587 -18.432  0.00  0.00    +0.047 A 
ATOM     12  C   UNL     1      15.499   6.112 -17.112  0.00  0.00    +0.035 A 
ATOM     32  C   UNL     1      16.662   6.670 -16.505  0.00  0.00    +0.024 A 
ATOM     33  C   UNL     1      17.448   7.676 -17.176  0.00  0.00    +0.007 A 
ATOM     34  C   UNL     1      17.075   8.146 -18.479  0.00  0.00    -0.029 A 
ATOM     35  C   UNL     1      17.958   9.222 -19.154  0.00  0.00    +0.045 C 
ENDROOT
BRANCH  10   9
ATOM      4  C   UNL     1      15.497   6.969 -23.852  0.00  0.00    +0.077 A 
ATOM      5  C   UNL     1      16.208   5.723 -23.808  0.00  0.00    +0.048 A 
ATOM      6  C   UNL     1      16.660   5.278 -22.546  0.00  0.00    +0.116 A 
ATOM      7  N   UNL     1      16.414   6.030 -21.418  0.00  0.00    -0.223 NA
ATOM      8  C   UNL     1      15.728   7.228 -21.495  0.00  0.00    +0.220 A 
ATOM      9  N   UNL     1      15.462   7.996 -20.372  0.00  0.00    -0.283 N 
ATOM     36  H   UNL     1      14.959   8.877 -20.472  0.00  0.00    +0.155 HD
ATOM     37  N   UNL     1      15.286   7.676 -22.689  0.00  0.00    -0.214 NA
BRANCH   4   3
ATOM      1  C   UNL     1      14.218   7.431 -27.519  0.00  0.00    +0.020 A 
ATOM      2  C   UNL     1      14.747   6.802 -26.331  0.00  0.00    +0.013 A 
ATOM      3  C   UNL     1      14.954   7.571 -25.110  0.00  0.00    +0.019 A 
ATOM     38  C   UNL     1      14.612   8.985 -25.125  0.00  0.00    +0.120 A 
ATOM     39  N   UNL     1      14.106   9.564 -26.285  0.00  0.00    -0.263 NA
ATOM     40  C   UNL     1      13.904   8.834 -27.466  0.00  0.00    +0.111 A 
ENDBRANCH   4   3
ENDBRANCH  10   9
BRANCH  12  13
ATOM     13  N   UNL     1      14.770   5.104 -16.383  0.00  0.00    -0.281 N 
ATOM     14  C   UNL     1      14.996   3.737 -16.364  0.00  0.00    +0.248 C 
ATOM     30  O   UNL     1      15.731   3.147 -17.142  0.00  0.00    -0.270 OA
ATOM     31  H   UNL     1      13.993   5.438 -15.813  0.00  0.00    +0.155 HD
BRANCH  14  15
ATOM     15  C   UNL     1      14.294   2.904 -15.341  0.00  0.00    +0.037 A 
ATOM     16  C   UNL     1      13.012   3.323 -14.770  0.00  0.00    +0.013 A 
ATOM     17  C   UNL     1      12.364   2.509 -13.772  0.00  0.00    +0.005 A 
ATOM     18  C   UNL     1      12.998   1.265 -13.341  0.00  0.00    -0.033 A 
ATOM     28  C   UNL     1      14.267   0.870 -13.928  0.00  0.00    +0.005 A 
ATOM     29  C   UNL     1      14.906   1.666 -14.905  0.00  0.00    +0.013 A 
BRANCH  18  19
ATOM     19  C   UNL     1      12.388   0.345 -12.266  0.00  0.00    +0.119 C 
BRANCH  19  20
ATOM     20  N   UNL     1      10.942   0.531 -11.947  0.00  0.00    -0.302 NA
ATOM     21  C   UNL     1      10.634   0.225 -10.478  0.00  0.00    +0.066 C 
ATOM     22  C   UNL     1       9.120   0.447 -10.156  0.00  0.00    -0.064 C 
ATOM     23  N   UNL     1       8.271  -0.426 -11.081  0.00  0.00    +0.379 N 
ATOM     24  C   UNL     1       6.850  -0.263 -10.741  0.00  0.00    -0.096 C 
ATOM     25  H   UNL     1       8.545  -1.489 -10.888  0.00  0.00    -0.082 HD
ATOM     26  C   UNL     1       8.573  -0.130 -12.543  0.00  0.00    -0.064 C 
ATOM     27  C   UNL     1      10.085  -0.325 -12.846  0.00  0.00    +0.066 C 
ENDBRANCH  19  20
ENDBRANCH  18  19
ENDBRANCH  14  15
ENDBRANCH  12  13
TORSDOF 6
ENDMDL
MODEL 3
REMARK VINA RESULT:      -9.2      2.724      3.897
REMARK  Name = C:\Users\Docking\Desktop\test protocol\1iep_ligandH.pdb
REMARK  8 active torsions:
REMARK  status: ('A' for Active; 'I' for Inactive)
REMARK    1  A    between atoms: _5  and  _11
REMARK    2  A    between atoms: _19  and  _21
REMARK    3  A    between atoms: _22  and  _66
REMARK    4  A    between atoms: _27  and  _30
REMARK    5  A    between atoms: _32  and  _33
REMARK    6  A    between atoms: _38  and  _43
REMARK    7  A    between atoms: _43  and  _46
REMARK    8  A    between atoms: _53  and  _55
REMARK                            x       y       z     vdW  Elec       q    Type
REMARK                         _______ _______ _______ _____ _____    ______ ____
ROOT
ATOM     10  C   UNL     1      12.268   1.987 -13.181  0.00  0.00    +0.038 A 
ATOM     11  C   UNL     1      12.783   2.949 -14.087  0.00  0.00    +0.047 A 
ATOM     12  C   UNL     1      14.124   2.824 -14.635  0.00  0.00    +0.035 A 
ATOM     32  C   UNL     1      14.913   1.704 -14.242  0.00  0.00    +0.024 A 
ATOM     33  C   UNL     1      14.406   0.717 -13.321  0.00  0.00    +0.007 A 
ATOM     34  C   UNL     1      13.084   0.837 -12.775  0.00  0.00    -0.029 A 
ATOM     35  C   UNL     1      12.594  -0.247 -11.787  0.00  0.00    +0.045 C 
ENDROOT
BRANCH  10   9
ATOM      4  C   UNL     1       7.575   0.980 -13.165  0.00  0.00    +0.077 A 
ATOM      5  C   UNL     1       7.709   0.057 -14.255  0.00  0.00    +0.048 A 
ATOM      6  C   UNL     1       9.002  -0.125 -14.796  0.00  0.00    +0.116 A 
ATOM      7  N   UNL     1      10.073   0.570 -14.277  0.00  0.00    -0.223 NA
ATOM      8  C   UNL     1       9.909   1.454 -13.227  0.00  0.00    +0.220 A 
ATOM      9  N   UNL     1      10.973   2.157 -12.685  0.00  0.00    -0.283 N 
ATOM     36  H   UNL     1      10.809   2.806 -11.915  0.00  0.00    +0.155 HD
ATOM     37  N   UNL     1       8.684   1.646 -12.694  0.00  0.00    -0.214 NA
BRANCH   4   3
ATOM      1  C   UNL     1       4.110   2.553 -12.258  0.00  0.00    +0.020 A 
ATOM      2  C   UNL     1       5.354   2.306 -12.951  0.00  0.00    +0.013 A 
ATOM      3  C   UNL     1       6.275   1.277 -12.485  0.00  0.00    +0.019 A 
ATOM     38  C   UNL     1       5.904   0.510 -11.305  0.00  0.00    +0.120 A 
ATOM     39  N   UNL     1       4.701   0.771 -10.658  0.00  0.00    -0.263 NA
ATOM     40  C   UNL     1       3.808   1.759 -11.096  0.00  0.00    +0.111 A 
ENDBRANCH   4   3
ENDBRANCH  10   9
BRANCH  12  13
ATOM     13  N   UNL     1      14.704   3.774 -15.553  0.00  0.00    -0.281 N 
ATOM     14  C   UNL     1      14.526   3.850 -16.924  0.00  0.00    +0.248 C 
ATOM     30  O   UNL     1      14.006   2.978 -17.604  0.00  0.00    -0.270 OA
ATOM     31  H   UNL     1      15.320   4.474 -15.141  0.00  0.00    +0.155 HD
BRANCH  14  15
ATOM     15  C   UNL     1      15.007   5.066 -17.648  0.00  0.00    +0.037 A 
ATOM     16  C   UNL     1      14.386   6.375 -17.432  0.00  0.00    +0.013 A 
ATOM     17  C   UNL     1      14.859   7.529 -18.156  0.00  0.00    +0.005 A 
ATOM     18  C   UNL     1      15.962   7.378 -19.102  0.00  0.00    -0.033 A 
ATOM     28  C   UNL     1      16.563   6.069 -19.293  0.00  0.00    +0.005 A 
ATOM     29  C   UNL     1      16.102   4.936 -18.586  0.00  0.00    +0.013 A 
BRANCH  18  19
ATOM     19  C   UNL     1      16.517   8.550 -19.933  0.00  0.00    +0.119 C 
BRANCH  19  20
ATOM     20  N   UNL     1      17.098   9.704 -19.184  0.00  0.00    -0.302 NA
ATOM     21  C   UNL     1      17.711  10.747 -20.123  0.00  0.00    +0.066 C 
ATOM     22  C   UNL     1      18.294  11.958 -19.324  0.00  0.00    -0.064 C 
ATOM     23  N   UNL     1      19.334  11.452 -18.323  0.00  0.00    +0.379 N 
ATOM     24  C   UNL     1      19.926  12.594 -17.611  0.00  0.00    -0.096 C 
ATOM     25  H   UNL     1      20.147  10.956 -18.902  0.00  0.00    -0.082 HD
ATOM     26  C   UNL     1      18.733  10.413 -17.388  0.00  0.00    -0.064 C 
ATOM     27  C   UNL     1      18.130   9.227 -18.193  0.00  0.00    +0.066 C 
ENDBRANCH  19  20
ENDBRANCH  18  19
ENDBRANCH  14  15
ENDBRANCH  12  13
TORSDOF 6
ENDMDL
MODEL 4
REMARK VINA RESULT:      -9.1      2.367     12.329
REMARK  Name = C:\Users\Docking\Desktop\test protocol\1iep_ligandH.pdb
REMARK  8 active torsions:
REMARK  status: ('A' for Active; 'I' for Inactive)
REMARK    1  A    between atoms: _5  and  _11
REMARK    2  A    between atoms: _19  and  _21
REMARK    3  A    between atoms: _22  and  _66
REMARK    4  A    between atoms: _27  and  _30
REMARK    5  A    between atoms: _32  and  _33
REMARK    6  A    between atoms: _38  and  _43
REMARK    7  A    between atoms: _43  and  _46
REMARK    8  A    between atoms: _53  and  _55
REMARK                            x       y       z     vdW  Elec       q    Type
REMARK                         _______ _______ _______ _____ _____    ______ ____
ROOT
ATOM     10  C   UNL     1      15.877   7.634 -19.097  0.00  0.00    +0.038 A 
ATOM     11  C   UNL     1      15.127   6.637 -18.422  0.00  0.00    +0.047 A 
ATOM     12  C   UNL     1      15.525   6.157 -17.108  0.00  0.00    +0.035 A 
ATOM     32  C   UNL     1      16.691   6.716 -16.509  0.00  0.00    +0.024 A 
ATOM     33  C   UNL     1      17.466   7.729 -17.181  0.00  0.00    +0.007 A 
ATOM     34  C   UNL     1      17.079   8.205 -18.479  0.00  0.00    -0.029 A 
ATOM     35  C   UNL     1      17.951   9.289 -19.155  0.00  0.00    +0.045 C 
ENDROOT
BRANCH  10   9
ATOM      4  C   UNL     1      15.576   7.122 -23.860  0.00  0.00    +0.077 A 
ATOM      5  C   UNL     1      16.361   5.921 -23.839  0.00  0.00    +0.048 A 
ATOM      6  C   UNL     1      16.829   5.472 -22.584  0.00  0.00    +0.116 A 
ATOM      7  N   UNL     1      16.528   6.180 -21.440  0.00  0.00    -0.223 NA
ATOM      8  C   UNL     1      15.770   7.336 -21.495  0.00  0.00    +0.220 A 
ATOM      9  N   UNL     1      15.449   8.059 -20.357  0.00  0.00    -0.283 N 
ATOM     36  H   UNL     1      14.894   8.910 -20.440  0.00  0.00    +0.155 HD
ATOM     37  N   UNL     1      15.313   7.785 -22.682  0.00  0.00    -0.214 NA
BRANCH   4   3
ATOM      1  C   UNL     1      14.302   7.595 -27.527  0.00  0.00    +0.020 A 
ATOM      2  C   UNL     1      14.857   6.970 -26.349  0.00  0.00    +0.013 A 
ATOM      3  C   UNL     1      15.008   7.720 -25.109  0.00  0.00    +0.019 A 
ATOM     38  C   UNL     1      14.583   9.112 -25.094  0.00  0.00    +0.120 A 
ATOM     39  N   UNL     1      14.053   9.688 -26.244  0.00  0.00    -0.263 NA
ATOM     40  C   UNL     1      13.905   8.976 -27.444  0.00  0.00    +0.111 A 
ENDBRANCH   4   3
ENDBRANCH  10   9
BRANCH  12  13
ATOM     13  N   UNL     1      14.807   5.141 -16.379  0.00  0.00    -0.281 N 
ATOM     14  C   UNL     1      14.975   3.767 -16.443  0.00  0.00    +0.248 C 
ATOM     30  O   UNL     1      15.626   3.190 -17.302  0.00  0.00    -0.270 OA
ATOM     31  H   UNL     1      14.089   5.475 -15.736  0.00  0.00    +0.155 HD
BRANCH  14  15
ATOM     15  C   UNL     1      14.313   2.910 -15.414  0.00  0.00    +0.037 A 
ATOM     16  C   UNL     1      14.966   1.707 -14.892  0.00  0.00    +0.013 A 
ATOM     17  C   UNL     1      14.298   0.888 -13.912  0.00  0.00    +0.005 A 
ATOM     18  C   UNL     1      12.967   1.271 -13.446  0.00  0.00    -0.033 A 
ATOM     28  C   UNL     1      12.344   2.472 -13.976  0.00  0.00    +0.005 A 
ATOM     29  C   UNL     1      12.996   3.277 -14.938  0.00  0.00    +0.013 A 
BRANCH  18  19
ATOM     19  C   UNL     1      12.171   0.445 -12.418  0.00  0.00    +0.119 C 
BRANCH  19  20
ATOM     20  N   UNL     1      11.020  -0.357 -12.930  0.00  0.00    -0.302 NA
ATOM     21  C   UNL     1      11.142  -0.645 -14.429  0.00  0.00    +0.066 C 
ATOM     22  C   UNL     1       9.941  -1.504 -14.943  0.00  0.00    -0.064 C 
ATOM     23  N   UNL     1       8.630  -0.780 -14.634  0.00  0.00    +0.379 N 
ATOM     24  C   UNL     1       7.502  -1.558 -15.168  0.00  0.00    -0.096 C 
ATOM     25  H   UNL     1       8.650   0.198 -15.170  0.00  0.00    -0.082 HD
ATOM     26  C   UNL     1       8.502  -0.488 -13.146  0.00  0.00    -0.064 C 
ATOM     27  C   UNL     1       9.715   0.342 -12.640  0.00  0.00    +0.066 C 
ENDBRANCH  19  20
ENDBRANCH  18  19
ENDBRANCH  14  15
ENDBRANCH  12  13
TORSDOF 6
ENDMDL
MODEL 5
REMARK VINA RESULT:      -9.1      3.853     12.782
REMARK  Name = C:\Users\Docking\Desktop\test protocol\1iep_ligandH.pdb
REMARK  8 active torsions:
REMARK  status: ('A' for Active; 'I' for Inactive)
REMARK    1  A    between atoms: _5  and  _11
REMARK    2  A    between atoms: _19  and  _21
REMARK    3  A    between atoms: _22  and  _66
REMARK    4  A    between atoms: _27  and  _30
REMARK    5  A    between atoms: _32  and  _33
REMARK    6  A    between atoms: _38  and  _43
REMARK    7  A    between atoms: _43  and  _46
REMARK    8  A    between atoms: _53  and  _55
REMARK                            x       y       z     vdW  Elec       q    Type
REMARK                         _______ _______ _______ _____ _____    ______ ____
ROOT
ATOM     10  C   UNL     1      15.872   7.607 -19.177  0.00  0.00    +0.038 A 
ATOM     11  C   UNL     1      15.135   6.574 -18.543  0.00  0.00    +0.047 A 
ATOM     12  C   UNL     1      15.516   6.074 -17.232  0.00  0.00    +0.035 A 
ATOM     32  C   UNL     1      16.653   6.650 -16.593  0.00  0.00    +0.024 A 
ATOM     33  C   UNL     1      17.414   7.699 -17.223  0.00  0.00    +0.007 A 
ATOM     34  C   UNL     1      17.044   8.196 -18.518  0.00  0.00    -0.029 A 
ATOM     35  C   UNL     1      17.901   9.318 -19.148  0.00  0.00    +0.045 C 
ENDROOT
BRANCH  10   9
ATOM      4  C   UNL     1      15.449   7.057 -23.926  0.00  0.00    +0.077 A 
ATOM      5  C   UNL     1      16.126   5.793 -23.900  0.00  0.00    +0.048 A 
ATOM      6  C   UNL     1      16.575   5.323 -22.645  0.00  0.00    +0.116 A 
ATOM      7  N   UNL     1      16.355   6.070 -21.508  0.00  0.00    -0.223 NA
ATOM      8  C   UNL     1      15.700   7.286 -21.569  0.00  0.00    +0.220 A 
ATOM      9  N   UNL     1      15.462   8.050 -20.436  0.00  0.00    -0.283 N 
ATOM     36  H   UNL     1      14.981   8.945 -20.524  0.00  0.00    +0.155 HD
ATOM     37  N   UNL     1      15.264   7.757 -22.755  0.00  0.00    -0.214 NA
BRANCH   4   3
ATOM      1  C   UNL     1      14.172   7.592 -27.585  0.00  0.00    +0.020 A 
ATOM      2  C   UNL     1      14.691   6.937 -26.406  0.00  0.00    +0.013 A 
ATOM      3  C   UNL     1      14.913   7.685 -25.175  0.00  0.00    +0.019 A 
ATOM     38  C   UNL     1      14.596   9.106 -25.170  0.00  0.00    +0.120 A 
ATOM     39  N   UNL     1      14.098   9.709 -26.320  0.00  0.00    -0.263 NA
ATOM     40  C   UNL     1      13.882   9.000 -27.511  0.00  0.00    +0.111 A 
ENDBRANCH   4   3
ENDBRANCH  10   9
BRANCH  12  13
ATOM     13  N   UNL     1      14.811   5.021 -16.543  0.00  0.00    -0.281 N 
ATOM     14  C   UNL     1      15.094   3.665 -16.543  0.00  0.00    +0.248 C 
ATOM     30  O   UNL     1      15.873   3.121 -17.311  0.00  0.00    -0.270 OA
ATOM     31  H   UNL     1      14.006   5.311 -15.988  0.00  0.00    +0.155 HD
BRANCH  14  15
ATOM     15  C   UNL     1      14.399   2.783 -15.556  0.00  0.00    +0.037 A 
ATOM     16  C   UNL     1      12.979   2.963 -15.243  0.00  0.00    +0.013 A 
ATOM     17  C   UNL     1      12.338   2.109 -14.275  0.00  0.00    +0.005 A 
ATOM     18  C   UNL     1      13.117   1.066 -13.613  0.00  0.00    -0.033 A 
ATOM     28  C   UNL     1      14.523   0.906 -13.946  0.00  0.00    +0.005 A 
ATOM     29  C   UNL     1      15.155   1.742 -14.894  0.00  0.00    +0.013 A 
BRANCH  18  19
ATOM     19  C   UNL     1      12.521   0.123 -12.551  0.00  0.00    +0.119 C 
BRANCH  19  20
ATOM     20  N   UNL     1      13.239  -1.161 -12.295  0.00  0.00    -0.302 NA
ATOM     21  C   UNL     1      12.942  -2.209 -13.371  0.00  0.00    +0.066 C 
ATOM     22  C   UNL     1      13.720  -3.539 -13.100  0.00  0.00    -0.064 C 
ATOM     23  N   UNL     1      13.353  -4.067 -11.712  0.00  0.00    +0.379 N 
ATOM     24  C   UNL     1      14.038  -5.347 -11.478  0.00  0.00    -0.096 C 
ATOM     25  H   UNL     1      12.256  -4.264 -11.705  0.00  0.00    -0.082 HD
ATOM     26  C   UNL     1      13.643  -3.029 -10.637  0.00  0.00    -0.064 C 
ATOM     27  C   UNL     1      12.889  -1.703 -10.932  0.00  0.00    +0.066 C 
ENDBRANCH  19  20
ENDBRANCH  18  19
ENDBRANCH  14  15
ENDBRANCH  12  13
TORSDOF 6
ENDMDL
