MODEL 1
REMARK VINA RESULT:      -9.5      0.000      0.000
REMARK  Name = C:\Users\Docking\Desktop\test protocol\1iep_ligandH.pdb
REMARK  8 active torsions:
REMARK  status: ('A' for Active; 'I' for Inactive)
REMARK    1  A    between atoms: _5  and  _11
REMARK    2  A    between atoms: _19  and  _21
REMARK    3  A    between atoms: _22  and  _66
REMARK    4  A    between atoms: _27  and  _30
REMARK    5  A    between atoms: _32  and  _33
REMARK    6  A    between atoms: _38  and  _43
REMARK    7  A    between atoms: _43  and  _46
REMARK    8  A    between atoms: _53  and  _55
REMARK                            x       y       z     vdW  Elec       q    Type
REMARK                         _______ _______ _______ _____ _____    ______ ____
ROOT
ATOM     10  C   UNL     1      12.227   1.971 -13.706  0.00  0.00    +0.038 A 
ATOM     11  C   UNL     1      12.573   2.702 -14.871  0.00  0.00    +0.047 A 
ATOM     12  C   UNL     1      13.876   2.546 -15.498  0.00  0.00    +0.035 A 
ATOM     32  C   UNL     1      14.802   1.634 -14.913  0.00  0.00    +0.024 A 
ATOM     33  C   UNL     1      14.468   0.884 -13.728  0.00  0.00    +0.007 A 
ATOM     34  C   UNL     1      13.185   1.036 -13.104  0.00  0.00    -0.029 A 
ATOM     35  C   UNL     1      12.882   0.211 -11.831  0.00  0.00    +0.045 C 
ENDROOT
BRANCH  10   9
ATOM      4  C   UNL     1       7.616   0.756 -13.157  0.00  0.00    +0.077 A 
ATOM      5  C   UNL     1       7.731  -0.331 -14.086  0.00  0.00    +0.048 A 
ATOM      6  C   UNL     1       8.992  -0.540 -14.689  0.00  0.00    +0.116 A 
ATOM      7  N   UNL     1      10.052   0.284 -14.378  0.00  0.00    -0.223 NA
ATOM      8  C   UNL     1       9.907   1.324 -13.479  0.00  0.00    +0.220 A 
ATOM      9  N   UNL     1      10.962   2.160 -13.145  0.00  0.00    -0.283 N 
ATOM     36  H   UNL     1      10.812   2.921 -12.483  0.00  0.00    +0.155 HD
ATOM     37  N   UNL     1       8.713   1.545 -12.891  0.00  0.00    -0.214 NA
BRANCH   4   3
ATOM      1  C   UNL     1       4.139   2.301 -12.251  0.00  0.00    +0.020 A 
ATOM      2  C   UNL     1       5.345   2.001 -12.988  0.00  0.00    +0.013 A 
ATOM      3  C   UNL     1       6.350   1.101 -12.436  0.00  0.00    +0.019 A 
ATOM     38  C   UNL     1       6.103   0.517 -11.127  0.00  0.00    +0.120 A 
ATOM     39  N   UNL     1       4.933   0.825 -10.440  0.00  0.00    -0.263 NA
ATOM     40  C   UNL     1       3.959   1.691 -10.959  0.00  0.00    +0.111 A 
ENDBRANCH   4   3
ENDBRANCH  10   9
BRANCH  12  13
ATOM     13  N   UNL     1      14.286   3.267 -16.678  0.00  0.00    -0.281 N 
ATOM     14  C   UNL     1      14.854   4.528 -16.750  0.00  0.00    +0.248 C 
ATOM     30  O   UNL     1      14.899   5.320 -15.820  0.00  0.00    -0.270 OA
ATOM     31  H   UNL     1      14.141   2.789 -17.567  0.00  0.00    +0.155 HD
BRANCH  14  15
ATOM     15  C   UNL     1      15.444   4.981 -18.046  0.00  0.00    +0.037 A 
ATOM     16  C   UNL     1      16.011   4.023 -18.999  0.00  0.00    +0.013 A 
ATOM     17  C   UNL     1      16.590   4.488 -20.235  0.00  0.00    +0.005 A 
ATOM     18  C   UNL     1      16.602   5.920 -20.525  0.00  0.00    -0.033 A 
ATOM     28  C   UNL     1      16.028   6.848 -19.565  0.00  0.00    +0.005 A 
ATOM     29  C   UNL     1      15.461   6.396 -18.352  0.00  0.00    +0.013 A 
BRANCH  18  19
ATOM     19  C   UNL     1      17.218   6.507 -21.809  0.00  0.00    +0.119 C 
BRANCH  19  20
ATOM     20  N   UNL     1      16.525   6.209 -23.098  0.00  0.00    -0.302 NA
ATOM     21  C   UNL     1      17.326   6.698 -24.308  0.00  0.00    +0.066 C 
ATOM     22  C   UNL     1      16.597   6.358 -25.648  0.00  0.00    -0.064 C 
ATOM     23  N   UNL     1      15.199   6.979 -25.638  0.00  0.00    +0.379 N 
ATOM     24  C   UNL     1      14.533   6.710 -26.920  0.00  0.00    -0.096 C 
ATOM     25  H   UNL     1      15.321   8.083 -25.545  0.00  0.00    -0.082 HD
ATOM     26  C   UNL     1      14.397   6.501 -24.436  0.00  0.00    -0.064 C 
ATOM     27  C   UNL     1      15.144   6.817 -23.111  0.00  0.00    +0.066 C 
ENDBRANCH  19  20
ENDBRANCH  18  19
ENDBRANCH  14  15
ENDBRANCH  12  13
TORSDOF 6
ENDMDL
MODEL 2
REMARK VINA RESULT:      -9.3      2.029     12.765
REMARK  Name = C:\Users\Docking\Desktop\test protocol\1iep_ligandH.pdb
REMARK  8 active torsions:
REMARK  status: ('A' for Active; 'I' for Inactive)
REMARK    1  A    between atoms: _5  and  _11
REMARK    2  A    between atoms: _19  and  _21
REMARK    3  A    between atoms: _22  and  _66
REMARK    4  A    between atoms: _27  and  _30
REMARK    5  A    between atoms: _32  and  _33
REMARK    6  A    between atoms: _38  and  _43
REMARK    7  A    between atoms: _43  and  _46
REMARK    8  A    between atoms: _53  and  _55
REMARK                            x       y       z     vdW  Elec       q    Type
REMARK                         _______ _______ _______ _____ _____    ______ ____
ROOT
ATOM     10  C   UNL     1      15.889   7.593 -19.108  0.00  0.00    +0.038 A 
ATOM     11  C   UNL     1      15.133   6.598 -18.436  0.00  0.00    +0.047 A 
ATOM     12  C   UNL     1      15.520   6.121 -17.118  0.00  0.00    +0.035 A 
ATOM     32  C   UNL     1      16.682   6.681 -16.511  0.00  0.00    +0.024 A 
ATOM     33  C   UNL     1      17.463   7.692 -17.180  0.00  0.00    +0.007 A 
ATOM     34  C   UNL     1      17.087   8.164 -18.481  0.00  0.00    -0.029 A 
ATOM     35  C   UNL     1      17.965   9.245 -19.154  0.00  0.00    +0.045 C 
ENDROOT
BRANCH  10   9
ATOM      4  C   UNL     1      15.483   6.984 -23.851  0.00  0.00    +0.077 A 
ATOM      5  C   UNL     1      16.185   5.734 -23.811  0.00  0.00    +0.048 A 
ATOM      6  C   UNL     1      16.640   5.286 -22.550  0.00  0.00    +0.116 A 
ATOM      7  N   UNL     1      16.405   6.040 -21.421  0.00  0.00    -0.223 NA
ATOM      8  C   UNL     1      15.726   7.243 -21.496  0.00  0.00    +0.220 A 
ATOM      9  N   UNL     1      15.472   8.014 -20.372  0.00  0.00    -0.283 N 
ATOM     36  H   UNL     1      14.975   8.899 -20.470  0.00  0.00    +0.155 HD
ATOM     37  N   UNL     1      15.283   7.693 -22.688  0.00  0.00    -0.214 NA
BRANCH   4   3
ATOM      1  C   UNL     1      14.219   7.460 -27.523  0.00  0.00    +0.020 A 
ATOM      2  C   UNL     1      14.751   6.828 -26.337  0.00  0.00    +0.013 A 
ATOM      3  C   UNL     1      14.937   7.589 -25.108  0.00  0.00    +0.019 A 
ATOM     38  C   UNL     1      14.573   8.998 -25.111  0.00  0.00    +0.120 A 
ATOM     39  N   UNL     1      14.065   9.579 -26.269  0.00  0.00    -0.263 NA
ATOM     40  C   UNL     1      13.882   8.858 -27.458  0.00  0.00    +0.111 A 
ENDBRANCH   4   3
ENDBRANCH  10   9
BRANCH  12  13
ATOM     13  N   UNL     1      14.796   5.107 -16.391  0.00  0.00    -0.281 N 
ATOM     14  C   UNL     1      15.017   3.740 -16.389  0.00  0.00    +0.248 C 
ATOM     30  O   UNL     1      15.740   3.155 -17.182  0.00  0.00    -0.270 OA
ATOM     31  H   UNL     1      14.028   5.438 -15.808  0.00  0.00    +0.155 HD
BRANCH  14  15
ATOM     15  C   UNL     1      14.324   2.898 -15.367  0.00  0.00    +0.037 A 
ATOM     16  C   UNL     1      12.996   3.256 -14.861  0.00  0.00    +0.013 A 
ATOM     17  C   UNL     1      12.357   2.436 -13.863  0.00  0.00    +0.005 A 
ATOM     18  C   UNL     1      13.045   1.248 -13.364  0.00  0.00    -0.033 A 
ATOM     28  C   UNL     1      14.360   0.913 -13.886  0.00  0.00    +0.005 A 
ATOM     29  C   UNL     1      14.990   1.715 -14.864  0.00  0.00    +0.013 A 
BRANCH  18  19
ATOM     19  C   UNL     1      12.448   0.327 -12.284  0.00  0.00    +0.119 C 
BRANCH  19  20
ATOM     20  N   UNL     1      10.997   0.493 -11.970  0.00  0.00    -0.302 NA
ATOM     21  C   UNL     1      10.693   0.217 -10.494  0.00  0.00    +0.066 C 
ATOM     22  C   UNL     1       9.175   0.417 -10.179  0.00  0.00    -0.064 C 
ATOM     23  N   UNL     1       8.345  -0.496 -11.083  0.00  0.00    +0.379 N 
ATOM     24  C   UNL     1       6.920  -0.353 -10.749  0.00  0.00    -0.096 C 
ATOM     25  H   UNL     1       8.640  -1.548 -10.864  0.00  0.00    -0.082 HD
ATOM     26  C   UNL     1       8.643  -0.229 -12.552  0.00  0.00    -0.064 C 
ATOM     27  C   UNL     1      10.158  -0.402 -12.848  0.00  0.00    +0.066 C 
ENDBRANCH  19  20
ENDBRANCH  18  19
ENDBRANCH  14  15
ENDBRANCH  12  13
TORSDOF 6
ENDMDL
MODEL 3
REMARK VINA RESULT:      -9.2      3.677     12.896
REMARK  Name = C:\Users\Docking\Desktop\test protocol\1iep_ligandH.pdb
REMARK  8 active torsions:
REMARK  status: ('A' for Active; 'I' for Inactive)
REMARK    1  A    between atoms: _5  and  _11
REMARK    2  A    between atoms: _19  and  _21
REMARK    3  A    between atoms: _22  and  _66
REMARK    4  A    between atoms: _27  and  _30
REMARK    5  A    between atoms: _32  and  _33
REMARK    6  A    between atoms: _38  and  _43
REMARK    7  A    between atoms: _43  and  _46
REMARK    8  A    between atoms: _53  and  _55
REMARK                            x       y       z     vdW  Elec       q    Type
REMARK                         _______ _______ _______ _____ _____    ______ ____
ROOT
ATOM     10  C   UNL     1      15.817   7.579 -19.174  0.00  0.00    +0.038 A 
ATOM     11  C   UNL     1      15.081   6.548 -18.536  0.00  0.00    +0.047 A 
ATOM     12  C   UNL     1      15.467   6.049 -17.225  0.00  0.00    +0.035 A 
ATOM     32  C   UNL     1      16.607   6.626 -16.592  0.00  0.00    +0.024 A 
ATOM     33  C   UNL     1      17.367   7.673 -17.227  0.00  0.00    +0.007 A 
ATOM     34  C   UNL     1      16.992   8.167 -18.521  0.00  0.00    -0.029 A 
ATOM     35  C   UNL     1      17.847   9.288 -19.158  0.00  0.00    +0.045 C 
ENDROOT
BRANCH  10   9
ATOM      4  C   UNL     1      15.455   7.064 -23.933  0.00  0.00    +0.077 A 
ATOM      5  C   UNL     1      16.178   5.825 -23.913  0.00  0.00    +0.048 A 
ATOM      6  C   UNL     1      16.632   5.358 -22.659  0.00  0.00    +0.116 A 
ATOM      7  N   UNL     1      16.376   6.085 -21.516  0.00  0.00    -0.223 NA
ATOM      8  C   UNL     1      15.677   7.277 -21.570  0.00  0.00    +0.220 A 
ATOM      9  N   UNL     1      15.402   8.020 -20.433  0.00  0.00    -0.283 N 
ATOM     36  H   UNL     1      14.890   8.898 -20.516  0.00  0.00    +0.155 HD
ATOM     37  N   UNL     1      15.234   7.744 -22.756  0.00  0.00    -0.214 NA
BRANCH   4   3
ATOM      1  C   UNL     1      14.233   7.602 -27.609  0.00  0.00    +0.020 A 
ATOM      2  C   UNL     1      14.768   6.955 -26.433  0.00  0.00    +0.013 A 
ATOM      3  C   UNL     1      14.908   7.685 -25.180  0.00  0.00    +0.019 A 
ATOM     38  C   UNL     1      14.494   9.080 -25.150  0.00  0.00    +0.120 A 
ATOM     39  N   UNL     1      13.984   9.677 -26.298  0.00  0.00    -0.263 NA
ATOM     40  C   UNL     1      13.846   8.984 -27.510  0.00  0.00    +0.111 A 
ENDBRANCH   4   3
ENDBRANCH  10   9
BRANCH  12  13
ATOM     13  N   UNL     1      14.764   4.999 -16.531  0.00  0.00    -0.281 N 
ATOM     14  C   UNL     1      15.080   3.651 -16.480  0.00  0.00    +0.248 C 
ATOM     30  O   UNL     1      15.901   3.107 -17.204  0.00  0.00    -0.270 OA
ATOM     31  H   UNL     1      13.932   5.284 -16.015  0.00  0.00    +0.155 HD
BRANCH  14  15
ATOM     15  C   UNL     1      14.372   2.780 -15.494  0.00  0.00    +0.037 A 
ATOM     16  C   UNL     1      15.082   1.727 -14.763  0.00  0.00    +0.013 A 
ATOM     17  C   UNL     1      14.372   0.890 -13.829  0.00  0.00    +0.005 A 
ATOM     18  C   UNL     1      12.942   1.104 -13.620  0.00  0.00    -0.033 A 
ATOM     28  C   UNL     1      12.264   2.159 -14.354  0.00  0.00    +0.005 A 
ATOM     29  C   UNL     1      12.956   2.981 -15.271  0.00  0.00    +0.013 A 
BRANCH  18  19
ATOM     19  C   UNL     1      12.100   0.244 -12.659  0.00  0.00    +0.119 C 
BRANCH  19  20
ATOM     20  N   UNL     1      12.810  -0.829 -11.900  0.00  0.00    -0.302 NA
ATOM     21  C   UNL     1      12.801  -2.164 -12.649  0.00  0.00    +0.066 C 
ATOM     22  C   UNL     1      13.568  -3.269 -11.851  0.00  0.00    -0.064 C 
ATOM     23  N   UNL     1      12.940  -3.421 -10.465  0.00  0.00    +0.379 N 
ATOM     24  C   UNL     1      13.621  -4.500  -9.734  0.00  0.00    -0.096 C 
ATOM     25  H   UNL     1      11.877  -3.728 -10.607  0.00  0.00    -0.082 HD
ATOM     26  C   UNL     1      12.942  -2.097  -9.714  0.00  0.00    -0.064 C 
ATOM     27  C   UNL     1      12.204  -0.999 -10.529  0.00  0.00    +0.066 C 
ENDBRANCH  19  20
ENDBRANCH  18  19
ENDBRANCH  14  15
ENDBRANCH  12  13
TORSDOF 6
ENDMDL
MODEL 4
REMARK VINA RESULT:      -9.0      4.022      8.132
REMARK  Name = C:\Users\Docking\Desktop\test protocol\1iep_ligandH.pdb
REMARK  8 active torsions:
REMARK  status: ('A' for Active; 'I' for Inactive)
REMARK    1  A    between atoms: _5  and  _11
REMARK    2  A    between atoms: _19  and  _21
REMARK    3  A    between atoms: _22  and  _66
REMARK    4  A    between atoms: _27  and  _30
REMARK    5  A    between atoms: _32  and  _33
REMARK    6  A    between atoms: _38  and  _43
REMARK    7  A    between atoms: _43  and  _46
REMARK    8  A    between atoms: _53  and  _55
REMARK                            x       y       z     vdW  Elec       q    Type
REMARK                         _______ _______ _______ _____ _____    ______ ____
ROOT
ATOM     10  C   UNL     1      16.566   6.250 -19.185  0.00  0.00    +0.038 A 
ATOM     11  C   UNL     1      16.203   6.156 -20.553  0.00  0.00    +0.047 A 
ATOM     12  C   UNL     1      16.431   7.261 -21.470  0.00  0.00    +0.035 A 
ATOM     32  C   UNL     1      17.033   8.449 -20.961  0.00  0.00    +0.024 A 
ATOM     33  C   UNL     1      17.407   8.563 -19.573  0.00  0.00    +0.007 A 
ATOM     34  C   UNL     1      17.182   7.476 -18.663  0.00  0.00    -0.029 A 
ATOM     35  C   UNL     1      17.597   7.656 -17.184  0.00  0.00    +0.045 C 
ENDROOT
BRANCH  10   9
ATOM      4  C   UNL     1      13.866   3.861 -16.017  0.00  0.00    +0.077 A 
ATOM      5  C   UNL     1      12.865   4.888 -16.006  0.00  0.00    +0.048 A 
ATOM      6  C   UNL     1      13.086   6.018 -16.825  0.00  0.00    +0.116 A 
ATOM      7  N   UNL     1      14.227   6.104 -17.593  0.00  0.00    -0.223 NA
ATOM      8  C   UNL     1      15.174   5.096 -17.578  0.00  0.00    +0.220 A 
ATOM      9  N   UNL     1      16.325   5.158 -18.349  0.00  0.00    -0.283 N 
ATOM     36  H   UNL     1      17.002   4.398 -18.305  0.00  0.00    +0.155 HD
ATOM     37  N   UNL     1      14.987   4.007 -16.804  0.00  0.00    -0.214 NA
BRANCH   4   3
ATOM      1  C   UNL     1      14.803   0.696 -13.917  0.00  0.00    +0.020 A 
ATOM      2  C   UNL     1      14.946   1.906 -14.693  0.00  0.00    +0.013 A 
ATOM      3  C   UNL     1      13.775   2.604 -15.208  0.00  0.00    +0.019 A 
ATOM     38  C   UNL     1      12.462   2.048 -14.916  0.00  0.00    +0.120 A 
ATOM     39  N   UNL     1      12.355   0.880 -14.166  0.00  0.00    -0.263 NA
ATOM     40  C   UNL     1      13.475   0.199 -13.668  0.00  0.00    +0.111 A 
ENDBRANCH   4   3
ENDBRANCH  10   9
BRANCH  12  13
ATOM     13  N   UNL     1      16.076   7.226 -22.867  0.00  0.00    -0.281 N 
ATOM     14  C   UNL     1      14.819   7.376 -23.431  0.00  0.00    +0.248 C 
ATOM     30  O   UNL     1      13.772   7.351 -22.802  0.00  0.00    -0.270 OA
ATOM     31  H   UNL     1      16.844   7.071 -23.520  0.00  0.00    +0.155 HD
BRANCH  14  15
ATOM     15  C   UNL     1      14.709   7.567 -24.909  0.00  0.00    +0.037 A 
ATOM     16  C   UNL     1      14.572   6.424 -25.815  0.00  0.00    +0.013 A 
ATOM     17  C   UNL     1      14.484   6.636 -27.239  0.00  0.00    +0.005 A 
ATOM     18  C   UNL     1      14.534   7.998 -27.764  0.00  0.00    -0.033 A 
ATOM     28  C   UNL     1      14.666   9.114 -26.843  0.00  0.00    +0.005 A 
ATOM     29  C   UNL     1      14.752   8.910 -25.447  0.00  0.00    +0.013 A 
BRANCH  18  19
ATOM     19  C   UNL     1      14.469   8.316 -29.270  0.00  0.00    +0.119 C 
BRANCH  19  20
ATOM     20  N   UNL     1      15.074   7.322 -30.206  0.00  0.00    -0.302 NA
ATOM     21  C   UNL     1      16.567   7.578 -30.429  0.00  0.00    +0.066 C 
ATOM     22  C   UNL     1      17.189   6.515 -31.392  0.00  0.00    -0.064 C 
ATOM     23  N   UNL     1      16.432   6.531 -32.721  0.00  0.00    +0.379 N 
ATOM     24  C   UNL     1      17.051   5.574 -33.650  0.00  0.00    -0.096 C 
ATOM     25  H   UNL     1      16.543   7.549 -33.161  0.00  0.00    -0.082 HD
ATOM     26  C   UNL     1      14.946   6.280 -32.508  0.00  0.00    -0.064 C 
ATOM     27  C   UNL     1      14.344   7.323 -31.526  0.00  0.00    +0.066 C 
ENDBRANCH  19  20
ENDBRANCH  18  19
ENDBRANCH  14  15
ENDBRANCH  12  13
TORSDOF 6
ENDMDL
MODEL 5
REMARK VINA RESULT:      -8.9      2.760      3.320
REMARK  Name = C:\Users\Docking\Desktop\test protocol\1iep_ligandH.pdb
REMARK  8 active torsions:
REMARK  status: ('A' for Active; 'I' for Inactive)
REMARK    1  A    between atoms: _5  and  _11
REMARK    2  A    between atoms: _19  and  _21
REMARK    3  A    between atoms: _22  and  _66
REMARK    4  A    between atoms: _27  and  _30
REMARK    5  A    between atoms: _32  and  _33
REMARK    6  A    between atoms: _38  and  _43
REMARK    7  A    between atoms: _43  and  _46
REMARK    8  A    between atoms: _53  and  _55
REMARK                            x       y       z     vdW  Elec       q    Type
REMARK                         _______ _______ _______ _____ _____    ______ ____
ROOT
ATOM     10  C   UNL     1      12.302   1.959 -13.205  0.00  0.00    +0.038 A 
ATOM     11  C   UNL     1      12.940   2.879 -14.076  0.00  0.00    +0.047 A 
ATOM     12  C   UNL     1      14.298   2.653 -14.545  0.00  0.00    +0.035 A 
ATOM     32  C   UNL     1      14.977   1.478 -14.109  0.00  0.00    +0.024 A 
ATOM     33  C   UNL     1      14.344   0.532 -13.224  0.00  0.00    +0.007 A 
ATOM     34  C   UNL     1      13.005   0.751 -12.756  0.00  0.00    -0.029 A 
ATOM     35  C   UNL     1      12.378  -0.293 -11.802  0.00  0.00    +0.045 C 
ENDROOT
BRANCH  10   9
ATOM      4  C   UNL     1       7.566   1.194 -13.363  0.00  0.00    +0.077 A 
ATOM      5  C   UNL     1       7.701   0.198 -14.386  0.00  0.00    +0.048 A 
ATOM      6  C   UNL     1       9.006  -0.083 -14.850  0.00  0.00    +0.116 A 
ATOM      7  N   UNL     1      10.088   0.588 -14.322  0.00  0.00    -0.223 NA
ATOM      8  C   UNL     1       9.922   1.544 -13.337  0.00  0.00    +0.220 A 
ATOM      9  N   UNL     1      10.997   2.226 -12.786  0.00  0.00    -0.283 N 
ATOM     36  H   UNL     1      10.832   2.929 -12.066  0.00  0.00    +0.155 HD
ATOM     37  N   UNL     1       8.686   1.832 -12.878  0.00  0.00    -0.214 NA
BRANCH   4   3
ATOM      1  C   UNL     1       4.207   3.070 -12.659  0.00  0.00    +0.020 A 
ATOM      2  C   UNL     1       5.469   2.721 -13.270  0.00  0.00    +0.013 A 
ATOM      3  C   UNL     1       6.253   1.600 -12.768  0.00  0.00    +0.019 A 
ATOM     38  C   UNL     1       5.728   0.846 -11.639  0.00  0.00    +0.120 A 
ATOM     39  N   UNL     1       4.511   1.207 -11.071  0.00  0.00    -0.263 NA
ATOM     40  C   UNL     1       3.748   2.285 -11.544  0.00  0.00    +0.111 A 
ENDBRANCH   4   3
ENDBRANCH  10   9
BRANCH  12  13
ATOM     13  N   UNL     1      15.000   3.556 -15.423  0.00  0.00    -0.281 N 
ATOM     14  C   UNL     1      14.794   3.759 -16.778  0.00  0.00    +0.248 C 
ATOM     30  O   UNL     1      14.113   3.035 -17.489  0.00  0.00    -0.270 OA
ATOM     31  H   UNL     1      15.739   4.113 -14.994  0.00  0.00    +0.155 HD
BRANCH  14  15
ATOM     15  C   UNL     1      15.451   4.926 -17.441  0.00  0.00    +0.037 A 
ATOM     16  C   UNL     1      15.874   4.865 -18.843  0.00  0.00    +0.013 A 
ATOM     17  C   UNL     1      16.520   5.999 -19.454  0.00  0.00    +0.005 A 
ATOM     18  C   UNL     1      16.747   7.206 -18.662  0.00  0.00    -0.033 A 
ATOM     28  C   UNL     1      16.313   7.242 -17.276  0.00  0.00    +0.005 A 
ATOM     29  C   UNL     1      15.679   6.131 -16.673  0.00  0.00    +0.013 A 
BRANCH  18  19
ATOM     19  C   UNL     1      17.448   8.456 -19.226  0.00  0.00    +0.119 C 
BRANCH  19  20
ATOM     20  N   UNL     1      16.701   9.747 -19.160  0.00  0.00    -0.302 NA
ATOM     21  C   UNL     1      15.378   9.685 -19.928  0.00  0.00    +0.066 C 
ATOM     22  C   UNL     1      14.598  11.037 -19.830  0.00  0.00    -0.064 C 
ATOM     23  N   UNL     1      15.479  12.169 -20.360  0.00  0.00    +0.379 N 
ATOM     24  C   UNL     1      14.728  13.433 -20.324  0.00  0.00    -0.096 C 
ATOM     25  H   UNL     1      15.713  11.945 -21.427  0.00  0.00    -0.082 HD
ATOM     26  C   UNL     1      16.798  12.237 -19.604  0.00  0.00    -0.064 C 
ATOM     27  C   UNL     1      17.551  10.879 -19.683  0.00  0.00    +0.066 C 
ENDBRANCH  19  20
ENDBRANCH  18  19
ENDBRANCH  14  15
ENDBRANCH  12  13
TORSDOF 6
ENDMDL
