MODEL 1
REMARK VINA RESULT:      -9.5      0.000      0.000
REMARK  Name = C:\Users\Docking\Desktop\test protocol\1iep_ligandH.pdb
REMARK  8 active torsions:
REMARK  status: ('A' for Active; 'I' for Inactive)
REMARK    1  A    between atoms: _5  and  _11
REMARK    2  A    between atoms: _19  and  _21
REMARK    3  A    between atoms: _22  and  _66
REMARK    4  A    between atoms: _27  and  _30
REMARK    5  A    between atoms: _32  and  _33
REMARK    6  A    between atoms: _38  and  _43
REMARK    7  A    between atoms: _43  and  _46
REMARK    8  A    between atoms: _53  and  _55
REMARK                            x       y       z     vdW  Elec       q    Type
REMARK                         _______ _______ _______ _____ _____    ______ ____
ROOT
ATOM     10  C   UNL     1      12.221   1.976 -13.713  0.00  0.00    +0.038 A 
ATOM     11  C   UNL     1      12.570   2.706 -14.878  0.00  0.00    +0.047 A 
ATOM     12  C   UNL     1      13.875   2.550 -15.502  0.00  0.00    +0.035 A 
ATOM     32  C   UNL     1      14.800   1.639 -14.913  0.00  0.00    +0.024 A 
ATOM     33  C   UNL     1      14.462   0.890 -13.728  0.00  0.00    +0.007 A 
ATOM     34  C   UNL     1      13.178   1.042 -13.107  0.00  0.00    -0.029 A 
ATOM     35  C   UNL     1      12.872   0.218 -11.835  0.00  0.00    +0.045 C 
ENDROOT
BRANCH  10   9
ATOM      4  C   UNL     1       7.612   0.754 -13.169  0.00  0.00    +0.077 A 
ATOM      5  C   UNL     1       7.731  -0.338 -14.092  0.00  0.00    +0.048 A 
ATOM      6  C   UNL     1       8.994  -0.546 -14.691  0.00  0.00    +0.116 A 
ATOM      7  N   UNL     1      10.051   0.281 -14.381  0.00  0.00    -0.223 NA
ATOM      8  C   UNL     1       9.902   1.326 -13.488  0.00  0.00    +0.220 A 
ATOM      9  N   UNL     1      10.954   2.166 -13.157  0.00  0.00    -0.283 N 
ATOM     36  H   UNL     1      10.802   2.930 -12.499  0.00  0.00    +0.155 HD
ATOM     37  N   UNL     1       8.706   1.547 -12.904  0.00  0.00    -0.214 NA
BRANCH   4   3
ATOM      1  C   UNL     1       4.146   2.324 -12.262  0.00  0.00    +0.020 A 
ATOM      2  C   UNL     1       5.355   2.024 -12.994  0.00  0.00    +0.013 A 
ATOM      3  C   UNL     1       6.344   1.100 -12.452  0.00  0.00    +0.019 A 
ATOM     38  C   UNL     1       6.077   0.492 -11.158  0.00  0.00    +0.120 A 
ATOM     39  N   UNL     1       4.904   0.801 -10.475  0.00  0.00    -0.263 NA
ATOM     40  C   UNL     1       3.946   1.689 -10.985  0.00  0.00    +0.111 A 
ENDBRANCH   4   3
ENDBRANCH  10   9
BRANCH  12  13
ATOM     13  N   UNL     1      14.289   3.270 -16.681  0.00  0.00    -0.281 N 
ATOM     14  C   UNL     1      14.861   4.529 -16.752  0.00  0.00    +0.248 C 
ATOM     30  O   UNL     1      14.910   5.320 -15.822  0.00  0.00    -0.270 OA
ATOM     31  H   UNL     1      14.141   2.793 -17.570  0.00  0.00    +0.155 HD
BRANCH  14  15
ATOM     15  C   UNL     1      15.453   4.980 -18.049  0.00  0.00    +0.037 A 
ATOM     16  C   UNL     1      16.044   4.023 -18.988  0.00  0.00    +0.013 A 
ATOM     17  C   UNL     1      16.624   4.487 -20.224  0.00  0.00    +0.005 A 
ATOM     18  C   UNL     1      16.614   5.916 -20.527  0.00  0.00    -0.033 A 
ATOM     28  C   UNL     1      16.017   6.842 -19.580  0.00  0.00    +0.005 A 
ATOM     29  C   UNL     1      15.449   6.392 -18.367  0.00  0.00    +0.013 A 
BRANCH  18  19
ATOM     19  C   UNL     1      17.229   6.502 -21.812  0.00  0.00    +0.119 C 
BRANCH  19  20
ATOM     20  N   UNL     1      16.533   6.205 -23.100  0.00  0.00    -0.302 NA
ATOM     21  C   UNL     1      17.339   6.682 -24.312  0.00  0.00    +0.066 C 
ATOM     22  C   UNL     1      16.608   6.343 -25.651  0.00  0.00    -0.064 C 
ATOM     23  N   UNL     1      15.216   6.977 -25.643  0.00  0.00    +0.379 N 
ATOM     24  C   UNL     1      14.547   6.709 -26.925  0.00  0.00    -0.096 C 
ATOM     25  H   UNL     1      15.347   8.081 -25.554  0.00  0.00    -0.082 HD
ATOM     26  C   UNL     1      14.408   6.510 -24.440  0.00  0.00    -0.064 C 
ATOM     27  C   UNL     1      15.158   6.825 -23.116  0.00  0.00    +0.066 C 
ENDBRANCH  19  20
ENDBRANCH  18  19
ENDBRANCH  14  15
ENDBRANCH  12  13
TORSDOF 6
ENDMDL
MODEL 2
REMARK VINA RESULT:      -9.3      1.982     12.769
REMARK  Name = C:\Users\Docking\Desktop\test protocol\1iep_ligandH.pdb
REMARK  8 active torsions:
REMARK  status: ('A' for Active; 'I' for Inactive)
REMARK    1  A    between atoms: _5  and  _11
REMARK    2  A    between atoms: _19  and  _21
REMARK    3  A    between atoms: _22  and  _66
REMARK    4  A    between atoms: _27  and  _30
REMARK    5  A    between atoms: _32  and  _33
REMARK    6  A    between atoms: _38  and  _43
REMARK    7  A    between atoms: _43  and  _46
REMARK    8  A    between atoms: _53  and  _55
REMARK                            x       y       z     vdW  Elec       q    Type
REMARK                         _______ _______ _______ _____ _____    ______ ____
ROOT
ATOM     10  C   UNL     1      15.871   7.607 -19.156  0.00  0.00    +0.038 A 
ATOM     11  C   UNL     1      15.119   6.604 -18.492  0.00  0.00    +0.047 A 
ATOM     12  C   UNL     1      15.507   6.121 -17.176  0.00  0.00    +0.035 A 
ATOM     32  C   UNL     1      16.666   6.682 -16.564  0.00  0.00    +0.024 A 
ATOM     33  C   UNL     1      17.442   7.701 -17.226  0.00  0.00    +0.007 A 
ATOM     34  C   UNL     1      17.066   8.180 -18.525  0.00  0.00    -0.029 A 
ATOM     35  C   UNL     1      17.940   9.269 -19.190  0.00  0.00    +0.045 C 
ENDROOT
BRANCH  10   9
ATOM      4  C   UNL     1      15.463   7.020 -23.903  0.00  0.00    +0.077 A 
ATOM      5  C   UNL     1      16.165   5.769 -23.868  0.00  0.00    +0.048 A 
ATOM      6  C   UNL     1      16.621   5.316 -22.610  0.00  0.00    +0.116 A 
ATOM      7  N   UNL     1      16.386   6.065 -21.478  0.00  0.00    -0.223 NA
ATOM      8  C   UNL     1      15.707   7.268 -21.546  0.00  0.00    +0.220 A 
ATOM      9  N   UNL     1      15.454   8.034 -20.419  0.00  0.00    -0.283 N 
ATOM     36  H   UNL     1      14.956   8.919 -20.512  0.00  0.00    +0.155 HD
ATOM     37  N   UNL     1      15.263   7.724 -22.736  0.00  0.00    -0.214 NA
BRANCH   4   3
ATOM      1  C   UNL     1      14.208   7.516 -27.574  0.00  0.00    +0.020 A 
ATOM      2  C   UNL     1      14.740   6.879 -26.392  0.00  0.00    +0.013 A 
ATOM      3  C   UNL     1      14.916   7.631 -25.156  0.00  0.00    +0.019 A 
ATOM     38  C   UNL     1      14.540   9.036 -25.149  0.00  0.00    +0.120 A 
ATOM     39  N   UNL     1      14.031   9.623 -26.304  0.00  0.00    -0.263 NA
ATOM     40  C   UNL     1      13.859   8.910 -27.499  0.00  0.00    +0.111 A 
ENDBRANCH   4   3
ENDBRANCH  10   9
BRANCH  12  13
ATOM     13  N   UNL     1      14.787   5.100 -16.457  0.00  0.00    -0.281 N 
ATOM     14  C   UNL     1      15.075   3.746 -16.383  0.00  0.00    +0.248 C 
ATOM     30  O   UNL     1      15.877   3.170 -17.102  0.00  0.00    -0.270 OA
ATOM     31  H   UNL     1      13.966   5.412 -15.939  0.00  0.00    +0.155 HD
BRANCH  14  15
ATOM     15  C   UNL     1      14.357   2.910 -15.374  0.00  0.00    +0.037 A 
ATOM     16  C   UNL     1      13.028   3.284 -14.884  0.00  0.00    +0.013 A 
ATOM     17  C   UNL     1      12.365   2.468 -13.897  0.00  0.00    +0.005 A 
ATOM     18  C   UNL     1      13.031   1.268 -13.395  0.00  0.00    -0.033 A 
ATOM     28  C   UNL     1      14.347   0.918 -13.903  0.00  0.00    +0.005 A 
ATOM     29  C   UNL     1      15.000   1.715 -14.868  0.00  0.00    +0.013 A 
BRANCH  18  19
ATOM     19  C   UNL     1      12.407   0.350 -12.327  0.00  0.00    +0.119 C 
BRANCH  19  20
ATOM     20  N   UNL     1      10.974   0.584 -11.977  0.00  0.00    -0.302 NA
ATOM     21  C   UNL     1      10.680   0.259 -10.510  0.00  0.00    +0.066 C 
ATOM     22  C   UNL     1       9.182   0.530 -10.155  0.00  0.00    -0.064 C 
ATOM     23  N   UNL     1       8.284  -0.291 -11.082  0.00  0.00    +0.379 N 
ATOM     24  C   UNL     1       6.877  -0.082 -10.713  0.00  0.00    -0.096 C 
ATOM     25  H   UNL     1       8.522  -1.367 -10.916  0.00  0.00    -0.082 HD
ATOM     26  C   UNL     1       8.572   0.025 -12.543  0.00  0.00    -0.064 C 
ATOM     27  C   UNL     1      10.069  -0.221 -12.878  0.00  0.00    +0.066 C 
ENDBRANCH  19  20
ENDBRANCH  18  19
ENDBRANCH  14  15
ENDBRANCH  12  13
TORSDOF 6
ENDMDL
MODEL 3
REMARK VINA RESULT:      -9.2      3.693     12.900
REMARK  Name = C:\Users\Docking\Desktop\test protocol\1iep_ligandH.pdb
REMARK  8 active torsions:
REMARK  status: ('A' for Active; 'I' for Inactive)
REMARK    1  A    between atoms: _5  and  _11
REMARK    2  A    between atoms: _19  and  _21
REMARK    3  A    between atoms: _22  and  _66
REMARK    4  A    between atoms: _27  and  _30
REMARK    5  A    between atoms: _32  and  _33
REMARK    6  A    between atoms: _38  and  _43
REMARK    7  A    between atoms: _43  and  _46
REMARK    8  A    between atoms: _53  and  _55
REMARK                            x       y       z     vdW  Elec       q    Type
REMARK                         _______ _______ _______ _____ _____    ______ ____
ROOT
ATOM     10  C   UNL     1      15.850   7.535 -19.125  0.00  0.00    +0.038 A 
ATOM     11  C   UNL     1      15.110   6.505 -18.490  0.00  0.00    +0.047 A 
ATOM     12  C   UNL     1      15.485   6.008 -17.176  0.00  0.00    +0.035 A 
ATOM     32  C   UNL     1      16.620   6.586 -16.534  0.00  0.00    +0.024 A 
ATOM     33  C   UNL     1      17.384   7.633 -17.165  0.00  0.00    +0.007 A 
ATOM     34  C   UNL     1      17.020   8.125 -18.463  0.00  0.00    -0.029 A 
ATOM     35  C   UNL     1      17.880   9.244 -19.095  0.00  0.00    +0.045 C 
ENDROOT
BRANCH  10   9
ATOM      4  C   UNL     1      15.517   7.007 -23.884  0.00  0.00    +0.077 A 
ATOM      5  C   UNL     1      16.236   5.766 -23.856  0.00  0.00    +0.048 A 
ATOM      6  C   UNL     1      16.680   5.301 -22.597  0.00  0.00    +0.116 A 
ATOM      7  N   UNL     1      16.419   6.032 -21.458  0.00  0.00    -0.223 NA
ATOM      8  C   UNL     1      15.725   7.226 -21.521  0.00  0.00    +0.220 A 
ATOM      9  N   UNL     1      15.444   7.973 -20.387  0.00  0.00    -0.283 N 
ATOM     36  H   UNL     1      14.936   8.853 -20.476  0.00  0.00    +0.155 HD
ATOM     37  N   UNL     1      15.291   7.692 -22.711  0.00  0.00    -0.214 NA
BRANCH   4   3
ATOM      1  C   UNL     1      14.169   7.504 -27.522  0.00  0.00    +0.020 A 
ATOM      2  C   UNL     1      14.686   6.857 -26.338  0.00  0.00    +0.013 A 
ATOM      3  C   UNL     1      14.981   7.627 -25.136  0.00  0.00    +0.019 A 
ATOM     38  C   UNL     1      14.738   9.062 -25.165  0.00  0.00    +0.120 A 
ATOM     39  N   UNL     1      14.240   9.658 -26.319  0.00  0.00    -0.263 NA
ATOM     40  C   UNL     1      13.955   8.927 -27.483  0.00  0.00    +0.111 A 
ENDBRANCH   4   3
ENDBRANCH  10   9
BRANCH  12  13
ATOM     13  N   UNL     1      14.777   4.959 -16.486  0.00  0.00    -0.281 N 
ATOM     14  C   UNL     1      15.059   3.603 -16.478  0.00  0.00    +0.248 C 
ATOM     30  O   UNL     1      15.842   3.056 -17.240  0.00  0.00    -0.270 OA
ATOM     31  H   UNL     1      13.969   5.252 -15.936  0.00  0.00    +0.155 HD
BRANCH  14  15
ATOM     15  C   UNL     1      14.360   2.725 -15.491  0.00  0.00    +0.037 A 
ATOM     16  C   UNL     1      15.083   1.689 -14.749  0.00  0.00    +0.013 A 
ATOM     17  C   UNL     1      14.381   0.845 -13.815  0.00  0.00    +0.005 A 
ATOM     18  C   UNL     1      12.946   1.035 -13.617  0.00  0.00    -0.033 A 
ATOM     28  C   UNL     1      12.254   2.074 -14.362  0.00  0.00    +0.005 A 
ATOM     29  C   UNL     1      12.939   2.902 -15.279  0.00  0.00    +0.013 A 
BRANCH  18  19
ATOM     19  C   UNL     1      12.112   0.166 -12.656  0.00  0.00    +0.119 C 
BRANCH  19  20
ATOM     20  N   UNL     1      12.843  -0.860 -11.854  0.00  0.00    -0.302 NA
ATOM     21  C   UNL     1      12.923  -2.206 -12.579  0.00  0.00    +0.066 C 
ATOM     22  C   UNL     1      13.710  -3.261 -11.735  0.00  0.00    -0.064 C 
ATOM     23  N   UNL     1      13.039  -3.421 -10.369  0.00  0.00    +0.379 N 
ATOM     24  C   UNL     1      13.742  -4.454  -9.595  0.00  0.00    -0.096 C 
ATOM     25  H   UNL     1      11.998  -3.778 -10.544  0.00  0.00    -0.082 HD
ATOM     26  C   UNL     1      12.953  -2.086  -9.643  0.00  0.00    -0.064 C 
ATOM     27  C   UNL     1      12.195  -1.036 -10.502  0.00  0.00    +0.066 C 
ENDBRANCH  19  20
ENDBRANCH  18  19
ENDBRANCH  14  15
ENDBRANCH  12  13
TORSDOF 6
ENDMDL
MODEL 4
REMARK VINA RESULT:      -9.2      3.851      6.469
REMARK  Name = C:\Users\Docking\Desktop\test protocol\1iep_ligandH.pdb
REMARK  8 active torsions:
REMARK  status: ('A' for Active; 'I' for Inactive)
REMARK    1  A    between atoms: _5  and  _11
REMARK    2  A    between atoms: _19  and  _21
REMARK    3  A    between atoms: _22  and  _66
REMARK    4  A    between atoms: _27  and  _30
REMARK    5  A    between atoms: _32  and  _33
REMARK    6  A    between atoms: _38  and  _43
REMARK    7  A    between atoms: _43  and  _46
REMARK    8  A    between atoms: _53  and  _55
REMARK                            x       y       z     vdW  Elec       q    Type
REMARK                         _______ _______ _______ _____ _____    ______ ____
ROOT
ATOM     10  C   UNL     1      12.200   0.082 -12.189  0.00  0.00    +0.038 A 
ATOM     11  C   UNL     1      12.887   0.816 -13.190  0.00  0.00    +0.047 A 
ATOM     12  C   UNL     1      12.164   1.500 -14.251  0.00  0.00    +0.035 A 
ATOM     32  C   UNL     1      10.741   1.419 -14.260  0.00  0.00    +0.024 A 
ATOM     33  C   UNL     1      10.027   0.677 -13.251  0.00  0.00    +0.007 A 
ATOM     34  C   UNL     1      10.735  -0.002 -12.204  0.00  0.00    -0.029 A 
ATOM     35  C   UNL     1       9.918  -0.788 -11.152  0.00  0.00    +0.045 C 
ENDROOT
BRANCH  10   9
ATOM      4  C   UNL     1      14.642  -3.684 -10.488  0.00  0.00    +0.077 A 
ATOM      5  C   UNL     1      14.391  -4.456 -11.671  0.00  0.00    +0.048 A 
ATOM      6  C   UNL     1      13.623  -3.850 -12.690  0.00  0.00    +0.116 A 
ATOM      7  N   UNL     1      13.147  -2.567 -12.529  0.00  0.00    -0.223 NA
ATOM      8  C   UNL     1      13.406  -1.850 -11.375  0.00  0.00    +0.220 A 
ATOM      9  N   UNL     1      12.945  -0.555 -11.194  0.00  0.00    -0.283 N 
ATOM     36  H   UNL     1      13.151  -0.063 -10.326  0.00  0.00    +0.155 HD
ATOM     37  N   UNL     1      14.136  -2.407 -10.386  0.00  0.00    -0.214 NA
BRANCH   4   3
ATOM      1  C   UNL     1      15.994  -5.911  -7.571  0.00  0.00    +0.020 A 
ATOM      2  C   UNL     1      15.195  -5.475  -8.692  0.00  0.00    +0.013 A 
ATOM      3  C   UNL     1      15.439  -4.184  -9.324  0.00  0.00    +0.019 A 
ATOM     38  C   UNL     1      16.510  -3.354  -8.794  0.00  0.00    +0.120 A 
ATOM     39  N   UNL     1      17.263  -3.800  -7.712  0.00  0.00    -0.263 NA
ATOM     40  C   UNL     1      17.035  -5.039  -7.094  0.00  0.00    +0.111 A 
ENDBRANCH   4   3
ENDBRANCH  10   9
BRANCH  12  13
ATOM     13  N   UNL     1      12.808   2.253 -15.299  0.00  0.00    -0.281 N 
ATOM     14  C   UNL     1      13.369   3.517 -15.218  0.00  0.00    +0.248 C 
ATOM     30  O   UNL     1      13.212   4.284 -14.280  0.00  0.00    -0.270 OA
ATOM     31  H   UNL     1      12.856   1.799 -16.211  0.00  0.00    +0.155 HD
BRANCH  14  15
ATOM     15  C   UNL     1      14.215   4.005 -16.350  0.00  0.00    +0.037 A 
ATOM     16  C   UNL     1      14.651   5.402 -16.425  0.00  0.00    +0.013 A 
ATOM     17  C   UNL     1      15.452   5.851 -17.536  0.00  0.00    +0.005 A 
ATOM     18  C   UNL     1      15.824   4.900 -18.581  0.00  0.00    -0.033 A 
ATOM     28  C   UNL     1      15.382   3.519 -18.479  0.00  0.00    +0.005 A 
ATOM     29  C   UNL     1      14.596   3.076 -17.392  0.00  0.00    +0.013 A 
BRANCH  18  19
ATOM     19  C   UNL     1      16.658   5.296 -19.813  0.00  0.00    +0.119 C 
BRANCH  19  20
ATOM     20  N   UNL     1      15.914   5.655 -21.057  0.00  0.00    -0.302 NA
ATOM     21  C   UNL     1      16.760   5.443 -22.315  0.00  0.00    +0.066 C 
ATOM     22  C   UNL     1      15.958   5.802 -23.608  0.00  0.00    -0.064 C 
ATOM     23  N   UNL     1      15.474   7.250 -23.519  0.00  0.00    +0.379 N 
ATOM     24  C   UNL     1      14.769   7.609 -24.758  0.00  0.00    -0.096 C 
ATOM     25  H   UNL     1      16.375   7.903 -23.440  0.00  0.00    -0.082 HD
ATOM     26  C   UNL     1      14.634   7.471 -22.269  0.00  0.00    -0.064 C 
ATOM     27  C   UNL     1      15.430   7.083 -20.992  0.00  0.00    +0.066 C 
ENDBRANCH  19  20
ENDBRANCH  18  19
ENDBRANCH  14  15
ENDBRANCH  12  13
TORSDOF 6
ENDMDL
MODEL 5
REMARK VINA RESULT:      -9.2      2.230     12.295
REMARK  Name = C:\Users\Docking\Desktop\test protocol\1iep_ligandH.pdb
REMARK  8 active torsions:
REMARK  status: ('A' for Active; 'I' for Inactive)
REMARK    1  A    between atoms: _5  and  _11
REMARK    2  A    between atoms: _19  and  _21
REMARK    3  A    between atoms: _22  and  _66
REMARK    4  A    between atoms: _27  and  _30
REMARK    5  A    between atoms: _32  and  _33
REMARK    6  A    between atoms: _38  and  _43
REMARK    7  A    between atoms: _43  and  _46
REMARK    8  A    between atoms: _53  and  _55
REMARK                            x       y       z     vdW  Elec       q    Type
REMARK                         _______ _______ _______ _____ _____    ______ ____
ROOT
ATOM     10  C   UNL     1      15.890   7.546 -19.051  0.00  0.00    +0.038 A 
ATOM     11  C   UNL     1      15.127   6.565 -18.368  0.00  0.00    +0.047 A 
ATOM     12  C   UNL     1      15.500   6.113 -17.037  0.00  0.00    +0.035 A 
ATOM     32  C   UNL     1      16.656   6.685 -16.429  0.00  0.00    +0.024 A 
ATOM     33  C   UNL     1      17.444   7.683 -17.109  0.00  0.00    +0.007 A 
ATOM     34  C   UNL     1      17.082   8.130 -18.424  0.00  0.00    -0.029 A 
ATOM     35  C   UNL     1      17.967   9.198 -19.108  0.00  0.00    +0.045 C 
ENDROOT
BRANCH  10   9
ATOM      4  C   UNL     1      15.545   6.853 -23.788  0.00  0.00    +0.077 A 
ATOM      5  C   UNL     1      16.254   5.608 -23.717  0.00  0.00    +0.048 A 
ATOM      6  C   UNL     1      16.696   5.185 -22.444  0.00  0.00    +0.116 A 
ATOM      7  N   UNL     1      16.443   5.957 -21.331  0.00  0.00    -0.223 NA
ATOM      8  C   UNL     1      15.758   7.154 -21.434  0.00  0.00    +0.220 A 
ATOM      9  N   UNL     1      15.486   7.943 -20.328  0.00  0.00    -0.283 N 
ATOM     36  H   UNL     1      14.984   8.823 -20.447  0.00  0.00    +0.155 HD
ATOM     37  N   UNL     1      15.327   7.581 -22.639  0.00  0.00    -0.214 NA
BRANCH   4   3
ATOM      1  C   UNL     1      14.297   7.251 -27.474  0.00  0.00    +0.020 A 
ATOM      2  C   UNL     1      14.817   6.643 -26.270  0.00  0.00    +0.013 A 
ATOM      3  C   UNL     1      15.011   7.432 -25.061  0.00  0.00    +0.019 A 
ATOM     38  C   UNL     1      14.667   8.846 -25.102  0.00  0.00    +0.120 A 
ATOM     39  N   UNL     1      14.170   9.404 -26.276  0.00  0.00    -0.263 NA
ATOM     40  C   UNL     1      13.981   8.655 -27.447  0.00  0.00    +0.111 A 
ENDBRANCH   4   3
ENDBRANCH  10   9
BRANCH  12  13
ATOM     13  N   UNL     1      14.769   5.114 -16.298  0.00  0.00    -0.281 N 
ATOM     14  C   UNL     1      14.905   3.737 -16.364  0.00  0.00    +0.248 C 
ATOM     30  O   UNL     1      15.533   3.145 -17.229  0.00  0.00    -0.270 OA
ATOM     31  H   UNL     1      14.065   5.464 -15.648  0.00  0.00    +0.155 HD
BRANCH  14  15
ATOM     15  C   UNL     1      14.236   2.895 -15.326  0.00  0.00    +0.037 A 
ATOM     16  C   UNL     1      14.819   1.626 -14.885  0.00  0.00    +0.013 A 
ATOM     17  C   UNL     1      14.144   0.824 -13.895  0.00  0.00    +0.005 A 
ATOM     18  C   UNL     1      12.877   1.292 -13.338  0.00  0.00    -0.033 A 
ATOM     28  C   UNL     1      12.323   2.558 -13.790  0.00  0.00    +0.005 A 
ATOM     29  C   UNL     1      12.982   3.345 -14.761  0.00  0.00    +0.013 A 
BRANCH  18  19
ATOM     19  C   UNL     1      12.077   0.492 -12.293  0.00  0.00    +0.119 C 
BRANCH  19  20
ATOM     20  N   UNL     1      10.853  -0.220 -12.767  0.00  0.00    -0.302 NA
ATOM     21  C   UNL     1      10.902  -0.508 -14.270  0.00  0.00    +0.066 C 
ATOM     22  C   UNL     1       9.625  -1.274 -14.746  0.00  0.00    -0.064 C 
ATOM     23  N   UNL     1       8.382  -0.455 -14.392  0.00  0.00    +0.379 N 
ATOM     24  C   UNL     1       7.182  -1.145 -14.889  0.00  0.00    -0.096 C 
ATOM     25  H   UNL     1       8.457   0.521 -14.925  0.00  0.00    -0.082 HD
ATOM     26  C   UNL     1       8.326  -0.162 -12.899  0.00  0.00    -0.064 C 
ATOM     27  C   UNL     1       9.614   0.573 -12.432  0.00  0.00    +0.066 C 
ENDBRANCH  19  20
ENDBRANCH  18  19
ENDBRANCH  14  15
ENDBRANCH  12  13
TORSDOF 6
ENDMDL
