MODEL 1
REMARK VINA RESULT:      -7.5      0.000      0.000
REMARK  Name = C:\Users\Docking\Desktop\test protocol\1iep_ligandH.pdb
REMARK  8 active torsions:
REMARK  status: ('A' for Active; 'I' for Inactive)
REMARK    1  A    between atoms: _5  and  _11
REMARK    2  A    between atoms: _19  and  _21
REMARK    3  A    between atoms: _22  and  _66
REMARK    4  A    between atoms: _27  and  _30
REMARK    5  A    between atoms: _32  and  _33
REMARK    6  A    between atoms: _38  and  _43
REMARK    7  A    between atoms: _43  and  _46
REMARK    8  A    between atoms: _53  and  _55
REMARK                            x       y       z     vdW  Elec       q    Type
REMARK                         _______ _______ _______ _____ _____    ______ ____
ROOT
ATOM     10  C   UNL     1      -2.613 -41.349 -43.669  0.00  0.00    +0.038 A 
ATOM     11  C   UNL     1      -2.158 -40.819 -42.434  0.00  0.00    +0.047 A 
ATOM     12  C   UNL     1      -2.565 -41.407 -41.167  0.00  0.00    +0.035 A 
ATOM     32  C   UNL     1      -3.433 -42.537 -41.195  0.00  0.00    +0.024 A 
ATOM     33  C   UNL     1      -3.906 -43.088 -42.440  0.00  0.00    +0.007 A 
ATOM     34  C   UNL     1      -3.511 -42.510 -43.693  0.00  0.00    -0.029 A 
ATOM     35  C   UNL     1      -4.053 -43.139 -44.998  0.00  0.00    +0.045 C 
ENDROOT
BRANCH  10   9
ATOM      4  C   UNL     1       0.332 -41.039 -47.446  0.00  0.00    +0.077 A 
ATOM      5  C   UNL     1       1.112 -42.158 -47.005  0.00  0.00    +0.048 A 
ATOM      6  C   UNL     1       0.727 -42.782 -45.797  0.00  0.00    +0.116 A 
ATOM      7  N   UNL     1      -0.360 -42.312 -45.091  0.00  0.00    -0.223 NA
ATOM      8  C   UNL     1      -1.090 -41.229 -45.544  0.00  0.00    +0.220 A 
ATOM      9  N   UNL     1      -2.191 -40.745 -44.855  0.00  0.00    -0.283 N 
ATOM     36  H   UNL     1      -2.699 -39.939 -45.219  0.00  0.00    +0.155 HD
ATOM     37  N   UNL     1      -0.742 -40.615 -46.694  0.00  0.00    -0.214 NA
BRANCH   4   3
ATOM      1  C   UNL     1       1.594 -38.326 -49.965  0.00  0.00    +0.020 A 
ATOM      2  C   UNL     1       1.351 -39.021 -48.723  0.00  0.00    +0.013 A 
ATOM      3  C   UNL     1       0.611 -40.277 -48.704  0.00  0.00    +0.019 A 
ATOM     38  C   UNL     1       0.128 -40.806 -49.971  0.00  0.00    +0.120 A 
ATOM     39  N   UNL     1       0.376 -40.113 -51.152  0.00  0.00    -0.263 NA
ATOM     40  C   UNL     1       1.086 -38.903 -51.181  0.00  0.00    +0.111 A 
ENDBRANCH   4   3
ENDBRANCH  10   9
BRANCH  12  13
ATOM     13  N   UNL     1      -2.142 -40.907 -39.883  0.00  0.00    -0.281 N 
ATOM     14  C   UNL     1      -0.903 -41.051 -39.278  0.00  0.00    +0.248 C 
ATOM     30  O   UNL     1      -0.033 -41.820 -39.661  0.00  0.00    -0.270 OA
ATOM     31  H   UNL     1      -2.840 -40.383 -39.355  0.00  0.00    +0.155 HD
BRANCH  14  15
ATOM     15  C   UNL     1      -0.592 -40.235 -38.066  0.00  0.00    +0.037 A 
ATOM     16  C   UNL     1      -1.649 -39.811 -37.143  0.00  0.00    +0.013 A 
ATOM     17  C   UNL     1      -1.323 -39.010 -35.990  0.00  0.00    +0.005 A 
ATOM     18  C   UNL     1       0.066 -38.628 -35.753  0.00  0.00    -0.033 A 
ATOM     28  C   UNL     1       1.095 -39.066 -36.681  0.00  0.00    +0.005 A 
ATOM     29  C   UNL     1       0.780 -39.851 -37.813  0.00  0.00    +0.013 A 
BRANCH  18  19
ATOM     19  C   UNL     1       0.502 -37.757 -34.559  0.00  0.00    +0.119 C 
BRANCH  19  20
ATOM     20  N   UNL     1       0.956 -38.465 -33.326  0.00  0.00    -0.302 NA
ATOM     21  C   UNL     1       0.211 -37.982 -32.078  0.00  0.00    +0.066 C 
ATOM     22  C   UNL     1       0.682 -38.749 -30.800  0.00  0.00    -0.064 C 
ATOM     23  N   UNL     1       2.192 -38.572 -30.631  0.00  0.00    +0.379 N 
ATOM     24  C   UNL     1       2.629 -39.244 -29.398  0.00  0.00    -0.096 C 
ATOM     25  H   UNL     1       2.394 -37.482 -30.512  0.00  0.00    -0.082 HD
ATOM     26  C   UNL     1       2.941 -39.048 -31.868  0.00  0.00    -0.064 C 
ATOM     27  C   UNL     1       2.444 -38.300 -33.137  0.00  0.00    +0.066 C 
ENDBRANCH  19  20
ENDBRANCH  18  19
ENDBRANCH  14  15
ENDBRANCH  12  13
TORSDOF 6
ENDMDL
MODEL 2
REMARK VINA RESULT:      -7.2      2.072      3.532
REMARK  Name = C:\Users\Docking\Desktop\test protocol\1iep_ligandH.pdb
REMARK  8 active torsions:
REMARK  status: ('A' for Active; 'I' for Inactive)
REMARK    1  A    between atoms: _5  and  _11
REMARK    2  A    between atoms: _19  and  _21
REMARK    3  A    between atoms: _22  and  _66
REMARK    4  A    between atoms: _27  and  _30
REMARK    5  A    between atoms: _32  and  _33
REMARK    6  A    between atoms: _38  and  _43
REMARK    7  A    between atoms: _43  and  _46
REMARK    8  A    between atoms: _53  and  _55
REMARK                            x       y       z     vdW  Elec       q    Type
REMARK                         _______ _______ _______ _____ _____    ______ ____
ROOT
ATOM     10  C   UNL     1      -0.801 -41.477 -46.541  0.00  0.00    +0.038 A 
ATOM     11  C   UNL     1      -0.808 -40.974 -45.215  0.00  0.00    +0.047 A 
ATOM     12  C   UNL     1      -1.187 -41.817 -44.092  0.00  0.00    +0.035 A 
ATOM     32  C   UNL     1      -1.551 -43.170 -44.356  0.00  0.00    +0.024 A 
ATOM     33  C   UNL     1      -1.551 -43.697 -45.698  0.00  0.00    +0.007 A 
ATOM     34  C   UNL     1      -1.180 -42.869 -46.809  0.00  0.00    -0.029 A 
ATOM     35  C   UNL     1      -1.204 -43.486 -48.227  0.00  0.00    +0.045 C 
ENDROOT
BRANCH  10   9
ATOM      4  C   UNL     1       2.366 -39.871 -49.770  0.00  0.00    +0.077 A 
ATOM      5  C   UNL     1       3.373 -40.793 -49.329  0.00  0.00    +0.048 A 
ATOM      6  C   UNL     1       3.038 -41.659 -48.263  0.00  0.00    +0.116 A 
ATOM      7  N   UNL     1       1.786 -41.598 -47.690  0.00  0.00    -0.223 NA
ATOM      8  C   UNL     1       0.839 -40.696 -48.138  0.00  0.00    +0.220 A 
ATOM      9  N   UNL     1      -0.428 -40.623 -47.581  0.00  0.00    -0.283 N 
ATOM     36  H   UNL     1      -1.096 -39.939 -47.936  0.00  0.00    +0.155 HD
ATOM     37  N   UNL     1       1.135 -39.858 -49.153  0.00  0.00    -0.214 NA
BRANCH   4   3
ATOM      1  C   UNL     1       2.258 -36.635 -51.964  0.00  0.00    +0.020 A 
ATOM      2  C   UNL     1       2.035 -37.539 -50.859  0.00  0.00    +0.013 A 
ATOM      3  C   UNL     1       2.568 -38.895 -50.887  0.00  0.00    +0.019 A 
ATOM     38  C   UNL     1       3.330 -39.308 -52.055  0.00  0.00    +0.120 A 
ATOM     39  N   UNL     1       3.528 -38.417 -53.105  0.00  0.00    -0.263 NA
ATOM     40  C   UNL     1       3.018 -37.110 -53.091  0.00  0.00    +0.111 A 
ENDBRANCH   4   3
ENDBRANCH  10   9
BRANCH  12  13
ATOM     13  N   UNL     1      -1.220 -41.360 -42.725  0.00  0.00    -0.281 N 
ATOM     14  C   UNL     1      -2.328 -41.188 -41.911  0.00  0.00    +0.248 C 
ATOM     30  O   UNL     1      -3.485 -41.198 -42.307  0.00  0.00    -0.270 OA
ATOM     31  H   UNL     1      -0.318 -41.135 -42.307  0.00  0.00    +0.155 HD
BRANCH  14  15
ATOM     15  C   UNL     1      -2.121 -40.956 -40.449  0.00  0.00    +0.037 A 
ATOM     16  C   UNL     1      -0.800 -41.109 -39.835  0.00  0.00    +0.013 A 
ATOM     17  C   UNL     1      -0.631 -40.896 -38.420  0.00  0.00    +0.005 A 
ATOM     18  C   UNL     1      -1.789 -40.527 -37.608  0.00  0.00    -0.033 A 
ATOM     28  C   UNL     1      -3.087 -40.377 -38.244  0.00  0.00    +0.005 A 
ATOM     29  C   UNL     1      -3.256 -40.585 -39.631  0.00  0.00    +0.013 A 
BRANCH  18  19
ATOM     19  C   UNL     1      -1.706 -40.301 -36.087  0.00  0.00    +0.119 C 
BRANCH  19  20
ATOM     20  N   UNL     1      -0.481 -39.627 -35.562  0.00  0.00    -0.302 NA
ATOM     21  C   UNL     1       0.438 -40.603 -34.820  0.00  0.00    +0.066 C 
ATOM     22  C   UNL     1       1.725 -39.886 -34.297  0.00  0.00    -0.064 C 
ATOM     23  N   UNL     1       1.324 -38.723 -33.388  0.00  0.00    +0.379 N 
ATOM     24  C   UNL     1       2.533 -38.083 -32.848  0.00  0.00    -0.096 C 
ATOM     25  H   UNL     1       0.753 -39.146 -32.530  0.00  0.00    -0.082 HD
ATOM     26  C   UNL     1       0.409 -37.750 -34.116  0.00  0.00    -0.064 C 
ATOM     27  C   UNL     1      -0.853 -38.478 -34.658  0.00  0.00    +0.066 C 
ENDBRANCH  19  20
ENDBRANCH  18  19
ENDBRANCH  14  15
ENDBRANCH  12  13
TORSDOF 6
ENDMDL
MODEL 3
REMARK VINA RESULT:      -7.2     28.948     33.029
REMARK  Name = C:\Users\Docking\Desktop\test protocol\1iep_ligandH.pdb
REMARK  8 active torsions:
REMARK  status: ('A' for Active; 'I' for Inactive)
REMARK    1  A    between atoms: _5  and  _11
REMARK    2  A    between atoms: _19  and  _21
REMARK    3  A    between atoms: _22  and  _66
REMARK    4  A    between atoms: _27  and  _30
REMARK    5  A    between atoms: _32  and  _33
REMARK    6  A    between atoms: _38  and  _43
REMARK    7  A    between atoms: _43  and  _46
REMARK    8  A    between atoms: _53  and  _55
REMARK                            x       y       z     vdW  Elec       q    Type
REMARK                         _______ _______ _______ _____ _____    ______ ____
ROOT
ATOM     10  C   UNL     1       1.461 -23.546 -66.520  0.00  0.00    +0.038 A 
ATOM     11  C   UNL     1       1.280 -22.203 -66.100  0.00  0.00    +0.047 A 
ATOM     12  C   UNL     1       2.350 -21.469 -65.444  0.00  0.00    +0.035 A 
ATOM     32  C   UNL     1       3.594 -22.132 -65.233  0.00  0.00    +0.024 A 
ATOM     33  C   UNL     1       3.795 -23.497 -65.652  0.00  0.00    +0.007 A 
ATOM     34  C   UNL     1       2.742 -24.227 -66.298  0.00  0.00    -0.029 A 
ATOM     35  C   UNL     1       3.011 -25.690 -66.720  0.00  0.00    +0.045 C 
ENDROOT
BRANCH  10   9
ATOM      4  C   UNL     1      -2.723 -25.895 -66.400  0.00  0.00    +0.077 A 
ATOM      5  C   UNL     1      -2.786 -25.831 -64.968  0.00  0.00    +0.048 A 
ATOM      6  C   UNL     1      -1.718 -25.191 -64.300  0.00  0.00    +0.116 A 
ATOM      7  N   UNL     1      -0.670 -24.658 -65.020  0.00  0.00    -0.223 NA
ATOM      8  C   UNL     1      -0.640 -24.739 -66.400  0.00  0.00    +0.220 A 
ATOM      9  N   UNL     1       0.399 -24.203 -67.145  0.00  0.00    -0.283 N 
ATOM     36  H   UNL     1       0.388 -24.290 -68.161  0.00  0.00    +0.155 HD
ATOM     37  N   UNL     1      -1.647 -25.346 -67.061  0.00  0.00    -0.214 NA
BRANCH   4   3
ATOM      1  C   UNL     1      -4.618 -28.367 -68.765  0.00  0.00    +0.020 A 
ATOM      2  C   UNL     1      -3.567 -27.790 -67.959  0.00  0.00    +0.013 A 
ATOM      3  C   UNL     1      -3.777 -26.536 -67.248  0.00  0.00    +0.019 A 
ATOM     38  C   UNL     1      -5.073 -25.885 -67.373  0.00  0.00    +0.120 A 
ATOM     39  N   UNL     1      -6.066 -26.464 -68.158  0.00  0.00    -0.263 NA
ATOM     40  C   UNL     1      -5.875 -27.670 -68.849  0.00  0.00    +0.111 A 
ENDBRANCH   4   3
ENDBRANCH  10   9
BRANCH  12  13
ATOM     13  N   UNL     1       2.222 -20.107 -64.989  0.00  0.00    -0.281 N 
ATOM     14  C   UNL     1       2.451 -18.944 -65.707  0.00  0.00    +0.248 C 
ATOM     30  O   UNL     1       3.010 -18.901 -66.792  0.00  0.00    -0.270 OA
ATOM     31  H   UNL     1       1.926 -19.985 -64.020  0.00  0.00    +0.155 HD
BRANCH  14  15
ATOM     15  C   UNL     1       2.008 -17.639 -65.128  0.00  0.00    +0.037 A 
ATOM     16  C   UNL     1       2.721 -16.395 -65.425  0.00  0.00    +0.013 A 
ATOM     17  C   UNL     1       2.283 -15.152 -64.840  0.00  0.00    +0.005 A 
ATOM     18  C   UNL     1       1.122 -15.149 -63.952  0.00  0.00    -0.033 A 
ATOM     28  C   UNL     1       0.429 -16.397 -63.679  0.00  0.00    +0.005 A 
ATOM     29  C   UNL     1       0.857 -17.617 -64.250  0.00  0.00    +0.013 A 
BRANCH  18  19
ATOM     19  C   UNL     1       0.597 -13.873 -63.267  0.00  0.00    +0.119 C 
BRANCH  19  20
ATOM     20  N   UNL     1       0.006 -12.820 -64.145  0.00  0.00    -0.302 NA
ATOM     21  C   UNL     1      -0.831 -13.419 -65.279  0.00  0.00    +0.066 C 
ATOM     22  C   UNL     1      -1.460 -12.302 -66.174  0.00  0.00    -0.064 C 
ATOM     23  N   UNL     1      -0.347 -11.414 -66.733  0.00  0.00    +0.379 N 
ATOM     24  C   UNL     1      -0.930 -10.398 -67.622  0.00  0.00    -0.096 C 
ATOM     25  H   UNL     1       0.322 -12.058 -67.350  0.00  0.00    -0.082 HD
ATOM     26  C   UNL     1       0.492 -10.816 -65.613  0.00  0.00    -0.064 C 
ATOM     27  C   UNL     1       1.088 -11.933 -64.712  0.00  0.00    +0.066 C 
ENDBRANCH  19  20
ENDBRANCH  18  19
ENDBRANCH  14  15
ENDBRANCH  12  13
TORSDOF 6
ENDMDL
MODEL 4
REMARK VINA RESULT:      -7.1     29.275     34.251
REMARK  Name = C:\Users\Docking\Desktop\test protocol\1iep_ligandH.pdb
REMARK  8 active torsions:
REMARK  status: ('A' for Active; 'I' for Inactive)
REMARK    1  A    between atoms: _5  and  _11
REMARK    2  A    between atoms: _19  and  _21
REMARK    3  A    between atoms: _22  and  _66
REMARK    4  A    between atoms: _27  and  _30
REMARK    5  A    between atoms: _32  and  _33
REMARK    6  A    between atoms: _38  and  _43
REMARK    7  A    between atoms: _43  and  _46
REMARK    8  A    between atoms: _53  and  _55
REMARK                            x       y       z     vdW  Elec       q    Type
REMARK                         _______ _______ _______ _____ _____    ______ ____
ROOT
ATOM     10  C   UNL     1       2.649 -20.798 -65.188  0.00  0.00    +0.038 A 
ATOM     11  C   UNL     1       2.190 -19.463 -65.323  0.00  0.00    +0.047 A 
ATOM     12  C   UNL     1       3.124 -18.358 -65.478  0.00  0.00    +0.035 A 
ATOM     32  C   UNL     1       4.519 -18.650 -65.494  0.00  0.00    +0.024 A 
ATOM     33  C   UNL     1       5.003 -20.002 -65.356  0.00  0.00    +0.007 A 
ATOM     34  C   UNL     1       4.087 -21.095 -65.201  0.00  0.00    -0.029 A 
ATOM     35  C   UNL     1       4.662 -22.522 -65.051  0.00  0.00    +0.045 C 
ENDROOT
BRANCH  10   9
ATOM      4  C   UNL     1      -0.576 -23.869 -66.978  0.00  0.00    +0.077 A 
ATOM      5  C   UNL     1      -0.391 -23.377 -68.313  0.00  0.00    +0.048 A 
ATOM      6  C   UNL     1       0.538 -22.329 -68.495  0.00  0.00    +0.116 A 
ATOM      7  N   UNL     1       1.226 -21.818 -67.415  0.00  0.00    -0.223 NA
ATOM      8  C   UNL     1       1.022 -22.313 -66.141  0.00  0.00    +0.220 A 
ATOM      9  N   UNL     1       1.708 -21.820 -65.042  0.00  0.00    -0.283 N 
ATOM     36  H   UNL     1       1.524 -22.207 -64.117  0.00  0.00    +0.155 HD
ATOM     37  N   UNL     1       0.139 -23.313 -65.940  0.00  0.00    -0.214 NA
BRANCH   4   3
ATOM      1  C   UNL     1      -3.167 -26.103 -65.081  0.00  0.00    +0.020 A 
ATOM      2  C   UNL     1      -2.267 -25.011 -65.373  0.00  0.00    +0.013 A 
ATOM      3  C   UNL     1      -1.521 -24.976 -66.625  0.00  0.00    +0.019 A 
ATOM     38  C   UNL     1      -1.710 -26.068 -67.567  0.00  0.00    +0.120 A 
ATOM     39  N   UNL     1      -2.582 -27.107 -67.257  0.00  0.00    -0.263 NA
ATOM     40  C   UNL     1      -3.304 -27.153 -66.056  0.00  0.00    +0.111 A 
ENDBRANCH   4   3
ENDBRANCH  10   9
BRANCH  12  13
ATOM     13  N   UNL     1       2.718 -16.981 -65.611  0.00  0.00    -0.281 N 
ATOM     14  C   UNL     1       1.785 -16.291 -64.854  0.00  0.00    +0.248 C 
ATOM     30  O   UNL     1       0.999 -16.817 -64.079  0.00  0.00    -0.270 OA
ATOM     31  H   UNL     1       3.172 -16.451 -66.354  0.00  0.00    +0.155 HD
BRANCH  14  15
ATOM     15  C   UNL     1       1.704 -14.805 -64.987  0.00  0.00    +0.037 A 
ATOM     16  C   UNL     1       2.432 -14.096 -66.042  0.00  0.00    +0.013 A 
ATOM     17  C   UNL     1       2.350 -12.660 -66.138  0.00  0.00    +0.005 A 
ATOM     18  C   UNL     1       1.534 -11.923 -65.175  0.00  0.00    -0.033 A 
ATOM     28  C   UNL     1       0.818 -12.653 -64.141  0.00  0.00    +0.005 A 
ATOM     29  C   UNL     1       0.897 -14.060 -64.044  0.00  0.00    +0.013 A 
BRANCH  18  19
ATOM     19  C   UNL     1       1.406 -10.389 -65.188  0.00  0.00    +0.119 C 
BRANCH  19  20
ATOM     20  N   UNL     1       2.598  -9.599 -64.760  0.00  0.00    -0.302 NA
ATOM     21  C   UNL     1       3.681 -10.485 -64.136  0.00  0.00    +0.066 C 
ATOM     22  C   UNL     1       4.930  -9.646 -63.714  0.00  0.00    -0.064 C 
ATOM     23  N   UNL     1       4.499  -8.550 -62.738  0.00  0.00    +0.379 N 
ATOM     24  C   UNL     1       5.680  -7.795 -62.294  0.00  0.00    -0.096 C 
ATOM     25  H   UNL     1       4.060  -9.048 -61.843  0.00  0.00    -0.082 HD
ATOM     26  C   UNL     1       3.421  -7.665 -63.349  0.00  0.00    -0.064 C 
ATOM     27  C   UNL     1       2.196  -8.513 -63.792  0.00  0.00    +0.066 C 
ENDBRANCH  19  20
ENDBRANCH  18  19
ENDBRANCH  14  15
ENDBRANCH  12  13
TORSDOF 6
ENDMDL
MODEL 5
REMARK VINA RESULT:      -6.9     23.425     30.004
REMARK  Name = C:\Users\Docking\Desktop\test protocol\1iep_ligandH.pdb
REMARK  8 active torsions:
REMARK  status: ('A' for Active; 'I' for Inactive)
REMARK    1  A    between atoms: _5  and  _11
REMARK    2  A    between atoms: _19  and  _21
REMARK    3  A    between atoms: _22  and  _66
REMARK    4  A    between atoms: _27  and  _30
REMARK    5  A    between atoms: _32  and  _33
REMARK    6  A    between atoms: _38  and  _43
REMARK    7  A    between atoms: _43  and  _46
REMARK    8  A    between atoms: _53  and  _55
REMARK                            x       y       z     vdW  Elec       q    Type
REMARK                         _______ _______ _______ _____ _____    ______ ____
ROOT
ATOM     10  C   UNL     1       2.996 -21.502 -65.914  0.00  0.00    +0.038 A 
ATOM     11  C   UNL     1       3.738 -22.172 -64.908  0.00  0.00    +0.047 A 
ATOM     12  C   UNL     1       4.703 -23.206 -65.248  0.00  0.00    +0.035 A 
ATOM     32  C   UNL     1       4.889 -23.531 -66.623  0.00  0.00    +0.024 A 
ATOM     33  C   UNL     1       4.142 -22.861 -67.659  0.00  0.00    +0.007 A 
ATOM     34  C   UNL     1       3.187 -21.842 -67.329  0.00  0.00    -0.029 A 
ATOM     35  C   UNL     1       2.410 -21.161 -68.480  0.00  0.00    +0.045 C 
ENDROOT
BRANCH  10   9
ATOM      4  C   UNL     1       1.791 -16.923 -65.129  0.00  0.00    +0.077 A 
ATOM      5  C   UNL     1       3.099 -16.456 -65.485  0.00  0.00    +0.048 A 
ATOM      6  C   UNL     1       4.056 -17.427 -65.858  0.00  0.00    +0.116 A 
ATOM      7  N   UNL     1       3.717 -18.763 -65.870  0.00  0.00    -0.223 NA
ATOM      8  C   UNL     1       2.447 -19.180 -65.519  0.00  0.00    +0.220 A 
ATOM      9  N   UNL     1       2.082 -20.517 -65.531  0.00  0.00    -0.283 N 
ATOM     36  H   UNL     1       1.137 -20.785 -65.259  0.00  0.00    +0.155 HD
ATOM     37  N   UNL     1       1.516 -18.272 -65.158  0.00  0.00    -0.214 NA
BRANCH   4   3
ATOM      1  C   UNL     1      -1.245 -15.379 -63.204  0.00  0.00    +0.020 A 
ATOM      2  C   UNL     1      -0.177 -16.285 -63.560  0.00  0.00    +0.013 A 
ATOM      3  C   UNL     1       0.671 -16.019 -64.716  0.00  0.00    +0.019 A 
ATOM     38  C   UNL     1       0.410 -14.819 -65.496  0.00  0.00    +0.120 A 
ATOM     39  N   UNL     1      -0.627 -13.966 -65.130  0.00  0.00    -0.263 NA
ATOM     40  C   UNL     1      -1.450 -14.212 -64.021  0.00  0.00    +0.111 A 
ENDBRANCH   4   3
ENDBRANCH  10   9
BRANCH  12  13
ATOM     13  N   UNL     1       5.479 -23.926 -64.269  0.00  0.00    -0.281 N 
ATOM     14  C   UNL     1       6.801 -23.720 -63.912  0.00  0.00    +0.248 C 
ATOM     30  O   UNL     1       7.585 -23.019 -64.535  0.00  0.00    -0.270 OA
ATOM     31  H   UNL     1       4.995 -24.680 -63.781  0.00  0.00    +0.155 HD
BRANCH  14  15
ATOM     15  C   UNL     1       7.335 -24.402 -62.693  0.00  0.00    +0.037 A 
ATOM     16  C   UNL     1       6.633 -25.538 -62.089  0.00  0.00    +0.013 A 
ATOM     17  C   UNL     1       7.161 -26.166 -60.904  0.00  0.00    +0.005 A 
ATOM     18  C   UNL     1       8.399 -25.661 -60.316  0.00  0.00    -0.033 A 
ATOM     28  C   UNL     1       9.077 -24.536 -60.939  0.00  0.00    +0.005 A 
ATOM     29  C   UNL     1       8.563 -23.917 -62.100  0.00  0.00    +0.013 A 
BRANCH  18  19
ATOM     19  C   UNL     1       9.023 -26.257 -59.040  0.00  0.00    +0.119 C 
BRANCH  19  20
ATOM     20  N   UNL     1       8.926 -25.447 -57.789  0.00  0.00    -0.302 NA
ATOM     21  C   UNL     1       9.836 -25.988 -56.683  0.00  0.00    +0.066 C 
ATOM     22  C   UNL     1       9.739 -25.116 -55.389  0.00  0.00    -0.064 C 
ATOM     23  N   UNL     1       8.284 -25.067 -54.918  0.00  0.00    +0.379 N 
ATOM     24  C   UNL     1       8.199 -24.295 -53.669  0.00  0.00    -0.096 C 
ATOM     25  H   UNL     1       7.966 -26.111 -54.693  0.00  0.00    -0.082 HD
ATOM     26  C   UNL     1       7.372 -24.532 -56.013  0.00  0.00    -0.064 C 
ATOM     27  C   UNL     1       7.498 -25.388 -57.305  0.00  0.00    +0.066 C 
ENDBRANCH  19  20
ENDBRANCH  18  19
ENDBRANCH  14  15
ENDBRANCH  12  13
TORSDOF 6
ENDMDL
