MODEL 1
REMARK VINA RESULT:      -7.7      0.000      0.000
REMARK  Name = C:\Users\Docking\Desktop\test protocol\1iep_ligandH.pdb
REMARK  8 active torsions:
REMARK  status: ('A' for Active; 'I' for Inactive)
REMARK    1  A    between atoms: _5  and  _11
REMARK    2  A    between atoms: _19  and  _21
REMARK    3  A    between atoms: _22  and  _66
REMARK    4  A    between atoms: _27  and  _30
REMARK    5  A    between atoms: _32  and  _33
REMARK    6  A    between atoms: _38  and  _43
REMARK    7  A    between atoms: _43  and  _46
REMARK    8  A    between atoms: _53  and  _55
REMARK                            x       y       z     vdW  Elec       q    Type
REMARK                         _______ _______ _______ _____ _____    ______ ____
ROOT
ATOM     10  C   UNL     1     -10.882 -12.559 -33.288  0.00  0.00    +0.038 A 
ATOM     11  C   UNL     1     -10.048 -12.746 -34.420  0.00  0.00    +0.047 A 
ATOM     12  C   UNL     1      -8.628 -13.026 -34.270  0.00  0.00    +0.035 A 
ATOM     32  C   UNL     1      -8.092 -13.111 -32.952  0.00  0.00    +0.024 A 
ATOM     33  C   UNL     1      -8.926 -12.923 -31.790  0.00  0.00    +0.007 A 
ATOM     34  C   UNL     1     -10.326 -12.643 -31.932  0.00  0.00    -0.029 A 
ATOM     35  C   UNL     1     -11.171 -12.444 -30.653  0.00  0.00    +0.045 C 
ENDROOT
BRANCH  10   9
ATOM      4  C   UNL     1     -14.549  -9.532 -33.943  0.00  0.00    +0.077 A 
ATOM      5  C   UNL     1     -13.696  -8.383 -33.847  0.00  0.00    +0.048 A 
ATOM      6  C   UNL     1     -12.320  -8.614 -33.622  0.00  0.00    +0.116 A 
ATOM      7  N   UNL     1     -11.845  -9.903 -33.503  0.00  0.00    -0.223 NA
ATOM      8  C   UNL     1     -12.696 -10.988 -33.599  0.00  0.00    +0.220 A 
ATOM      9  N   UNL     1     -12.238 -12.292 -33.491  0.00  0.00    -0.283 N 
ATOM     36  H   UNL     1     -12.899 -13.066 -33.560  0.00  0.00    +0.155 HD
ATOM     37  N   UNL     1     -14.014 -10.794 -33.812  0.00  0.00    -0.214 NA
BRANCH   4   3
ATOM      1  C   UNL     1     -18.061  -9.600 -35.664  0.00  0.00    +0.020 A 
ATOM      2  C   UNL     1     -16.630  -9.690 -35.487  0.00  0.00    +0.013 A 
ATOM      3  C   UNL     1     -16.025  -9.452 -34.182  0.00  0.00    +0.019 A 
ATOM     38  C   UNL     1     -16.903  -9.122 -33.070  0.00  0.00    +0.120 A 
ATOM     39  N   UNL     1     -18.277  -9.041 -33.271  0.00  0.00    -0.263 NA
ATOM     40  C   UNL     1     -18.871  -9.267 -34.522  0.00  0.00    +0.111 A 
ENDBRANCH   4   3
ENDBRANCH  10   9
BRANCH  12  13
ATOM     13  N   UNL     1      -7.730 -13.218 -35.381  0.00  0.00    -0.281 N 
ATOM     14  C   UNL     1      -7.007 -12.256 -36.067  0.00  0.00    +0.248 C 
ATOM     30  O   UNL     1      -7.188 -11.052 -35.965  0.00  0.00    -0.270 OA
ATOM     31  H   UNL     1      -7.613 -14.179 -35.701  0.00  0.00    +0.155 HD
BRANCH  14  15
ATOM     15  C   UNL     1      -5.938 -12.695 -37.015  0.00  0.00    +0.037 A 
ATOM     16  C   UNL     1      -4.778 -11.846 -37.299  0.00  0.00    +0.013 A 
ATOM     17  C   UNL     1      -3.770 -12.287 -38.230  0.00  0.00    +0.005 A 
ATOM     18  C   UNL     1      -3.916 -13.586 -38.882  0.00  0.00    -0.033 A 
ATOM     28  C   UNL     1      -5.074 -14.410 -38.578  0.00  0.00    +0.005 A 
ATOM     29  C   UNL     1      -6.065 -13.981 -37.667  0.00  0.00    +0.013 A 
BRANCH  18  19
ATOM     19  C   UNL     1      -2.900 -14.127 -39.905  0.00  0.00    +0.119 C 
BRANCH  19  20
ATOM     20  N   UNL     1      -2.927 -13.534 -41.276  0.00  0.00    -0.302 NA
ATOM     21  C   UNL     1      -4.339 -13.520 -41.868  0.00  0.00    +0.066 C 
ATOM     22  C   UNL     1      -4.353 -12.876 -43.292  0.00  0.00    -0.064 C 
ATOM     23  N   UNL     1      -3.391 -13.641 -44.204  0.00  0.00    +0.379 N 
ATOM     24  C   UNL     1      -3.445 -13.074 -45.559  0.00  0.00    -0.096 C 
ATOM     25  H   UNL     1      -3.749 -14.695 -44.263  0.00  0.00    -0.082 HD
ATOM     26  C   UNL     1      -1.985 -13.662 -43.621  0.00  0.00    -0.064 C 
ATOM     27  C   UNL     1      -1.988 -14.277 -42.194  0.00  0.00    +0.066 C 
ENDBRANCH  19  20
ENDBRANCH  18  19
ENDBRANCH  14  15
ENDBRANCH  12  13
TORSDOF 6
ENDMDL
MODEL 2
REMARK VINA RESULT:      -7.3     28.592     32.741
REMARK  Name = C:\Users\Docking\Desktop\test protocol\1iep_ligandH.pdb
REMARK  8 active torsions:
REMARK  status: ('A' for Active; 'I' for Inactive)
REMARK    1  A    between atoms: _5  and  _11
REMARK    2  A    between atoms: _19  and  _21
REMARK    3  A    between atoms: _22  and  _66
REMARK    4  A    between atoms: _27  and  _30
REMARK    5  A    between atoms: _32  and  _33
REMARK    6  A    between atoms: _38  and  _43
REMARK    7  A    between atoms: _43  and  _46
REMARK    8  A    between atoms: _53  and  _55
REMARK                            x       y       z     vdW  Elec       q    Type
REMARK                         _______ _______ _______ _____ _____    ______ ____
ROOT
ATOM     10  C   UNL     1       2.747 -37.533 -52.171  0.00  0.00    +0.038 A 
ATOM     11  C   UNL     1       2.090 -38.046 -51.024  0.00  0.00    +0.047 A 
ATOM     12  C   UNL     1       2.246 -39.436 -50.625  0.00  0.00    +0.035 A 
ATOM     32  C   UNL     1       3.083 -40.276 -51.417  0.00  0.00    +0.024 A 
ATOM     33  C   UNL     1       3.758 -39.772 -52.587  0.00  0.00    +0.007 A 
ATOM     34  C   UNL     1       3.605 -38.402 -52.986  0.00  0.00    -0.029 A 
ATOM     35  C   UNL     1       4.348 -37.917 -54.253  0.00  0.00    +0.045 C 
ENDROOT
BRANCH  10   9
ATOM      4  C   UNL     1       0.530 -34.051 -54.619  0.00  0.00    +0.077 A 
ATOM      5  C   UNL     1      -0.311 -34.988 -55.306  0.00  0.00    +0.048 A 
ATOM      6  C   UNL     1      -0.137 -36.358 -55.005  0.00  0.00    +0.116 A 
ATOM      7  N   UNL     1       0.811 -36.750 -54.085  0.00  0.00    -0.223 NA
ATOM      8  C   UNL     1       1.608 -35.820 -53.442  0.00  0.00    +0.220 A 
ATOM      9  N   UNL     1       2.562 -36.191 -52.508  0.00  0.00    -0.283 N 
ATOM     36  H   UNL     1       3.135 -35.475 -52.061  0.00  0.00    +0.155 HD
ATOM     37  N   UNL     1       1.462 -34.506 -53.713  0.00  0.00    -0.214 NA
BRANCH   4   3
ATOM      1  C   UNL     1      -0.793 -30.388 -54.978  0.00  0.00    +0.020 A 
ATOM      2  C   UNL     1      -0.783 -31.817 -54.772  0.00  0.00    +0.013 A 
ATOM      3  C   UNL     1       0.464 -32.570 -54.826  0.00  0.00    +0.019 A 
ATOM     38  C   UNL     1       1.694 -31.840 -55.094  0.00  0.00    +0.120 A 
ATOM     39  N   UNL     1       1.654 -30.463 -55.290  0.00  0.00    -0.263 NA
ATOM     40  C   UNL     1       0.459 -29.728 -55.241  0.00  0.00    +0.111 A 
ENDBRANCH   4   3
ENDBRANCH  10   9
BRANCH  12  13
ATOM     13  N   UNL     1       1.597 -40.015 -49.475  0.00  0.00    -0.281 N 
ATOM     14  C   UNL     1       1.810 -39.720 -48.139  0.00  0.00    +0.248 C 
ATOM     30  O   UNL     1       2.750 -39.062 -47.717  0.00  0.00    -0.270 OA
ATOM     31  H   UNL     1       0.895 -40.729 -49.670  0.00  0.00    +0.155 HD
BRANCH  14  15
ATOM     15  C   UNL     1       0.849 -40.244 -47.121  0.00  0.00    +0.037 A 
ATOM     16  C   UNL     1       1.291 -40.598 -45.770  0.00  0.00    +0.013 A 
ATOM     17  C   UNL     1       0.346 -41.118 -44.813  0.00  0.00    +0.005 A 
ATOM     18  C   UNL     1      -1.051 -41.285 -45.204  0.00  0.00    -0.033 A 
ATOM     28  C   UNL     1      -1.464 -40.921 -46.550  0.00  0.00    +0.005 A 
ATOM     29  C   UNL     1      -0.540 -40.413 -47.491  0.00  0.00    +0.013 A 
BRANCH  18  19
ATOM     19  C   UNL     1      -2.124 -41.852 -44.255  0.00  0.00    +0.119 C 
BRANCH  19  20
ATOM     20  N   UNL     1      -1.750 -42.010 -42.818  0.00  0.00    -0.302 NA
ATOM     21  C   UNL     1      -2.033 -43.425 -42.304  0.00  0.00    +0.066 C 
ATOM     22  C   UNL     1      -1.615 -43.579 -40.805  0.00  0.00    -0.064 C 
ATOM     23  N   UNL     1      -2.355 -42.538 -39.963  0.00  0.00    +0.379 N 
ATOM     24  C   UNL     1      -2.009 -42.719 -38.545  0.00  0.00    -0.096 C 
ATOM     25  H   UNL     1      -3.448 -42.731 -40.071  0.00  0.00    -0.082 HD
ATOM     26  C   UNL     1      -2.081 -41.129 -40.469  0.00  0.00    -0.064 C 
ATOM     27  C   UNL     1      -2.473 -40.995 -41.967  0.00  0.00    +0.066 C 
ENDBRANCH  19  20
ENDBRANCH  18  19
ENDBRANCH  14  15
ENDBRANCH  12  13
TORSDOF 6
ENDMDL
MODEL 3
REMARK VINA RESULT:      -7.0      1.973      2.814
REMARK  Name = C:\Users\Docking\Desktop\test protocol\1iep_ligandH.pdb
REMARK  8 active torsions:
REMARK  status: ('A' for Active; 'I' for Inactive)
REMARK    1  A    between atoms: _5  and  _11
REMARK    2  A    between atoms: _19  and  _21
REMARK    3  A    between atoms: _22  and  _66
REMARK    4  A    between atoms: _27  and  _30
REMARK    5  A    between atoms: _32  and  _33
REMARK    6  A    between atoms: _38  and  _43
REMARK    7  A    between atoms: _43  and  _46
REMARK    8  A    between atoms: _53  and  _55
REMARK                            x       y       z     vdW  Elec       q    Type
REMARK                         _______ _______ _______ _____ _____    ______ ____
ROOT
ATOM     10  C   UNL     1     -11.508 -12.297 -32.783  0.00  0.00    +0.038 A 
ATOM     11  C   UNL     1     -10.483 -12.421 -33.755  0.00  0.00    +0.047 A 
ATOM     12  C   UNL     1      -9.104 -12.673 -33.366  0.00  0.00    +0.035 A 
ATOM     32  C   UNL     1      -8.805 -12.795 -31.978  0.00  0.00    +0.024 A 
ATOM     33  C   UNL     1      -9.835 -12.671 -30.976  0.00  0.00    +0.007 A 
ATOM     34  C   UNL     1     -11.197 -12.420 -31.354  0.00  0.00    -0.029 A 
ATOM     35  C   UNL     1     -12.259 -12.290 -30.237  0.00  0.00    +0.045 C 
ENDROOT
BRANCH  10   9
ATOM      4  C   UNL     1     -15.020  -9.351 -34.208  0.00  0.00    +0.077 A 
ATOM      5  C   UNL     1     -14.188  -8.192 -34.057  0.00  0.00    +0.048 A 
ATOM      6  C   UNL     1     -12.866  -8.396 -33.604  0.00  0.00    +0.116 A 
ATOM      7  N   UNL     1     -12.418  -9.669 -33.326  0.00  0.00    -0.223 NA
ATOM      8  C   UNL     1     -13.247 -10.766 -33.480  0.00  0.00    +0.220 A 
ATOM      9  N   UNL     1     -12.815 -12.056 -33.213  0.00  0.00    -0.283 N 
ATOM     36  H   UNL     1     -13.459 -12.837 -33.332  0.00  0.00    +0.155 HD
ATOM     37  N   UNL     1     -14.514 -10.597 -33.909  0.00  0.00    -0.214 NA
BRANCH   4   3
ATOM      1  C   UNL     1     -18.920  -9.063 -34.285  0.00  0.00    +0.020 A 
ATOM      2  C   UNL     1     -17.568  -9.107 -33.778  0.00  0.00    +0.013 A 
ATOM      3  C   UNL     1     -16.439  -9.298 -34.680  0.00  0.00    +0.019 A 
ATOM     38  C   UNL     1     -16.715  -9.442 -36.101  0.00  0.00    +0.120 A 
ATOM     39  N   UNL     1     -18.028  -9.398 -36.561  0.00  0.00    -0.263 NA
ATOM     40  C   UNL     1     -19.122  -9.216 -35.702  0.00  0.00    +0.111 A 
ENDBRANCH   4   3
ENDBRANCH  10   9
BRANCH  12  13
ATOM     13  N   UNL     1      -8.019 -12.800 -34.307  0.00  0.00    -0.281 N 
ATOM     14  C   UNL     1      -7.704 -13.890 -35.101  0.00  0.00    +0.248 C 
ATOM     30  O   UNL     1      -8.184 -15.006 -34.965  0.00  0.00    -0.270 OA
ATOM     31  H   UNL     1      -7.410 -11.987 -34.400  0.00  0.00    +0.155 HD
BRANCH  14  15
ATOM     15  C   UNL     1      -6.700 -13.721 -36.196  0.00  0.00    +0.037 A 
ATOM     16  C   UNL     1      -6.431 -14.796 -37.153  0.00  0.00    +0.013 A 
ATOM     17  C   UNL     1      -5.445 -14.613 -38.189  0.00  0.00    +0.005 A 
ATOM     18  C   UNL     1      -4.722 -13.346 -38.273  0.00  0.00    -0.033 A 
ATOM     28  C   UNL     1      -5.012 -12.294 -37.313  0.00  0.00    +0.005 A 
ATOM     29  C   UNL     1      -5.977 -12.471 -36.296  0.00  0.00    +0.013 A 
BRANCH  18  19
ATOM     19  C   UNL     1      -3.638 -13.070 -39.332  0.00  0.00    +0.119 C 
BRANCH  19  20
ATOM     20  N   UNL     1      -2.344 -13.802 -39.193  0.00  0.00    -0.302 NA
ATOM     21  C   UNL     1      -1.321 -13.009 -38.375  0.00  0.00    +0.066 C 
ATOM     22  C   UNL     1       0.020 -13.799 -38.220  0.00  0.00    -0.064 C 
ATOM     23  N   UNL     1       0.575 -14.133 -39.606  0.00  0.00    +0.379 N 
ATOM     24  C   UNL     1       1.864 -14.825 -39.464  0.00  0.00    -0.096 C 
ATOM     25  H   UNL     1       0.764 -13.170 -40.135  0.00  0.00    -0.082 HD
ATOM     26  C   UNL     1      -0.438 -14.919 -40.427  0.00  0.00    -0.064 C 
ATOM     27  C   UNL     1      -1.776 -14.138 -40.549  0.00  0.00    +0.066 C 
ENDBRANCH  19  20
ENDBRANCH  18  19
ENDBRANCH  14  15
ENDBRANCH  12  13
TORSDOF 6
ENDMDL
MODEL 4
REMARK VINA RESULT:      -7.0     19.749     24.809
REMARK  Name = C:\Users\Docking\Desktop\test protocol\1iep_ligandH.pdb
REMARK  8 active torsions:
REMARK  status: ('A' for Active; 'I' for Inactive)
REMARK    1  A    between atoms: _5  and  _11
REMARK    2  A    between atoms: _19  and  _21
REMARK    3  A    between atoms: _22  and  _66
REMARK    4  A    between atoms: _27  and  _30
REMARK    5  A    between atoms: _32  and  _33
REMARK    6  A    between atoms: _38  and  _43
REMARK    7  A    between atoms: _43  and  _46
REMARK    8  A    between atoms: _53  and  _55
REMARK                            x       y       z     vdW  Elec       q    Type
REMARK                         _______ _______ _______ _____ _____    ______ ____
ROOT
ATOM     10  C   UNL     1       8.232 -23.506 -32.393  0.00  0.00    +0.038 A 
ATOM     11  C   UNL     1       8.649 -24.673 -33.084  0.00  0.00    +0.047 A 
ATOM     12  C   UNL     1       8.124 -25.983 -32.733  0.00  0.00    +0.035 A 
ATOM     32  C   UNL     1       7.172 -26.069 -31.675  0.00  0.00    +0.024 A 
ATOM     33  C   UNL     1       6.738 -24.894 -30.962  0.00  0.00    +0.007 A 
ATOM     34  C   UNL     1       7.254 -23.599 -31.301  0.00  0.00    -0.029 A 
ATOM     35  C   UNL     1       6.758 -22.374 -30.498  0.00  0.00    +0.045 C 
ENDROOT
BRANCH  10   9
ATOM      4  C   UNL     1       8.224 -19.534 -35.086  0.00  0.00    +0.077 A 
ATOM      5  C   UNL     1       7.069 -19.963 -35.821  0.00  0.00    +0.048 A 
ATOM      6  C   UNL     1       6.511 -21.215 -35.479  0.00  0.00    +0.116 A 
ATOM      7  N   UNL     1       7.074 -21.973 -34.476  0.00  0.00    -0.223 NA
ATOM      8  C   UNL     1       8.190 -21.531 -33.789  0.00  0.00    +0.220 A 
ATOM      9  N   UNL     1       8.768 -22.273 -32.771  0.00  0.00    -0.283 N 
ATOM     36  H   UNL     1       9.595 -21.916 -32.293  0.00  0.00    +0.155 HD
ATOM     37  N   UNL     1       8.742 -20.339 -34.097  0.00  0.00    -0.214 NA
BRANCH   4   3
ATOM      1  C   UNL     1       9.524 -15.865 -34.698  0.00  0.00    +0.020 A 
ATOM      2  C   UNL     1       8.826 -17.099 -34.418  0.00  0.00    +0.013 A 
ATOM      3  C   UNL     1       8.925 -18.233 -35.328  0.00  0.00    +0.019 A 
ATOM     38  C   UNL     1       9.745 -18.085 -36.521  0.00  0.00    +0.120 A 
ATOM     39  N   UNL     1      10.404 -16.884 -36.765  0.00  0.00    -0.263 NA
ATOM     40  C   UNL     1      10.315 -15.785 -35.898  0.00  0.00    +0.111 A 
ENDBRANCH   4   3
ENDBRANCH  10   9
BRANCH  12  13
ATOM     13  N   UNL     1       8.516 -27.203 -33.394  0.00  0.00    -0.281 N 
ATOM     14  C   UNL     1       9.690 -27.921 -33.230  0.00  0.00    +0.248 C 
ATOM     30  O   UNL     1      10.678 -27.505 -32.643  0.00  0.00    -0.270 OA
ATOM     31  H   UNL     1       7.848 -27.584 -34.064  0.00  0.00    +0.155 HD
BRANCH  14  15
ATOM     15  C   UNL     1       9.784 -29.293 -33.814  0.00  0.00    +0.037 A 
ATOM     16  C   UNL     1      11.078 -29.876 -34.180  0.00  0.00    +0.013 A 
ATOM     17  C   UNL     1      11.139 -31.195 -34.757  0.00  0.00    +0.005 A 
ATOM     18  C   UNL     1       9.902 -31.942 -34.970  0.00  0.00    -0.033 A 
ATOM     28  C   UNL     1       8.633 -31.343 -34.593  0.00  0.00    +0.005 A 
ATOM     29  C   UNL     1       8.569 -30.049 -34.028  0.00  0.00    +0.013 A 
BRANCH  18  19
ATOM     19  C   UNL     1       9.871 -33.348 -35.600  0.00  0.00    +0.119 C 
BRANCH  19  20
ATOM     20  N   UNL     1      10.730 -34.397 -34.973  0.00  0.00    -0.302 NA
ATOM     21  C   UNL     1      10.583 -35.752 -35.670  0.00  0.00    +0.066 C 
ATOM     22  C   UNL     1      11.505 -36.832 -35.016  0.00  0.00    -0.064 C 
ATOM     23  N   UNL     1      11.171 -36.949 -33.528  0.00  0.00    +0.379 N 
ATOM     24  C   UNL     1      11.996 -38.005 -32.922  0.00  0.00    -0.096 C 
ATOM     25  H   UNL     1      10.105 -37.264 -33.444  0.00  0.00    -0.082 HD
ATOM     26  C   UNL     1      11.312 -35.606 -32.827  0.00  0.00    -0.064 C 
ATOM     27  C   UNL     1      10.414 -34.532 -33.504  0.00  0.00    +0.066 C 
ENDBRANCH  19  20
ENDBRANCH  18  19
ENDBRANCH  14  15
ENDBRANCH  12  13
TORSDOF 6
ENDMDL
MODEL 5
REMARK VINA RESULT:      -6.9      1.483      1.697
REMARK  Name = C:\Users\Docking\Desktop\test protocol\1iep_ligandH.pdb
REMARK  8 active torsions:
REMARK  status: ('A' for Active; 'I' for Inactive)
REMARK    1  A    between atoms: _5  and  _11
REMARK    2  A    between atoms: _19  and  _21
REMARK    3  A    between atoms: _22  and  _66
REMARK    4  A    between atoms: _27  and  _30
REMARK    5  A    between atoms: _32  and  _33
REMARK    6  A    between atoms: _38  and  _43
REMARK    7  A    between atoms: _43  and  _46
REMARK    8  A    between atoms: _53  and  _55
REMARK                            x       y       z     vdW  Elec       q    Type
REMARK                         _______ _______ _______ _____ _____    ______ ____
ROOT
ATOM     10  C   UNL     1     -10.574 -12.141 -32.200  0.00  0.00    +0.038 A 
ATOM     11  C   UNL     1      -9.653 -12.283 -33.269  0.00  0.00    +0.047 A 
ATOM     12  C   UNL     1      -8.258 -12.614 -33.022  0.00  0.00    +0.035 A 
ATOM     32  C   UNL     1      -7.836 -12.797 -31.673  0.00  0.00    +0.024 A 
ATOM     33  C   UNL     1      -8.758 -12.656 -30.574  0.00  0.00    +0.007 A 
ATOM     34  C   UNL     1     -10.135 -12.326 -30.812  0.00  0.00    -0.029 A 
ATOM     35  C   UNL     1     -11.077 -12.180 -29.595  0.00  0.00    +0.045 C 
ENDROOT
BRANCH  10   9
ATOM      4  C   UNL     1     -13.942  -9.136 -33.832  0.00  0.00    +0.077 A 
ATOM      5  C   UNL     1     -12.979  -8.106 -34.096  0.00  0.00    +0.048 A 
ATOM      6  C   UNL     1     -11.629  -8.386 -33.790  0.00  0.00    +0.116 A 
ATOM      7  N   UNL     1     -11.278  -9.610 -33.262  0.00  0.00    -0.223 NA
ATOM      8  C   UNL     1     -12.232 -10.581 -33.018  0.00  0.00    +0.220 A 
ATOM      9  N   UNL     1     -11.901 -11.821 -32.495  0.00  0.00    -0.283 N 
ATOM     36  H   UNL     1     -12.635 -12.508 -32.323  0.00  0.00    +0.155 HD
ATOM     37  N   UNL     1     -13.529 -10.337 -33.300  0.00  0.00    -0.214 NA
BRANCH   4   3
ATOM      1  C   UNL     1     -17.361  -8.494 -35.620  0.00  0.00    +0.020 A 
ATOM      2  C   UNL     1     -15.938  -8.619 -35.410  0.00  0.00    +0.013 A 
ATOM      3  C   UNL     1     -15.407  -8.992 -34.105  0.00  0.00    +0.019 A 
ATOM     38  C   UNL     1     -16.352  -9.235 -33.025  0.00  0.00    +0.120 A 
ATOM     39  N   UNL     1     -17.718  -9.106 -33.257  0.00  0.00    -0.263 NA
ATOM     40  C   UNL     1     -18.240  -8.745 -34.508  0.00  0.00    +0.111 A 
ENDBRANCH   4   3
ENDBRANCH  10   9
BRANCH  12  13
ATOM     13  N   UNL     1      -7.276 -12.763 -34.067  0.00  0.00    -0.281 N 
ATOM     14  C   UNL     1      -7.235 -13.721 -35.068  0.00  0.00    +0.248 C 
ATOM     30  O   UNL     1      -7.926 -14.729 -35.088  0.00  0.00    -0.270 OA
ATOM     31  H   UNL     1      -6.518 -12.080 -34.070  0.00  0.00    +0.155 HD
BRANCH  14  15
ATOM     15  C   UNL     1      -6.279 -13.539 -36.202  0.00  0.00    +0.037 A 
ATOM     16  C   UNL     1      -5.434 -12.347 -36.301  0.00  0.00    +0.013 A 
ATOM     17  C   UNL     1      -4.533 -12.189 -37.414  0.00  0.00    +0.005 A 
ATOM     18  C   UNL     1      -4.471 -13.228 -38.439  0.00  0.00    -0.033 A 
ATOM     28  C   UNL     1      -5.317 -14.404 -38.314  0.00  0.00    +0.005 A 
ATOM     29  C   UNL     1      -6.202 -14.561 -37.224  0.00  0.00    +0.013 A 
BRANCH  18  19
ATOM     19  C   UNL     1      -3.554 -13.133 -39.673  0.00  0.00    +0.119 C 
BRANCH  19  20
ATOM     20  N   UNL     1      -4.079 -12.395 -40.860  0.00  0.00    -0.302 NA
ATOM     21  C   UNL     1      -3.673 -13.061 -42.177  0.00  0.00    +0.066 C 
ATOM     22  C   UNL     1      -4.249 -12.287 -43.408  0.00  0.00    -0.064 C 
ATOM     23  N   UNL     1      -3.770 -10.836 -43.364  0.00  0.00    +0.379 N 
ATOM     24  C   UNL     1      -4.262 -10.121 -44.551  0.00  0.00    -0.096 C 
ATOM     25  H   UNL     1      -2.656 -10.846 -43.414  0.00  0.00    -0.082 HD
ATOM     26  C   UNL     1      -4.167 -10.166 -42.056  0.00  0.00    -0.064 C 
ATOM     27  C   UNL     1      -3.614 -10.959 -40.839  0.00  0.00    +0.066 C 
ENDBRANCH  19  20
ENDBRANCH  18  19
ENDBRANCH  14  15
ENDBRANCH  12  13
TORSDOF 6
ENDMDL
