MODEL 1
REMARK VINA RESULT:      -7.3      0.000      0.000
REMARK  Name = C:\Users\Docking\Desktop\test protocol\1iep_ligandH.pdb
REMARK  8 active torsions:
REMARK  status: ('A' for Active; 'I' for Inactive)
REMARK    1  A    between atoms: _5  and  _11
REMARK    2  A    between atoms: _19  and  _21
REMARK    3  A    between atoms: _22  and  _66
REMARK    4  A    between atoms: _27  and  _30
REMARK    5  A    between atoms: _32  and  _33
REMARK    6  A    between atoms: _38  and  _43
REMARK    7  A    between atoms: _43  and  _46
REMARK    8  A    between atoms: _53  and  _55
REMARK                            x       y       z     vdW  Elec       q    Type
REMARK                         _______ _______ _______ _____ _____    ______ ____
ROOT
ATOM     10  C   UNL     1      -4.649 -29.936 -25.633  0.00  0.00    +0.038 A 
ATOM     11  C   UNL     1      -3.745 -30.977 -25.965  0.00  0.00    +0.047 A 
ATOM     12  C   UNL     1      -4.158 -32.371 -25.932  0.00  0.00    +0.035 A 
ATOM     32  C   UNL     1      -5.501 -32.669 -25.558  0.00  0.00    +0.024 A 
ATOM     33  C   UNL     1      -6.433 -31.624 -25.216  0.00  0.00    +0.007 A 
ATOM     34  C   UNL     1      -6.030 -30.246 -25.245  0.00  0.00    -0.029 A 
ATOM     35  C   UNL     1      -7.069 -29.167 -24.862  0.00  0.00    +0.045 C 
ENDROOT
BRANCH  10   9
ATOM      4  C   UNL     1      -3.725 -25.864 -27.999  0.00  0.00    +0.077 A 
ATOM      5  C   UNL     1      -4.149 -26.424 -29.249  0.00  0.00    +0.048 A 
ATOM      6  C   UNL     1      -4.592 -27.766 -29.242  0.00  0.00    +0.116 A 
ATOM      7  N   UNL     1      -4.605 -28.484 -28.066  0.00  0.00    -0.223 NA
ATOM      8  C   UNL     1      -4.187 -27.914 -26.877  0.00  0.00    +0.220 A 
ATOM      9  N   UNL     1      -4.199 -28.615 -25.681  0.00  0.00    -0.283 N 
ATOM     36  H   UNL     1      -3.875 -28.160 -24.827  0.00  0.00    +0.155 HD
ATOM     37  N   UNL     1      -3.758 -26.634 -26.858  0.00  0.00    -0.214 NA
BRANCH   4   3
ATOM      1  C   UNL     1      -3.556 -21.957 -27.911  0.00  0.00    +0.020 A 
ATOM      2  C   UNL     1      -4.079 -23.293 -28.075  0.00  0.00    +0.013 A 
ATOM      3  C   UNL     1      -3.234 -24.458 -27.844  0.00  0.00    +0.019 A 
ATOM     38  C   UNL     1      -1.852 -24.233 -27.445  0.00  0.00    +0.120 A 
ATOM     39  N   UNL     1      -1.376 -22.935 -27.296  0.00  0.00    -0.263 NA
ATOM     40  C   UNL     1      -2.180 -21.806 -27.518  0.00  0.00    +0.111 A 
ENDBRANCH   4   3
ENDBRANCH  10   9
BRANCH  12  13
ATOM     13  N   UNL     1      -3.282 -33.471 -26.251  0.00  0.00    -0.281 N 
ATOM     14  C   UNL     1      -2.758 -34.420 -25.389  0.00  0.00    +0.248 C 
ATOM     30  O   UNL     1      -2.791 -34.340 -24.170  0.00  0.00    -0.270 OA
ATOM     31  H   UNL     1      -3.017 -33.562 -27.232  0.00  0.00    +0.155 HD
BRANCH  14  15
ATOM     15  C   UNL     1      -2.086 -35.625 -25.964  0.00  0.00    +0.037 A 
ATOM     16  C   UNL     1      -0.625 -35.725 -26.025  0.00  0.00    +0.013 A 
ATOM     17  C   UNL     1      -0.003 -36.891 -26.600  0.00  0.00    +0.005 A 
ATOM     18  C   UNL     1      -0.843 -37.969 -27.118  0.00  0.00    -0.033 A 
ATOM     28  C   UNL     1      -2.289 -37.846 -27.040  0.00  0.00    +0.005 A 
ATOM     29  C   UNL     1      -2.902 -36.704 -26.478  0.00  0.00    +0.013 A 
BRANCH  18  19
ATOM     19  C   UNL     1      -0.265 -39.240 -27.768  0.00  0.00    +0.119 C 
BRANCH  19  20
ATOM     20  N   UNL     1       0.151 -39.148 -29.199  0.00  0.00    -0.302 NA
ATOM     21  C   UNL     1       1.321 -38.179 -29.395  0.00  0.00    +0.066 C 
ATOM     22  C   UNL     1       1.759 -38.112 -30.894  0.00  0.00    -0.064 C 
ATOM     23  N   UNL     1       0.563 -37.698 -31.754  0.00  0.00    +0.379 N 
ATOM     24  C   UNL     1       0.985 -37.578 -33.157  0.00  0.00    -0.096 C 
ATOM     25  H   UNL     1       0.234 -36.690 -31.412  0.00  0.00    -0.082 HD
ATOM     26  C   UNL     1      -0.606 -38.655 -31.563  0.00  0.00    -0.064 C 
ATOM     27  C   UNL     1      -1.014 -38.736 -30.065  0.00  0.00    +0.066 C 
ENDBRANCH  19  20
ENDBRANCH  18  19
ENDBRANCH  14  15
ENDBRANCH  12  13
TORSDOF 6
ENDMDL
MODEL 2
REMARK VINA RESULT:      -6.9     18.955     20.788
REMARK  Name = C:\Users\Docking\Desktop\test protocol\1iep_ligandH.pdb
REMARK  8 active torsions:
REMARK  status: ('A' for Active; 'I' for Inactive)
REMARK    1  A    between atoms: _5  and  _11
REMARK    2  A    between atoms: _19  and  _21
REMARK    3  A    between atoms: _22  and  _66
REMARK    4  A    between atoms: _27  and  _30
REMARK    5  A    between atoms: _32  and  _33
REMARK    6  A    between atoms: _38  and  _43
REMARK    7  A    between atoms: _43  and  _46
REMARK    8  A    between atoms: _53  and  _55
REMARK                            x       y       z     vdW  Elec       q    Type
REMARK                         _______ _______ _______ _____ _____    ______ ____
ROOT
ATOM     10  C   UNL     1     -17.677 -35.972 -35.003  0.00  0.00    +0.038 A 
ATOM     11  C   UNL     1     -17.918 -36.046 -36.399  0.00  0.00    +0.047 A 
ATOM     12  C   UNL     1     -18.032 -37.329 -37.075  0.00  0.00    +0.035 A 
ATOM     32  C   UNL     1     -17.899 -38.517 -36.298  0.00  0.00    +0.024 A 
ATOM     33  C   UNL     1     -17.653 -38.459 -34.879  0.00  0.00    +0.007 A 
ATOM     34  C   UNL     1     -17.536 -37.197 -34.206  0.00  0.00    -0.029 A 
ATOM     35  C   UNL     1     -17.265 -37.195 -32.684  0.00  0.00    +0.045 C 
ENDROOT
BRANCH  10   9
ATOM      4  C   UNL     1     -19.594 -32.182 -32.767  0.00  0.00    +0.077 A 
ATOM      5  C   UNL     1     -20.912 -32.744 -32.819  0.00  0.00    +0.048 A 
ATOM      6  C   UNL     1     -21.056 -34.007 -33.435  0.00  0.00    +0.116 A 
ATOM      7  N   UNL     1     -19.955 -34.651 -33.958  0.00  0.00    -0.223 NA
ATOM      8  C   UNL     1     -18.698 -34.080 -33.893  0.00  0.00    +0.220 A 
ATOM      9  N   UNL     1     -17.576 -34.714 -34.405  0.00  0.00    -0.283 N 
ATOM     36  H   UNL     1     -16.666 -34.256 -34.344  0.00  0.00    +0.155 HD
ATOM     37  N   UNL     1     -18.535 -32.874 -33.311  0.00  0.00    -0.214 NA
BRANCH   4   3
ATOM      1  C   UNL     1     -19.175 -29.277 -30.181  0.00  0.00    +0.020 A 
ATOM      2  C   UNL     1     -19.494 -30.574 -30.732  0.00  0.00    +0.013 A 
ATOM      3  C   UNL     1     -19.280 -30.856 -32.146  0.00  0.00    +0.019 A 
ATOM     38  C   UNL     1     -18.736 -29.797 -32.981  0.00  0.00    +0.120 A 
ATOM     39  N   UNL     1     -18.439 -28.557 -32.423  0.00  0.00    -0.263 NA
ATOM     40  C   UNL     1     -18.643 -28.273 -31.065  0.00  0.00    +0.111 A 
ENDBRANCH   4   3
ENDBRANCH  10   9
BRANCH  12  13
ATOM     13  N   UNL     1     -18.268 -37.467 -38.491  0.00  0.00    -0.281 N 
ATOM     14  C   UNL     1     -19.485 -37.524 -39.150  0.00  0.00    +0.248 C 
ATOM     30  O   UNL     1     -20.564 -37.681 -38.597  0.00  0.00    -0.270 OA
ATOM     31  H   UNL     1     -17.437 -37.530 -39.079  0.00  0.00    +0.155 HD
BRANCH  14  15
ATOM     15  C   UNL     1     -19.506 -37.405 -40.639  0.00  0.00    +0.037 A 
ATOM     16  C   UNL     1     -18.635 -38.229 -41.480  0.00  0.00    +0.013 A 
ATOM     17  C   UNL     1     -18.663 -38.082 -42.914  0.00  0.00    +0.005 A 
ATOM     18  C   UNL     1     -19.568 -37.106 -43.516  0.00  0.00    -0.033 A 
ATOM     28  C   UNL     1     -20.426 -36.305 -42.658  0.00  0.00    +0.005 A 
ATOM     29  C   UNL     1     -20.400 -36.446 -41.253  0.00  0.00    +0.013 A 
BRANCH  18  19
ATOM     19  C   UNL     1     -19.649 -36.867 -45.035  0.00  0.00    +0.119 C 
BRANCH  19  20
ATOM     20  N   UNL     1     -18.732 -35.841 -45.616  0.00  0.00    -0.302 NA
ATOM     21  C   UNL     1     -19.312 -34.427 -45.511  0.00  0.00    +0.066 C 
ATOM     22  C   UNL     1     -18.330 -33.364 -46.102  0.00  0.00    -0.064 C 
ATOM     23  N   UNL     1     -18.020 -33.715 -47.558  0.00  0.00    +0.379 N 
ATOM     24  C   UNL     1     -17.143 -32.686 -48.135  0.00  0.00    -0.096 C 
ATOM     25  H   UNL     1     -18.981 -33.696 -48.123  0.00  0.00    -0.082 HD
ATOM     26  C   UNL     1     -17.445 -35.120 -47.672  0.00  0.00    -0.064 C 
ATOM     27  C   UNL     1     -18.415 -36.166 -47.055  0.00  0.00    +0.066 C 
ENDBRANCH  19  20
ENDBRANCH  18  19
ENDBRANCH  14  15
ENDBRANCH  12  13
TORSDOF 6
ENDMDL
MODEL 3
REMARK VINA RESULT:      -6.7      6.312     12.524
REMARK  Name = C:\Users\Docking\Desktop\test protocol\1iep_ligandH.pdb
REMARK  8 active torsions:
REMARK  status: ('A' for Active; 'I' for Inactive)
REMARK    1  A    between atoms: _5  and  _11
REMARK    2  A    between atoms: _19  and  _21
REMARK    3  A    between atoms: _22  and  _66
REMARK    4  A    between atoms: _27  and  _30
REMARK    5  A    between atoms: _32  and  _33
REMARK    6  A    between atoms: _38  and  _43
REMARK    7  A    between atoms: _43  and  _46
REMARK    8  A    between atoms: _53  and  _55
REMARK                            x       y       z     vdW  Elec       q    Type
REMARK                         _______ _______ _______ _____ _____    ______ ____
ROOT
ATOM     10  C   UNL     1      -1.158 -17.552 -26.729  0.00  0.00    +0.038 A 
ATOM     11  C   UNL     1      -1.603 -18.838 -27.127  0.00  0.00    +0.047 A 
ATOM     12  C   UNL     1      -1.104 -20.041 -26.480  0.00  0.00    +0.035 A 
ATOM     32  C   UNL     1      -0.153 -19.897 -25.428  0.00  0.00    +0.024 A 
ATOM     33  C   UNL     1       0.312 -18.597 -25.012  0.00  0.00    +0.007 A 
ATOM     34  C   UNL     1      -0.176 -17.407 -25.648  0.00  0.00    -0.029 A 
ATOM     35  C   UNL     1       0.362 -16.040 -25.165  0.00  0.00    +0.045 C 
ENDROOT
BRANCH  10   9
ATOM      4  C   UNL     1      -0.725 -13.853 -29.758  0.00  0.00    +0.077 A 
ATOM      5  C   UNL     1       0.647 -14.166 -30.036  0.00  0.00    +0.048 A 
ATOM      6  C   UNL     1       1.206 -15.281 -29.374  0.00  0.00    +0.116 A 
ATOM      7  N   UNL     1       0.440 -16.023 -28.501  0.00  0.00    -0.223 NA
ATOM      8  C   UNL     1      -0.880 -15.694 -28.254  0.00  0.00    +0.220 A 
ATOM      9  N   UNL     1      -1.671 -16.431 -27.386  0.00  0.00    -0.283 N 
ATOM     36  H   UNL     1      -2.638 -16.151 -27.224  0.00  0.00    +0.155 HD
ATOM     37  N   UNL     1      -1.437 -14.632 -28.873  0.00  0.00    -0.214 NA
BRANCH   4   3
ATOM      1  C   UNL     1      -2.709 -11.624 -32.286  0.00  0.00    +0.020 A 
ATOM      2  C   UNL     1      -2.009 -12.759 -31.731  0.00  0.00    +0.013 A 
ATOM      3  C   UNL     1      -1.459 -12.707 -30.382  0.00  0.00    +0.019 A 
ATOM     38  C   UNL     1      -1.636 -11.483 -29.616  0.00  0.00    +0.120 A 
ATOM     39  N   UNL     1      -2.313 -10.405 -30.178  0.00  0.00    -0.263 NA
ATOM     40  C   UNL     1      -2.846 -10.443 -31.475  0.00  0.00    +0.111 A 
ENDBRANCH   4   3
ENDBRANCH  10   9
BRANCH  12  13
ATOM     13  N   UNL     1      -1.513 -21.374 -26.846  0.00  0.00    -0.281 N 
ATOM     14  C   UNL     1      -2.648 -22.058 -26.441  0.00  0.00    +0.248 C 
ATOM     30  O   UNL     1      -3.378 -21.705 -25.528  0.00  0.00    -0.270 OA
ATOM     31  H   UNL     1      -0.891 -21.874 -27.482  0.00  0.00    +0.155 HD
BRANCH  14  15
ATOM     15  C   UNL     1      -3.015 -23.326 -27.142  0.00  0.00    +0.037 A 
ATOM     16  C   UNL     1      -1.998 -24.314 -27.509  0.00  0.00    +0.013 A 
ATOM     17  C   UNL     1      -2.378 -25.521 -28.200  0.00  0.00    +0.005 A 
ATOM     18  C   UNL     1      -3.783 -25.746 -28.528  0.00  0.00    -0.033 A 
ATOM     28  C   UNL     1      -4.773 -24.752 -28.147  0.00  0.00    +0.005 A 
ATOM     29  C   UNL     1      -4.404 -23.568 -27.471  0.00  0.00    +0.013 A 
BRANCH  18  19
ATOM     19  C   UNL     1      -4.276 -26.995 -29.282  0.00  0.00    +0.119 C 
BRANCH  19  20
ATOM     20  N   UNL     1      -4.476 -28.242 -28.484  0.00  0.00    -0.302 NA
ATOM     21  C   UNL     1      -4.864 -27.940 -27.034  0.00  0.00    +0.066 C 
ATOM     22  C   UNL     1      -5.091 -29.255 -26.220  0.00  0.00    -0.064 C 
ATOM     23  N   UNL     1      -3.823 -30.110 -26.274  0.00  0.00    +0.379 N 
ATOM     24  C   UNL     1      -4.013 -31.320 -25.461  0.00  0.00    -0.096 C 
ATOM     25  H   UNL     1      -2.997 -29.519 -25.814  0.00  0.00    -0.082 HD
ATOM     26  C   UNL     1      -3.428 -30.413 -27.712  0.00  0.00    -0.064 C 
ATOM     27  C   UNL     1      -3.234 -29.099 -28.521  0.00  0.00    +0.066 C 
ENDBRANCH  19  20
ENDBRANCH  18  19
ENDBRANCH  14  15
ENDBRANCH  12  13
TORSDOF 6
ENDMDL
MODEL 4
REMARK VINA RESULT:      -6.5     41.102     44.164
REMARK  Name = C:\Users\Docking\Desktop\test protocol\1iep_ligandH.pdb
REMARK  8 active torsions:
REMARK  status: ('A' for Active; 'I' for Inactive)
REMARK    1  A    between atoms: _5  and  _11
REMARK    2  A    between atoms: _19  and  _21
REMARK    3  A    between atoms: _22  and  _66
REMARK    4  A    between atoms: _27  and  _30
REMARK    5  A    between atoms: _32  and  _33
REMARK    6  A    between atoms: _38  and  _43
REMARK    7  A    between atoms: _43  and  _46
REMARK    8  A    between atoms: _53  and  _55
REMARK                            x       y       z     vdW  Elec       q    Type
REMARK                         _______ _______ _______ _____ _____    ______ ____
ROOT
ATOM     10  C   UNL     1     -10.692 -14.375 -67.362  0.00  0.00    +0.038 A 
ATOM     11  C   UNL     1      -9.620 -15.132 -67.900  0.00  0.00    +0.047 A 
ATOM     12  C   UNL     1      -8.356 -15.256 -67.190  0.00  0.00    +0.035 A 
ATOM     32  C   UNL     1      -8.220 -14.597 -65.933  0.00  0.00    +0.024 A 
ATOM     33  C   UNL     1      -9.299 -13.822 -65.373  0.00  0.00    +0.007 A 
ATOM     34  C   UNL     1     -10.547 -13.694 -66.070  0.00  0.00    -0.029 A 
ATOM     35  C   UNL     1     -11.667 -12.845 -65.425  0.00  0.00    +0.045 C 
ENDROOT
BRANCH  10   9
ATOM      4  C   UNL     1     -14.904 -16.165 -68.807  0.00  0.00    +0.077 A 
ATOM      5  C   UNL     1     -14.703 -17.385 -68.079  0.00  0.00    +0.048 A 
ATOM      6  C   UNL     1     -13.499 -17.515 -67.351  0.00  0.00    +0.116 A 
ATOM      7  N   UNL     1     -12.572 -16.494 -67.358  0.00  0.00    -0.223 NA
ATOM      8  C   UNL     1     -12.797 -15.332 -68.072  0.00  0.00    +0.220 A 
ATOM      9  N   UNL     1     -11.883 -14.289 -68.087  0.00  0.00    -0.283 N 
ATOM     36  H   UNL     1     -12.083 -13.451 -68.632  0.00  0.00    +0.155 HD
ATOM     37  N   UNL     1     -13.939 -15.184 -68.776  0.00  0.00    -0.214 NA
BRANCH   4   3
ATOM      1  C   UNL     1     -18.513 -16.326 -70.307  0.00  0.00    +0.020 A 
ATOM      2  C   UNL     1     -17.360 -16.645 -69.498  0.00  0.00    +0.013 A 
ATOM      3  C   UNL     1     -16.128 -15.877 -69.621  0.00  0.00    +0.019 A 
ATOM     38  C   UNL     1     -16.095 -14.783 -70.580  0.00  0.00    +0.120 A 
ATOM     39  N   UNL     1     -17.220 -14.500 -71.347  0.00  0.00    -0.263 NA
ATOM     40  C   UNL     1     -18.412 -15.233 -71.238  0.00  0.00    +0.111 A 
ENDBRANCH   4   3
ENDBRANCH  10   9
BRANCH  12  13
ATOM     13  N   UNL     1      -7.230 -16.005 -67.689  0.00  0.00    -0.281 N 
ATOM     14  C   UNL     1      -6.025 -15.515 -68.166  0.00  0.00    +0.248 C 
ATOM     30  O   UNL     1      -5.814 -14.342 -68.435  0.00  0.00    -0.270 OA
ATOM     31  H   UNL     1      -7.334 -17.020 -67.692  0.00  0.00    +0.155 HD
BRANCH  14  15
ATOM     15  C   UNL     1      -4.896 -16.468 -68.389  0.00  0.00    +0.037 A 
ATOM     16  C   UNL     1      -5.138 -17.845 -68.826  0.00  0.00    +0.013 A 
ATOM     17  C   UNL     1      -4.032 -18.749 -69.017  0.00  0.00    +0.005 A 
ATOM     18  C   UNL     1      -2.671 -18.276 -68.773  0.00  0.00    -0.033 A 
ATOM     28  C   UNL     1      -2.458 -16.904 -68.346  0.00  0.00    +0.005 A 
ATOM     29  C   UNL     1      -3.541 -16.015 -68.156  0.00  0.00    +0.013 A 
BRANCH  18  19
ATOM     19  C   UNL     1      -1.432 -19.177 -68.932  0.00  0.00    +0.119 C 
BRANCH  19  20
ATOM     20  N   UNL     1      -1.049 -20.025 -67.764  0.00  0.00    -0.302 NA
ATOM     21  C   UNL     1       0.451 -20.336 -67.746  0.00  0.00    +0.066 C 
ATOM     22  C   UNL     1       0.838 -21.204 -66.505  0.00  0.00    -0.064 C 
ATOM     23  N   UNL     1       0.017 -22.495 -66.514  0.00  0.00    +0.379 N 
ATOM     24  C   UNL     1       0.420 -23.340 -65.381  0.00  0.00    -0.096 C 
ATOM     25  H   UNL     1       0.264 -23.046 -67.452  0.00  0.00    -0.082 HD
ATOM     26  C   UNL     1      -1.475 -22.196 -66.534  0.00  0.00    -0.064 C 
ATOM     27  C   UNL     1      -1.844 -21.307 -67.755  0.00  0.00    +0.066 C 
ENDBRANCH  19  20
ENDBRANCH  18  19
ENDBRANCH  14  15
ENDBRANCH  12  13
TORSDOF 6
ENDMDL
MODEL 5
REMARK VINA RESULT:      -6.5     15.659     20.515
REMARK  Name = C:\Users\Docking\Desktop\test protocol\1iep_ligandH.pdb
REMARK  8 active torsions:
REMARK  status: ('A' for Active; 'I' for Inactive)
REMARK    1  A    between atoms: _5  and  _11
REMARK    2  A    between atoms: _19  and  _21
REMARK    3  A    between atoms: _22  and  _66
REMARK    4  A    between atoms: _27  and  _30
REMARK    5  A    between atoms: _32  and  _33
REMARK    6  A    between atoms: _38  and  _43
REMARK    7  A    between atoms: _43  and  _46
REMARK    8  A    between atoms: _53  and  _55
REMARK                            x       y       z     vdW  Elec       q    Type
REMARK                         _______ _______ _______ _____ _____    ______ ____
ROOT
ATOM     10  C   UNL     1     -19.017 -33.564 -30.894  0.00  0.00    +0.038 A 
ATOM     11  C   UNL     1     -19.101 -32.199 -31.269  0.00  0.00    +0.047 A 
ATOM     12  C   UNL     1     -20.329 -31.441 -31.082  0.00  0.00    +0.035 A 
ATOM     32  C   UNL     1     -21.451 -32.105 -30.507  0.00  0.00    +0.024 A 
ATOM     33  C   UNL     1     -21.384 -33.492 -30.121  0.00  0.00    +0.007 A 
ATOM     34  C   UNL     1     -20.176 -34.246 -30.305  0.00  0.00    -0.029 A 
ATOM     35  C   UNL     1     -20.163 -35.732 -29.879  0.00  0.00    +0.045 C 
ENDROOT
BRANCH  10   9
ATOM      4  C   UNL     1     -16.034 -36.175 -33.599  0.00  0.00    +0.077 A 
ATOM      5  C   UNL     1     -16.962 -36.212 -34.692  0.00  0.00    +0.048 A 
ATOM      6  C   UNL     1     -18.199 -35.552 -34.515  0.00  0.00    +0.116 A 
ATOM      7  N   UNL     1     -18.476 -34.907 -33.330  0.00  0.00    -0.223 NA
ATOM      8  C   UNL     1     -17.559 -34.893 -32.295  0.00  0.00    +0.220 A 
ATOM      9  N   UNL     1     -17.814 -34.244 -31.096  0.00  0.00    -0.283 N 
ATOM     36  H   UNL     1     -17.115 -34.262 -30.354  0.00  0.00    +0.155 HD
ATOM     37  N   UNL     1     -16.372 -35.516 -32.438  0.00  0.00    -0.214 NA
BRANCH   4   3
ATOM      1  C   UNL     1     -12.851 -38.228 -32.621  0.00  0.00    +0.020 A 
ATOM      2  C   UNL     1     -14.161 -37.624 -32.536  0.00  0.00    +0.013 A 
ATOM      3  C   UNL     1     -14.684 -36.822 -33.635  0.00  0.00    +0.019 A 
ATOM     38  C   UNL     1     -13.851 -36.651 -34.815  0.00  0.00    +0.120 A 
ATOM     39  N   UNL     1     -12.593 -37.243 -34.868  0.00  0.00    -0.263 NA
ATOM     40  C   UNL     1     -12.078 -38.015 -33.816  0.00  0.00    +0.111 A 
ENDBRANCH   4   3
ENDBRANCH  10   9
BRANCH  12  13
ATOM     13  N   UNL     1     -20.476 -30.055 -31.451  0.00  0.00    -0.281 N 
ATOM     14  C   UNL     1     -19.865 -28.952 -30.878  0.00  0.00    +0.248 C 
ATOM     30  O   UNL     1     -19.260 -28.970 -29.817  0.00  0.00    -0.270 OA
ATOM     31  H   UNL     1     -21.107 -29.864 -32.230  0.00  0.00    +0.155 HD
BRANCH  14  15
ATOM     15  C   UNL     1     -19.951 -27.634 -31.579  0.00  0.00    +0.037 A 
ATOM     16  C   UNL     1     -20.871 -26.589 -31.122  0.00  0.00    +0.013 A 
ATOM     17  C   UNL     1     -20.946 -25.334 -31.826  0.00  0.00    +0.005 A 
ATOM     18  C   UNL     1     -20.096 -25.116 -32.994  0.00  0.00    -0.033 A 
ATOM     28  C   UNL     1     -19.189 -26.167 -33.422  0.00  0.00    +0.005 A 
ATOM     29  C   UNL     1     -19.113 -27.399 -32.735  0.00  0.00    +0.013 A 
BRANCH  18  19
ATOM     19  C   UNL     1     -20.126 -23.815 -33.818  0.00  0.00    +0.119 C 
BRANCH  19  20
ATOM     20  N   UNL     1     -20.992 -23.795 -35.035  0.00  0.00    -0.302 NA
ATOM     21  C   UNL     1     -22.176 -24.759 -34.912  0.00  0.00    +0.066 C 
ATOM     22  C   UNL     1     -23.084 -24.709 -36.183  0.00  0.00    -0.064 C 
ATOM     23  N   UNL     1     -22.245 -25.037 -37.420  0.00  0.00    +0.379 N 
ATOM     24  C   UNL     1     -23.108 -25.047 -38.610  0.00  0.00    -0.096 C 
ATOM     25  H   UNL     1     -21.837 -26.066 -37.288  0.00  0.00    -0.082 HD
ATOM     26  C   UNL     1     -21.064 -24.085 -37.548  0.00  0.00    -0.064 C 
ATOM     27  C   UNL     1     -20.184 -24.121 -36.267  0.00  0.00    +0.066 C 
ENDBRANCH  19  20
ENDBRANCH  18  19
ENDBRANCH  14  15
ENDBRANCH  12  13
TORSDOF 6
ENDMDL
