MODEL 1
REMARK VINA RESULT:      -9.7      0.000      0.000
REMARK  Name = C:\Users\Docking\Desktop\test protocol\1iep_ligandH.pdb
REMARK  8 active torsions:
REMARK  status: ('A' for Active; 'I' for Inactive)
REMARK    1  A    between atoms: _5  and  _11
REMARK    2  A    between atoms: _19  and  _21
REMARK    3  A    between atoms: _22  and  _66
REMARK    4  A    between atoms: _27  and  _30
REMARK    5  A    between atoms: _32  and  _33
REMARK    6  A    between atoms: _38  and  _43
REMARK    7  A    between atoms: _43  and  _46
REMARK    8  A    between atoms: _53  and  _55
REMARK                            x       y       z     vdW  Elec       q    Type
REMARK                         _______ _______ _______ _____ _____    ______ ____
ROOT
ATOM     10  C   UNL     1     -35.423  -0.355 -30.680  0.00  0.00    +0.038 A 
ATOM     11  C   UNL     1     -36.407  -0.729 -31.630  0.00  0.00    +0.047 A 
ATOM     12  C   UNL     1     -36.224  -1.890 -32.486  0.00  0.00    +0.035 A 
ATOM     32  C   UNL     1     -35.027  -2.651 -32.346  0.00  0.00    +0.024 A 
ATOM     33  C   UNL     1     -34.015  -2.284 -31.387  0.00  0.00    +0.007 A 
ATOM     34  C   UNL     1     -34.189  -1.138 -30.541  0.00  0.00    -0.029 A 
ATOM     35  C   UNL     1     -33.068  -0.788 -29.535  0.00  0.00    +0.045 C 
ENDROOT
BRANCH  10   9
ATOM      4  C   UNL     1     -34.874   4.309 -29.686  0.00  0.00    +0.077 A 
ATOM      5  C   UNL     1     -34.042   4.517 -30.836  0.00  0.00    +0.048 A 
ATOM      6  C   UNL     1     -33.773   3.396 -31.653  0.00  0.00    +0.116 A 
ATOM      7  N   UNL     1     -34.303   2.164 -31.335  0.00  0.00    -0.223 NA
ATOM      8  C   UNL     1     -35.100   1.998 -30.218  0.00  0.00    +0.220 A 
ATOM      9  N   UNL     1     -35.650   0.770 -29.884  0.00  0.00    -0.283 N 
ATOM     36  H   UNL     1     -36.227   0.687 -29.047  0.00  0.00    +0.155 HD
ATOM     37  N   UNL     1     -35.371   3.052 -29.421  0.00  0.00    -0.214 NA
BRANCH   4   3
ATOM      1  C   UNL     1     -36.509   7.492 -28.107  0.00  0.00    +0.020 A 
ATOM      2  C   UNL     1     -36.178   6.467 -29.070  0.00  0.00    +0.013 A 
ATOM      3  C   UNL     1     -35.251   5.395 -28.728  0.00  0.00    +0.019 A 
ATOM     38  C   UNL     1     -34.674   5.389 -27.392  0.00  0.00    +0.120 A 
ATOM     39  N   UNL     1     -35.010   6.390 -26.486  0.00  0.00    -0.263 NA
ATOM     40  C   UNL     1     -35.899   7.428 -26.805  0.00  0.00    +0.111 A 
ENDBRANCH   4   3
ENDBRANCH  10   9
BRANCH  12  13
ATOM     13  N   UNL     1     -37.185  -2.314 -33.474  0.00  0.00    -0.281 N 
ATOM     14  C   UNL     1     -38.052  -3.393 -33.412  0.00  0.00    +0.248 C 
ATOM     30  O   UNL     1     -37.981  -4.289 -32.584  0.00  0.00    -0.270 OA
ATOM     31  H   UNL     1     -37.233  -1.749 -34.322  0.00  0.00    +0.155 HD
BRANCH  14  15
ATOM     15  C   UNL     1     -39.145  -3.501 -34.425  0.00  0.00    +0.037 A 
ATOM     16  C   UNL     1     -39.781  -4.786 -34.723  0.00  0.00    +0.013 A 
ATOM     17  C   UNL     1     -40.822  -4.865 -35.717  0.00  0.00    +0.005 A 
ATOM     18  C   UNL     1     -41.235  -3.652 -36.419  0.00  0.00    -0.033 A 
ATOM     28  C   UNL     1     -40.591  -2.389 -36.100  0.00  0.00    +0.005 A 
ATOM     29  C   UNL     1     -39.569  -2.308 -35.127  0.00  0.00    +0.013 A 
BRANCH  18  19
ATOM     19  C   UNL     1     -42.323  -3.646 -37.510  0.00  0.00    +0.119 C 
BRANCH  19  20
ATOM     20  N   UNL     1     -43.385  -2.601 -37.411  0.00  0.00    -0.302 NA
ATOM     21  C   UNL     1     -44.717  -3.180 -36.928  0.00  0.00    +0.066 C 
ATOM     22  C   UNL     1     -45.811  -2.069 -36.808  0.00  0.00    -0.064 C 
ATOM     23  N   UNL     1     -45.980  -1.376 -38.162  0.00  0.00    +0.379 N 
ATOM     24  C   UNL     1     -47.048  -0.371 -38.068  0.00  0.00    -0.096 C 
ATOM     25  H   UNL     1     -46.305  -2.148 -38.898  0.00  0.00    -0.082 HD
ATOM     26  C   UNL     1     -44.659  -0.800 -38.650  0.00  0.00    -0.064 C 
ATOM     27  C   UNL     1     -43.571  -1.907 -38.737  0.00  0.00    +0.066 C 
ENDBRANCH  19  20
ENDBRANCH  18  19
ENDBRANCH  14  15
ENDBRANCH  12  13
TORSDOF 6
ENDMDL
MODEL 2
REMARK VINA RESULT:      -8.5      4.757      8.915
REMARK  Name = C:\Users\Docking\Desktop\test protocol\1iep_ligandH.pdb
REMARK  8 active torsions:
REMARK  status: ('A' for Active; 'I' for Inactive)
REMARK    1  A    between atoms: _5  and  _11
REMARK    2  A    between atoms: _19  and  _21
REMARK    3  A    between atoms: _22  and  _66
REMARK    4  A    between atoms: _27  and  _30
REMARK    5  A    between atoms: _32  and  _33
REMARK    6  A    between atoms: _38  and  _43
REMARK    7  A    between atoms: _43  and  _46
REMARK    8  A    between atoms: _53  and  _55
REMARK                            x       y       z     vdW  Elec       q    Type
REMARK                         _______ _______ _______ _____ _____    ______ ____
ROOT
ATOM     10  C   UNL     1     -35.213   7.288 -26.797  0.00  0.00    +0.038 A 
ATOM     11  C   UNL     1     -35.368   5.920 -27.138  0.00  0.00    +0.047 A 
ATOM     12  C   UNL     1     -34.556   5.306 -28.176  0.00  0.00    +0.035 A 
ATOM     32  C   UNL     1     -33.592   6.114 -28.846  0.00  0.00    +0.024 A 
ATOM     33  C   UNL     1     -33.421   7.507 -28.514  0.00  0.00    +0.007 A 
ATOM     34  C   UNL     1     -34.222   8.119 -27.492  0.00  0.00    -0.029 A 
ATOM     35  C   UNL     1     -34.000   9.617 -27.181  0.00  0.00    +0.045 C 
ENDROOT
BRANCH  10   9
ATOM      4  C   UNL     1     -39.376   9.079 -25.216  0.00  0.00    +0.077 A 
ATOM      5  C   UNL     1     -39.987   8.958 -26.508  0.00  0.00    +0.048 A 
ATOM      6  C   UNL     1     -39.193   8.436 -27.555  0.00  0.00    +0.116 A 
ATOM      7  N   UNL     1     -37.887   8.067 -27.315  0.00  0.00    -0.223 NA
ATOM      8  C   UNL     1     -37.328   8.198 -26.057  0.00  0.00    +0.220 A 
ATOM      9  N   UNL     1     -36.020   7.826 -25.792  0.00  0.00    -0.283 N 
ATOM     36  H   UNL     1     -35.642   7.945 -24.852  0.00  0.00    +0.155 HD
ATOM     37  N   UNL     1     -38.065   8.695 -25.042  0.00  0.00    -0.214 NA
BRANCH   4   3
ATOM      1  C   UNL     1     -41.048  11.486 -22.626  0.00  0.00    +0.020 A 
ATOM      2  C   UNL     1     -40.358  11.027 -23.810  0.00  0.00    +0.013 A 
ATOM      3  C   UNL     1     -40.085   9.609 -24.009  0.00  0.00    +0.019 A 
ATOM     38  C   UNL     1     -40.528   8.675 -22.984  0.00  0.00    +0.120 A 
ATOM     39  N   UNL     1     -41.188   9.147 -21.855  0.00  0.00    -0.263 NA
ATOM     40  C   UNL     1     -41.455  10.509 -21.651  0.00  0.00    +0.111 A 
ENDBRANCH   4   3
ENDBRANCH  10   9
BRANCH  12  13
ATOM     13  N   UNL     1     -34.674   3.924 -28.571  0.00  0.00    -0.281 N 
ATOM     14  C   UNL     1     -35.569   3.369 -29.471  0.00  0.00    +0.248 C 
ATOM     30  O   UNL     1     -36.548   3.948 -29.918  0.00  0.00    -0.270 OA
ATOM     31  H   UNL     1     -34.020   3.276 -28.132  0.00  0.00    +0.155 HD
BRANCH  14  15
ATOM     15  C   UNL     1     -35.351   1.964 -29.932  0.00  0.00    +0.037 A 
ATOM     16  C   UNL     1     -35.252   1.639 -31.357  0.00  0.00    +0.013 A 
ATOM     17  C   UNL     1     -35.059   0.273 -31.776  0.00  0.00    +0.005 A 
ATOM     18  C   UNL     1     -34.963  -0.779 -30.766  0.00  0.00    -0.033 A 
ATOM     28  C   UNL     1     -35.059  -0.427 -29.359  0.00  0.00    +0.005 A 
ATOM     29  C   UNL     1     -35.249   0.911 -28.945  0.00  0.00    +0.013 A 
BRANCH  18  19
ATOM     19  C   UNL     1     -34.778  -2.266 -31.121  0.00  0.00    +0.119 C 
BRANCH  19  20
ATOM     20  N   UNL     1     -35.824  -2.898 -31.980  0.00  0.00    -0.302 NA
ATOM     21  C   UNL     1     -37.055  -3.317 -31.171  0.00  0.00    +0.066 C 
ATOM     22  C   UNL     1     -38.148  -3.957 -32.088  0.00  0.00    -0.064 C 
ATOM     23  N   UNL     1     -37.552  -5.156 -32.827  0.00  0.00    +0.379 N 
ATOM     24  C   UNL     1     -38.593  -5.794 -33.646  0.00  0.00    -0.096 C 
ATOM     25  H   UNL     1     -37.223  -5.896 -32.061  0.00  0.00    -0.082 HD
ATOM     26  C   UNL     1     -36.326  -4.748 -33.632  0.00  0.00    -0.064 C 
ATOM     27  C   UNL     1     -35.258  -4.087 -32.716  0.00  0.00    +0.066 C 
ENDBRANCH  19  20
ENDBRANCH  18  19
ENDBRANCH  14  15
ENDBRANCH  12  13
TORSDOF 6
ENDMDL
MODEL 3
REMARK VINA RESULT:      -8.4      1.468      1.973
REMARK  Name = C:\Users\Docking\Desktop\test protocol\1iep_ligandH.pdb
REMARK  8 active torsions:
REMARK  status: ('A' for Active; 'I' for Inactive)
REMARK    1  A    between atoms: _5  and  _11
REMARK    2  A    between atoms: _19  and  _21
REMARK    3  A    between atoms: _22  and  _66
REMARK    4  A    between atoms: _27  and  _30
REMARK    5  A    between atoms: _32  and  _33
REMARK    6  A    between atoms: _38  and  _43
REMARK    7  A    between atoms: _43  and  _46
REMARK    8  A    between atoms: _53  and  _55
REMARK                            x       y       z     vdW  Elec       q    Type
REMARK                         _______ _______ _______ _____ _____    ______ ____
ROOT
ATOM     10  C   UNL     1     -34.695   0.199 -32.233  0.00  0.00    +0.038 A 
ATOM     11  C   UNL     1     -35.769   0.047 -33.147  0.00  0.00    +0.047 A 
ATOM     12  C   UNL     1     -36.117  -1.258 -33.688  0.00  0.00    +0.035 A 
ATOM     32  C   UNL     1     -35.352  -2.387 -33.275  0.00  0.00    +0.024 A 
ATOM     33  C   UNL     1     -34.256  -2.250 -32.349  0.00  0.00    +0.007 A 
ATOM     34  C   UNL     1     -33.906  -0.966 -31.813  0.00  0.00    -0.029 A 
ATOM     35  C   UNL     1     -32.717  -0.877 -30.828  0.00  0.00    +0.045 C 
ENDROOT
BRANCH  10   9
ATOM      4  C   UNL     1     -35.229   3.724 -29.021  0.00  0.00    +0.077 A 
ATOM      5  C   UNL     1     -36.189   2.971 -28.266  0.00  0.00    +0.048 A 
ATOM      6  C   UNL     1     -36.523   1.684 -28.742  0.00  0.00    +0.116 A 
ATOM      7  N   UNL     1     -35.935   1.196 -29.889  0.00  0.00    -0.223 NA
ATOM      8  C   UNL     1     -35.014   1.949 -30.594  0.00  0.00    +0.220 A 
ATOM      9  N   UNL     1     -34.404   1.475 -31.745  0.00  0.00    -0.283 N 
ATOM     36  H   UNL     1     -33.735   2.064 -32.241  0.00  0.00    +0.155 HD
ATOM     37  N   UNL     1     -34.679   3.182 -30.160  0.00  0.00    -0.214 NA
BRANCH   4   3
ATOM      1  C   UNL     1     -33.492   7.229 -29.082  0.00  0.00    +0.020 A 
ATOM      2  C   UNL     1     -33.906   5.907 -29.493  0.00  0.00    +0.013 A 
ATOM      3  C   UNL     1     -34.771   5.099 -28.643  0.00  0.00    +0.019 A 
ATOM     38  C   UNL     1     -35.204   5.663 -27.374  0.00  0.00    +0.120 A 
ATOM     39  N   UNL     1     -34.789   6.938 -27.004  0.00  0.00    -0.263 NA
ATOM     40  C   UNL     1     -33.955   7.724 -27.813  0.00  0.00    +0.111 A 
ENDBRANCH   4   3
ENDBRANCH  10   9
BRANCH  12  13
ATOM     13  N   UNL     1     -37.192  -1.472 -34.625  0.00  0.00    -0.281 N 
ATOM     14  C   UNL     1     -38.266  -2.340 -34.505  0.00  0.00    +0.248 C 
ATOM     30  O   UNL     1     -38.351  -3.223 -33.664  0.00  0.00    -0.270 OA
ATOM     31  H   UNL     1     -37.158  -0.918 -35.480  0.00  0.00    +0.155 HD
BRANCH  14  15
ATOM     15  C   UNL     1     -39.404  -2.217 -35.467  0.00  0.00    +0.037 A 
ATOM     16  C   UNL     1     -40.336  -3.326 -35.685  0.00  0.00    +0.013 A 
ATOM     17  C   UNL     1     -41.415  -3.188 -36.631  0.00  0.00    +0.005 A 
ATOM     18  C   UNL     1     -41.568  -1.934 -37.365  0.00  0.00    -0.033 A 
ATOM     28  C   UNL     1     -40.631  -0.848 -37.125  0.00  0.00    +0.005 A 
ATOM     29  C   UNL     1     -39.572  -0.981 -36.199  0.00  0.00    +0.013 A 
BRANCH  18  19
ATOM     19  C   UNL     1     -42.677  -1.705 -38.409  0.00  0.00    +0.119 C 
BRANCH  19  20
ATOM     20  N   UNL     1     -43.903  -0.982 -37.957  0.00  0.00    -0.302 NA
ATOM     21  C   UNL     1     -45.180  -1.603 -38.530  0.00  0.00    +0.066 C 
ATOM     22  C   UNL     1     -46.454  -0.848 -38.028  0.00  0.00    -0.064 C 
ATOM     23  N   UNL     1     -46.352   0.629 -38.411  0.00  0.00    +0.379 N 
ATOM     24  C   UNL     1     -47.574   1.330 -37.993  0.00  0.00    -0.096 C 
ATOM     25  H   UNL     1     -46.292   0.687 -39.523  0.00  0.00    -0.082 HD
ATOM     26  C   UNL     1     -45.083   1.254 -37.848  0.00  0.00    -0.064 C 
ATOM     27  C   UNL     1     -43.825   0.478 -38.328  0.00  0.00    +0.066 C 
ENDBRANCH  19  20
ENDBRANCH  18  19
ENDBRANCH  14  15
ENDBRANCH  12  13
TORSDOF 6
ENDMDL
MODEL 4
REMARK VINA RESULT:      -8.3     28.396     32.304
REMARK  Name = C:\Users\Docking\Desktop\test protocol\1iep_ligandH.pdb
REMARK  8 active torsions:
REMARK  status: ('A' for Active; 'I' for Inactive)
REMARK    1  A    between atoms: _5  and  _11
REMARK    2  A    between atoms: _19  and  _21
REMARK    3  A    between atoms: _22  and  _66
REMARK    4  A    between atoms: _27  and  _30
REMARK    5  A    between atoms: _32  and  _33
REMARK    6  A    between atoms: _38  and  _43
REMARK    7  A    between atoms: _43  and  _46
REMARK    8  A    between atoms: _53  and  _55
REMARK                            x       y       z     vdW  Elec       q    Type
REMARK                         _______ _______ _______ _____ _____    ______ ____
ROOT
ATOM     10  C   UNL     1     -29.867 -20.011 -58.694  0.00  0.00    +0.038 A 
ATOM     11  C   UNL     1     -30.242 -18.649 -58.572  0.00  0.00    +0.047 A 
ATOM     12  C   UNL     1     -30.194 -17.750 -59.715  0.00  0.00    +0.035 A 
ATOM     32  C   UNL     1     -29.762 -18.273 -60.968  0.00  0.00    +0.024 A 
ATOM     33  C   UNL     1     -29.376 -19.655 -61.110  0.00  0.00    +0.007 A 
ATOM     34  C   UNL     1     -29.419 -20.546 -59.985  0.00  0.00    -0.029 A 
ATOM     35  C   UNL     1     -28.987 -22.016 -60.194  0.00  0.00    +0.045 C 
ENDROOT
BRANCH  10   9
ATOM      4  C   UNL     1     -32.320 -22.326 -55.279  0.00  0.00    +0.077 A 
ATOM      5  C   UNL     1     -33.578 -21.843 -55.773  0.00  0.00    +0.048 A 
ATOM      6  C   UNL     1     -33.549 -20.995 -56.903  0.00  0.00    +0.116 A 
ATOM      7  N   UNL     1     -32.347 -20.663 -57.488  0.00  0.00    -0.223 NA
ATOM      8  C   UNL     1     -31.152 -21.144 -56.986  0.00  0.00    +0.220 A 
ATOM      9  N   UNL     1     -29.931 -20.829 -57.564  0.00  0.00    -0.283 N 
ATOM     36  H   UNL     1     -29.072 -21.199 -57.159  0.00  0.00    +0.155 HD
ATOM     37  N   UNL     1     -31.152 -21.954 -55.907  0.00  0.00    -0.214 NA
BRANCH   4   3
ATOM      1  C   UNL     1     -31.215 -23.851 -51.851  0.00  0.00    +0.020 A 
ATOM      2  C   UNL     1     -31.307 -22.942 -52.970  0.00  0.00    +0.013 A 
ATOM      3  C   UNL     1     -32.186 -23.233 -54.096  0.00  0.00    +0.019 A 
ATOM     38  C   UNL     1     -32.966 -24.461 -54.056  0.00  0.00    +0.120 A 
ATOM     39  N   UNL     1     -32.856 -25.318 -52.966  0.00  0.00    -0.263 NA
ATOM     40  C   UNL     1     -32.011 -25.049 -51.878  0.00  0.00    +0.111 A 
ENDBRANCH   4   3
ENDBRANCH  10   9
BRANCH  12  13
ATOM     13  N   UNL     1     -30.555 -16.355 -59.649  0.00  0.00    -0.281 N 
ATOM     14  C   UNL     1     -31.800 -15.787 -59.863  0.00  0.00    +0.248 C 
ATOM     30  O   UNL     1     -32.753 -16.374 -60.355  0.00  0.00    -0.270 OA
ATOM     31  H   UNL     1     -29.801 -15.709 -59.418  0.00  0.00    +0.155 HD
BRANCH  14  15
ATOM     15  C   UNL     1     -32.014 -14.356 -59.489  0.00  0.00    +0.037 A 
ATOM     16  C   UNL     1     -31.656 -13.856 -58.160  0.00  0.00    +0.013 A 
ATOM     17  C   UNL     1     -31.889 -12.474 -57.819  0.00  0.00    +0.005 A 
ATOM     18  C   UNL     1     -32.482 -11.582 -58.813  0.00  0.00    -0.033 A 
ATOM     28  C   UNL     1     -32.824 -12.104 -60.126  0.00  0.00    +0.005 A 
ATOM     29  C   UNL     1     -32.598 -13.457 -60.462  0.00  0.00    +0.013 A 
BRANCH  18  19
ATOM     19  C   UNL     1     -32.786 -10.099 -58.530  0.00  0.00    +0.119 C 
BRANCH  19  20
ATOM     20  N   UNL     1     -34.025  -9.527 -59.136  0.00  0.00    -0.302 NA
ATOM     21  C   UNL     1     -34.062  -8.000 -59.034  0.00  0.00    +0.066 C 
ATOM     22  C   UNL     1     -35.354  -7.416 -59.693  0.00  0.00    -0.064 C 
ATOM     23  N   UNL     1     -36.585  -8.033 -59.027  0.00  0.00    +0.379 N 
ATOM     24  C   UNL     1     -37.802  -7.443 -59.605  0.00  0.00    -0.096 C 
ATOM     25  H   UNL     1     -36.557  -7.760 -57.947  0.00  0.00    -0.082 HD
ATOM     26  C   UNL     1     -36.556  -9.552 -59.121  0.00  0.00    -0.064 C 
ATOM     27  C   UNL     1     -35.254 -10.119 -58.490  0.00  0.00    +0.066 C 
ENDBRANCH  19  20
ENDBRANCH  18  19
ENDBRANCH  14  15
ENDBRANCH  12  13
TORSDOF 6
ENDMDL
MODEL 5
REMARK VINA RESULT:      -8.0      3.016      4.516
REMARK  Name = C:\Users\Docking\Desktop\test protocol\1iep_ligandH.pdb
REMARK  8 active torsions:
REMARK  status: ('A' for Active; 'I' for Inactive)
REMARK    1  A    between atoms: _5  and  _11
REMARK    2  A    between atoms: _19  and  _21
REMARK    3  A    between atoms: _22  and  _66
REMARK    4  A    between atoms: _27  and  _30
REMARK    5  A    between atoms: _32  and  _33
REMARK    6  A    between atoms: _38  and  _43
REMARK    7  A    between atoms: _43  and  _46
REMARK    8  A    between atoms: _53  and  _55
REMARK                            x       y       z     vdW  Elec       q    Type
REMARK                         _______ _______ _______ _____ _____    ______ ____
ROOT
ATOM     10  C   UNL     1     -35.947   2.389 -30.706  0.00  0.00    +0.038 A 
ATOM     11  C   UNL     1     -36.725   1.447 -31.427  0.00  0.00    +0.047 A 
ATOM     12  C   UNL     1     -36.135   0.627 -32.473  0.00  0.00    +0.035 A 
ATOM     32  C   UNL     1     -34.748   0.791 -32.758  0.00  0.00    +0.024 A 
ATOM     33  C   UNL     1     -33.942   1.744 -32.037  0.00  0.00    +0.007 A 
ATOM     34  C   UNL     1     -34.520   2.558 -31.005  0.00  0.00    -0.029 A 
ATOM     35  C   UNL     1     -33.610   3.568 -30.269  0.00  0.00    +0.045 C 
ENDROOT
BRANCH  10   9
ATOM      4  C   UNL     1     -38.388   6.251 -29.235  0.00  0.00    +0.077 A 
ATOM      5  C   UNL     1     -38.411   6.813 -30.555  0.00  0.00    +0.048 A 
ATOM      6  C   UNL     1     -37.777   6.080 -31.583  0.00  0.00    +0.116 A 
ATOM      7  N   UNL     1     -37.169   4.876 -31.301  0.00  0.00    -0.223 NA
ATOM      8  C   UNL     1     -37.163   4.363 -30.017  0.00  0.00    +0.220 A 
ATOM      9  N   UNL     1     -36.565   3.150 -29.712  0.00  0.00    -0.283 N 
ATOM     36  H   UNL     1     -36.576   2.810 -28.750  0.00  0.00    +0.155 HD
ATOM     37  N   UNL     1     -37.761   5.045 -29.017  0.00  0.00    -0.214 NA
BRANCH   4   3
ATOM      1  C   UNL     1     -38.982   8.499 -26.090  0.00  0.00    +0.020 A 
ATOM      2  C   UNL     1     -38.329   7.898 -27.229  0.00  0.00    +0.013 A 
ATOM      3  C   UNL     1     -39.017   6.905 -28.044  0.00  0.00    +0.019 A 
ATOM     38  C   UNL     1     -40.377   6.540 -27.676  0.00  0.00    +0.120 A 
ATOM     39  N   UNL     1     -40.980   7.135 -26.573  0.00  0.00    -0.263 NA
ATOM     40  C   UNL     1     -40.327   8.091 -25.780  0.00  0.00    +0.111 A 
ENDBRANCH   4   3
ENDBRANCH  10   9
BRANCH  12  13
ATOM     13  N   UNL     1     -36.877  -0.340 -33.243  0.00  0.00    -0.281 N 
ATOM     14  C   UNL     1     -37.336  -1.582 -32.836  0.00  0.00    +0.248 C 
ATOM     30  O   UNL     1     -36.991  -2.143 -31.807  0.00  0.00    -0.270 OA
ATOM     31  H   UNL     1     -37.090  -0.077 -34.206  0.00  0.00    +0.155 HD
BRANCH  14  15
ATOM     15  C   UNL     1     -38.307  -2.313 -33.705  0.00  0.00    +0.037 A 
ATOM     16  C   UNL     1     -38.455  -3.769 -33.622  0.00  0.00    +0.013 A 
ATOM     17  C   UNL     1     -39.387  -4.451 -34.484  0.00  0.00    +0.005 A 
ATOM     18  C   UNL     1     -40.180  -3.678 -35.437  0.00  0.00    -0.033 A 
ATOM     28  C   UNL     1     -40.017  -2.235 -35.495  0.00  0.00    +0.005 A 
ATOM     29  C   UNL     1     -39.104  -1.562 -34.652  0.00  0.00    +0.013 A 
BRANCH  18  19
ATOM     19  C   UNL     1     -41.184  -4.325 -36.410  0.00  0.00    +0.119 C 
BRANCH  19  20
ATOM     20  N   UNL     1     -40.624  -5.020 -37.607  0.00  0.00    -0.302 NA
ATOM     21  C   UNL     1     -40.655  -6.543 -37.455  0.00  0.00    +0.066 C 
ATOM     22  C   UNL     1     -40.086  -7.254 -38.726  0.00  0.00    -0.064 C 
ATOM     23  N   UNL     1     -38.661  -6.764 -38.986  0.00  0.00    +0.379 N 
ATOM     24  C   UNL     1     -38.102  -7.474 -40.146  0.00  0.00    -0.096 C 
ATOM     25  H   UNL     1     -38.044  -7.032 -38.097  0.00  0.00    -0.082 HD
ATOM     26  C   UNL     1     -38.620  -5.250 -39.136  0.00  0.00    -0.064 C 
ATOM     27  C   UNL     1     -39.215  -4.554 -37.880  0.00  0.00    +0.066 C 
ENDBRANCH  19  20
ENDBRANCH  18  19
ENDBRANCH  14  15
ENDBRANCH  12  13
TORSDOF 6
ENDMDL
