MODEL 1
REMARK VINA RESULT:      -9.7      0.000      0.000
REMARK  Name = C:\Users\Docking\Desktop\test protocol\1iep_ligandH.pdb
REMARK  8 active torsions:
REMARK  status: ('A' for Active; 'I' for Inactive)
REMARK    1  A    between atoms: _5  and  _11
REMARK    2  A    between atoms: _19  and  _21
REMARK    3  A    between atoms: _22  and  _66
REMARK    4  A    between atoms: _27  and  _30
REMARK    5  A    between atoms: _32  and  _33
REMARK    6  A    between atoms: _38  and  _43
REMARK    7  A    between atoms: _43  and  _46
REMARK    8  A    between atoms: _53  and  _55
REMARK                            x       y       z     vdW  Elec       q    Type
REMARK                         _______ _______ _______ _____ _____    ______ ____
ROOT
ATOM     10  C   UNL     1     -34.923  -0.067 -31.509  0.00  0.00    +0.038 A 
ATOM     11  C   UNL     1     -35.959  -0.399 -32.419  0.00  0.00    +0.047 A 
ATOM     12  C   UNL     1     -36.287  -1.786 -32.712  0.00  0.00    +0.035 A 
ATOM     32  C   UNL     1     -35.540  -2.809 -32.059  0.00  0.00    +0.024 A 
ATOM     33  C   UNL     1     -34.483  -2.489 -31.132  0.00  0.00    +0.007 A 
ATOM     34  C   UNL     1     -34.154  -1.123 -30.841  0.00  0.00    -0.029 A 
ATOM     35  C   UNL     1     -33.006  -0.838 -29.844  0.00  0.00    +0.045 C 
ENDROOT
BRANCH  10   9
ATOM      4  C   UNL     1     -35.320   3.919 -28.864  0.00  0.00    +0.077 A 
ATOM      5  C   UNL     1     -36.162   3.268 -27.902  0.00  0.00    +0.048 A 
ATOM      6  C   UNL     1     -36.475   1.909 -28.129  0.00  0.00    +0.116 A 
ATOM      7  N   UNL     1     -35.977   1.259 -29.238  0.00  0.00    -0.223 NA
ATOM      8  C   UNL     1     -35.169   1.917 -30.147  0.00  0.00    +0.220 A 
ATOM      9  N   UNL     1     -34.651   1.281 -31.264  0.00  0.00    -0.283 N 
ATOM     36  H   UNL     1     -34.065   1.803 -31.915  0.00  0.00    +0.155 HD
ATOM     37  N   UNL     1     -34.857   3.215 -29.954  0.00  0.00    -0.214 NA
BRANCH   4   3
ATOM      1  C   UNL     1     -33.959   7.481 -29.736  0.00  0.00    +0.020 A 
ATOM      2  C   UNL     1     -34.352   6.099 -29.888  0.00  0.00    +0.013 A 
ATOM      3  C   UNL     1     -34.897   5.352 -28.762  0.00  0.00    +0.019 A 
ATOM     38  C   UNL     1     -35.034   6.038 -27.486  0.00  0.00    +0.120 A 
ATOM     39  N   UNL     1     -34.646   7.369 -27.370  0.00  0.00    -0.263 NA
ATOM     40  C   UNL     1     -34.119   8.098 -28.446  0.00  0.00    +0.111 A 
ENDBRANCH   4   3
ENDBRANCH  10   9
BRANCH  12  13
ATOM     13  N   UNL     1     -37.322  -2.184 -33.633  0.00  0.00    -0.281 N 
ATOM     14  C   UNL     1     -37.704  -3.470 -33.981  0.00  0.00    +0.248 C 
ATOM     30  O   UNL     1     -37.066  -4.477 -33.713  0.00  0.00    -0.270 OA
ATOM     31  H   UNL     1     -37.837  -1.427 -34.082  0.00  0.00    +0.155 HD
BRANCH  14  15
ATOM     15  C   UNL     1     -38.971  -3.663 -34.751  0.00  0.00    +0.037 A 
ATOM     16  C   UNL     1     -39.616  -4.976 -34.834  0.00  0.00    +0.013 A 
ATOM     17  C   UNL     1     -40.828  -5.139 -35.597  0.00  0.00    +0.005 A 
ATOM     18  C   UNL     1     -41.403  -3.984 -36.283  0.00  0.00    -0.033 A 
ATOM     28  C   UNL     1     -40.745  -2.692 -36.179  0.00  0.00    +0.005 A 
ATOM     29  C   UNL     1     -39.557  -2.529 -35.432  0.00  0.00    +0.013 A 
BRANCH  18  19
ATOM     19  C   UNL     1     -42.682  -4.070 -37.137  0.00  0.00    +0.119 C 
BRANCH  19  20
ATOM     20  N   UNL     1     -43.584  -2.880 -37.139  0.00  0.00    -0.302 NA
ATOM     21  C   UNL     1     -45.002  -3.232 -36.682  0.00  0.00    +0.066 C 
ATOM     22  C   UNL     1     -45.926  -1.971 -36.669  0.00  0.00    -0.064 C 
ATOM     23  N   UNL     1     -45.947  -1.344 -38.063  0.00  0.00    +0.379 N 
ATOM     24  C   UNL     1     -46.861  -0.192 -38.069  0.00  0.00    -0.096 C 
ATOM     25  H   UNL     1     -46.356  -2.103 -38.770  0.00  0.00    -0.082 HD
ATOM     26  C   UNL     1     -44.541  -0.992 -38.527  0.00  0.00    -0.064 C 
ATOM     27  C   UNL     1     -43.623  -2.247 -38.508  0.00  0.00    +0.066 C 
ENDBRANCH  19  20
ENDBRANCH  18  19
ENDBRANCH  14  15
ENDBRANCH  12  13
TORSDOF 6
ENDMDL
MODEL 2
REMARK VINA RESULT:      -9.4      3.153      3.772
REMARK  Name = C:\Users\Docking\Desktop\test protocol\1iep_ligandH.pdb
REMARK  8 active torsions:
REMARK  status: ('A' for Active; 'I' for Inactive)
REMARK    1  A    between atoms: _5  and  _11
REMARK    2  A    between atoms: _19  and  _21
REMARK    3  A    between atoms: _22  and  _66
REMARK    4  A    between atoms: _27  and  _30
REMARK    5  A    between atoms: _32  and  _33
REMARK    6  A    between atoms: _38  and  _43
REMARK    7  A    between atoms: _43  and  _46
REMARK    8  A    between atoms: _53  and  _55
REMARK                            x       y       z     vdW  Elec       q    Type
REMARK                         _______ _______ _______ _____ _____    ______ ____
ROOT
ATOM     10  C   UNL     1     -34.579  -0.391 -32.518  0.00  0.00    +0.038 A 
ATOM     11  C   UNL     1     -35.649  -0.662 -33.409  0.00  0.00    +0.047 A 
ATOM     12  C   UNL     1     -36.759  -1.516 -33.014  0.00  0.00    +0.035 A 
ATOM     32  C   UNL     1     -36.748  -2.074 -31.703  0.00  0.00    +0.024 A 
ATOM     33  C   UNL     1     -35.668  -1.810 -30.785  0.00  0.00    +0.007 A 
ATOM     34  C   UNL     1     -34.569  -0.971 -31.170  0.00  0.00    -0.029 A 
ATOM     35  C   UNL     1     -33.435  -0.727 -30.147  0.00  0.00    +0.045 C 
ENDROOT
BRANCH  10   9
ATOM      4  C   UNL     1     -32.864   3.858 -33.948  0.00  0.00    +0.077 A 
ATOM      5  C   UNL     1     -34.154   4.477 -33.853  0.00  0.00    +0.048 A 
ATOM      6  C   UNL     1     -35.235   3.666 -33.440  0.00  0.00    +0.116 A 
ATOM      7  N   UNL     1     -35.028   2.336 -33.145  0.00  0.00    -0.223 NA
ATOM      8  C   UNL     1     -33.771   1.769 -33.249  0.00  0.00    +0.220 A 
ATOM      9  N   UNL     1     -33.539   0.435 -32.950  0.00  0.00    -0.283 N 
ATOM     36  H   UNL     1     -32.598   0.054 -33.046  0.00  0.00    +0.155 HD
ATOM     37  N   UNL     1     -32.723   2.522 -33.643  0.00  0.00    -0.214 NA
BRANCH   4   3
ATOM      1  C   UNL     1     -29.292   4.657 -35.329  0.00  0.00    +0.020 A 
ATOM      2  C   UNL     1     -30.465   3.909 -34.940  0.00  0.00    +0.013 A 
ATOM      3  C   UNL     1     -31.624   4.584 -34.368  0.00  0.00    +0.019 A 
ATOM     38  C   UNL     1     -31.563   6.029 -34.204  0.00  0.00    +0.120 A 
ATOM     39  N   UNL     1     -30.419   6.723 -34.587  0.00  0.00    -0.263 NA
ATOM     40  C   UNL     1     -29.298   6.083 -35.136  0.00  0.00    +0.111 A 
ENDBRANCH   4   3
ENDBRANCH  10   9
BRANCH  12  13
ATOM     13  N   UNL     1     -37.868  -1.833 -33.878  0.00  0.00    -0.281 N 
ATOM     14  C   UNL     1     -38.002  -2.919 -34.728  0.00  0.00    +0.248 C 
ATOM     30  O   UNL     1     -37.091  -3.673 -35.035  0.00  0.00    -0.270 OA
ATOM     31  H   UNL     1     -38.650  -1.178 -33.861  0.00  0.00    +0.155 HD
BRANCH  14  15
ATOM     15  C   UNL     1     -39.339  -3.199 -35.337  0.00  0.00    +0.037 A 
ATOM     16  C   UNL     1     -39.869  -4.562 -35.411  0.00  0.00    +0.013 A 
ATOM     17  C   UNL     1     -41.153  -4.807 -36.019  0.00  0.00    +0.005 A 
ATOM     18  C   UNL     1     -41.917  -3.683 -36.555  0.00  0.00    -0.033 A 
ATOM     28  C   UNL     1     -41.369  -2.340 -36.463  0.00  0.00    +0.005 A 
ATOM     29  C   UNL     1     -40.111  -2.097 -35.870  0.00  0.00    +0.013 A 
BRANCH  18  19
ATOM     19  C   UNL     1     -43.286  -3.854 -37.240  0.00  0.00    +0.119 C 
BRANCH  19  20
ATOM     20  N   UNL     1     -44.210  -2.681 -37.221  0.00  0.00    -0.302 NA
ATOM     21  C   UNL     1     -45.496  -2.975 -36.443  0.00  0.00    +0.066 C 
ATOM     22  C   UNL     1     -46.442  -1.730 -36.415  0.00  0.00    -0.064 C 
ATOM     23  N   UNL     1     -46.761  -1.303 -37.848  0.00  0.00    +0.379 N 
ATOM     24  C   UNL     1     -47.696  -0.169 -37.826  0.00  0.00    -0.096 C 
ATOM     25  H   UNL     1     -47.277  -2.156 -38.348  0.00  0.00    -0.082 HD
ATOM     26  C   UNL     1     -45.488  -1.011 -38.630  0.00  0.00    -0.064 C 
ATOM     27  C   UNL     1     -44.543  -2.245 -38.627  0.00  0.00    +0.066 C 
ENDBRANCH  19  20
ENDBRANCH  18  19
ENDBRANCH  14  15
ENDBRANCH  12  13
TORSDOF 6
ENDMDL
MODEL 3
REMARK VINA RESULT:      -8.8      4.110      7.514
REMARK  Name = C:\Users\Docking\Desktop\test protocol\1iep_ligandH.pdb
REMARK  8 active torsions:
REMARK  status: ('A' for Active; 'I' for Inactive)
REMARK    1  A    between atoms: _5  and  _11
REMARK    2  A    between atoms: _19  and  _21
REMARK    3  A    between atoms: _22  and  _66
REMARK    4  A    between atoms: _27  and  _30
REMARK    5  A    between atoms: _32  and  _33
REMARK    6  A    between atoms: _38  and  _43
REMARK    7  A    between atoms: _43  and  _46
REMARK    8  A    between atoms: _53  and  _55
REMARK                            x       y       z     vdW  Elec       q    Type
REMARK                         _______ _______ _______ _____ _____    ______ ____
ROOT
ATOM     10  C   UNL     1     -38.948  -2.138 -35.922  0.00  0.00    +0.038 A 
ATOM     11  C   UNL     1     -40.225  -1.524 -35.864  0.00  0.00    +0.047 A 
ATOM     12  C   UNL     1     -41.310  -1.961 -36.730  0.00  0.00    +0.035 A 
ATOM     32  C   UNL     1     -41.059  -3.027 -37.642  0.00  0.00    +0.024 A 
ATOM     33  C   UNL     1     -39.766  -3.662 -37.715  0.00  0.00    +0.007 A 
ATOM     34  C   UNL     1     -38.692  -3.234 -36.865  0.00  0.00    -0.029 A 
ATOM     35  C   UNL     1     -37.325  -3.946 -36.991  0.00  0.00    +0.045 C 
ENDROOT
BRANCH  10   9
ATOM      4  C   UNL     1     -36.352  -2.438 -31.897  0.00  0.00    +0.077 A 
ATOM      5  C   UNL     1     -37.077  -3.591 -31.445  0.00  0.00    +0.048 A 
ATOM      6  C   UNL     1     -38.115  -4.071 -32.274  0.00  0.00    +0.116 A 
ATOM      7  N   UNL     1     -38.398  -3.437 -33.465  0.00  0.00    -0.223 NA
ATOM      8  C   UNL     1     -37.681  -2.327 -33.870  0.00  0.00    +0.220 A 
ATOM      9  N   UNL     1     -37.943  -1.679 -35.068  0.00  0.00    -0.283 N 
ATOM     36  H   UNL     1     -37.396  -0.859 -35.328  0.00  0.00    +0.155 HD
ATOM     37  N   UNL     1     -36.685  -1.848 -33.095  0.00  0.00    -0.214 NA
BRANCH   4   3
ATOM      1  C   UNL     1     -34.270  -0.649 -29.109  0.00  0.00    +0.020 A 
ATOM      2  C   UNL     1     -35.391  -1.239 -29.804  0.00  0.00    +0.013 A 
ATOM      3  C   UNL     1     -35.225  -1.815 -31.133  0.00  0.00    +0.019 A 
ATOM     38  C   UNL     1     -33.901  -1.778 -31.735  0.00  0.00    +0.120 A 
ATOM     39  N   UNL     1     -32.840  -1.202 -31.042  0.00  0.00    -0.263 NA
ATOM     40  C   UNL     1     -32.988  -0.644 -29.764  0.00  0.00    +0.111 A 
ENDBRANCH   4   3
ENDBRANCH  10   9
BRANCH  12  13
ATOM     13  N   UNL     1     -42.625  -1.370 -36.722  0.00  0.00    -0.281 N 
ATOM     14  C   UNL     1     -43.188  -0.530 -37.668  0.00  0.00    +0.248 C 
ATOM     30  O   UNL     1     -42.563   0.016 -38.566  0.00  0.00    -0.270 OA
ATOM     31  H   UNL     1     -43.213  -1.600 -35.920  0.00  0.00    +0.155 HD
BRANCH  14  15
ATOM     15  C   UNL     1     -44.653  -0.242 -37.600  0.00  0.00    +0.037 A 
ATOM     16  C   UNL     1     -45.216   0.978 -38.182  0.00  0.00    +0.013 A 
ATOM     17  C   UNL     1     -46.630   1.239 -38.087  0.00  0.00    +0.005 A 
ATOM     18  C   UNL     1     -47.492   0.276 -37.407  0.00  0.00    -0.033 A 
ATOM     28  C   UNL     1     -46.908  -0.930 -36.842  0.00  0.00    +0.005 A 
ATOM     29  C   UNL     1     -45.522  -1.189 -36.933  0.00  0.00    +0.013 A 
BRANCH  18  19
ATOM     19  C   UNL     1     -49.009   0.482 -37.239  0.00  0.00    +0.119 C 
BRANCH  19  20
ATOM     20  N   UNL     1     -49.514   0.757 -35.861  0.00  0.00    -0.302 NA
ATOM     21  C   UNL     1     -50.983   1.187 -35.863  0.00  0.00    +0.066 C 
ATOM     22  C   UNL     1     -51.502   1.449 -34.411  0.00  0.00    -0.064 C 
ATOM     23  N   UNL     1     -50.627   2.511 -33.744  0.00  0.00    +0.379 N 
ATOM     24  C   UNL     1     -51.146   2.801 -32.399  0.00  0.00    -0.096 C 
ATOM     25  H   UNL     1     -50.710   3.445 -34.347  0.00  0.00    -0.082 HD
ATOM     26  C   UNL     1     -49.163   2.093 -33.740  0.00  0.00    -0.064 C 
ATOM     27  C   UNL     1     -48.667   1.807 -35.185  0.00  0.00    +0.066 C 
ENDBRANCH  19  20
ENDBRANCH  18  19
ENDBRANCH  14  15
ENDBRANCH  12  13
TORSDOF 6
ENDMDL
MODEL 4
REMARK VINA RESULT:      -8.8     28.159     32.251
REMARK  Name = C:\Users\Docking\Desktop\test protocol\1iep_ligandH.pdb
REMARK  8 active torsions:
REMARK  status: ('A' for Active; 'I' for Inactive)
REMARK    1  A    between atoms: _5  and  _11
REMARK    2  A    between atoms: _19  and  _21
REMARK    3  A    between atoms: _22  and  _66
REMARK    4  A    between atoms: _27  and  _30
REMARK    5  A    between atoms: _32  and  _33
REMARK    6  A    between atoms: _38  and  _43
REMARK    7  A    between atoms: _43  and  _46
REMARK    8  A    between atoms: _53  and  _55
REMARK                            x       y       z     vdW  Elec       q    Type
REMARK                         _______ _______ _______ _____ _____    ______ ____
ROOT
ATOM     10  C   UNL     1     -30.168 -19.469 -58.305  0.00  0.00    +0.038 A 
ATOM     11  C   UNL     1     -30.781 -18.191 -58.288  0.00  0.00    +0.047 A 
ATOM     12  C   UNL     1     -30.769 -17.335 -59.464  0.00  0.00    +0.035 A 
ATOM     32  C   UNL     1     -30.126 -17.815 -60.642  0.00  0.00    +0.024 A 
ATOM     33  C   UNL     1     -29.496 -19.111 -60.676  0.00  0.00    +0.007 A 
ATOM     34  C   UNL     1     -29.503 -19.959 -59.518  0.00  0.00    -0.029 A 
ATOM     35  C   UNL     1     -28.807 -21.337 -59.610  0.00  0.00    +0.045 C 
ENDROOT
BRANCH  10   9
ATOM      4  C   UNL     1     -32.340 -22.598 -55.385  0.00  0.00    +0.077 A 
ATOM      5  C   UNL     1     -33.503 -22.664 -56.223  0.00  0.00    +0.048 A 
ATOM      6  C   UNL     1     -33.504 -21.872 -57.393  0.00  0.00    +0.116 A 
ATOM      7  N   UNL     1     -32.419 -21.077 -57.693  0.00  0.00    -0.223 NA
ATOM      8  C   UNL     1     -31.315 -21.036 -56.861  0.00  0.00    +0.220 A 
ATOM      9  N   UNL     1     -30.209 -20.250 -57.147  0.00  0.00    -0.283 N 
ATOM     36  H   UNL     1     -29.417 -20.241 -56.505  0.00  0.00    +0.155 HD
ATOM     37  N   UNL     1     -31.289 -21.782 -55.738  0.00  0.00    -0.214 NA
BRANCH   4   3
ATOM      1  C   UNL     1     -31.096 -23.831 -51.887  0.00  0.00    +0.020 A 
ATOM      2  C   UNL     1     -31.203 -23.045 -53.095  0.00  0.00    +0.013 A 
ATOM      3  C   UNL     1     -32.187 -23.379 -54.117  0.00  0.00    +0.019 A 
ATOM     38  C   UNL     1     -33.055 -24.523 -53.884  0.00  0.00    +0.120 A 
ATOM     39  N   UNL     1     -32.928 -25.263 -52.712  0.00  0.00    -0.263 NA
ATOM     40  C   UNL     1     -31.984 -24.952 -51.722  0.00  0.00    +0.111 A 
ENDBRANCH   4   3
ENDBRANCH  10   9
BRANCH  12  13
ATOM     13  N   UNL     1     -31.368 -16.024 -59.504  0.00  0.00    -0.281 N 
ATOM     14  C   UNL     1     -31.517 -15.124 -58.462  0.00  0.00    +0.248 C 
ATOM     30  O   UNL     1     -31.349 -15.398 -57.283  0.00  0.00    -0.270 OA
ATOM     31  H   UNL     1     -31.726 -15.723 -60.411  0.00  0.00    +0.155 HD
BRANCH  14  15
ATOM     15  C   UNL     1     -31.927 -13.720 -58.773  0.00  0.00    +0.037 A 
ATOM     16  C   UNL     1     -31.806 -12.655 -57.774  0.00  0.00    +0.013 A 
ATOM     17  C   UNL     1     -32.224 -11.313 -58.095  0.00  0.00    +0.005 A 
ATOM     18  C   UNL     1     -32.767 -11.029 -59.421  0.00  0.00    -0.033 A 
ATOM     28  C   UNL     1     -32.871 -12.104 -60.394  0.00  0.00    +0.005 A 
ATOM     29  C   UNL     1     -32.463 -13.421 -60.083  0.00  0.00    +0.013 A 
BRANCH  18  19
ATOM     19  C   UNL     1     -33.257  -9.632 -59.843  0.00  0.00    +0.119 C 
BRANCH  19  20
ATOM     20  N   UNL     1     -32.540  -8.454 -59.271  0.00  0.00    -0.302 NA
ATOM     21  C   UNL     1     -33.356  -7.165 -59.401  0.00  0.00    +0.066 C 
ATOM     22  C   UNL     1     -32.600  -5.947 -58.777  0.00  0.00    -0.064 C 
ATOM     23  N   UNL     1     -31.237  -5.795 -59.454  0.00  0.00    +0.379 N 
ATOM     24  C   UNL     1     -30.547  -4.616 -58.910  0.00  0.00    -0.096 C 
ATOM     25  H   UNL     1     -31.417  -5.611 -60.539  0.00  0.00    -0.082 HD
ATOM     26  C   UNL     1     -30.419  -7.073 -59.332  0.00  0.00    -0.064 C 
ATOM     27  C   UNL     1     -31.192  -8.283 -59.928  0.00  0.00    +0.066 C 
ENDBRANCH  19  20
ENDBRANCH  18  19
ENDBRANCH  14  15
ENDBRANCH  12  13
TORSDOF 6
ENDMDL
MODEL 5
REMARK VINA RESULT:      -8.7      7.018     10.645
REMARK  Name = C:\Users\Docking\Desktop\test protocol\1iep_ligandH.pdb
REMARK  8 active torsions:
REMARK  status: ('A' for Active; 'I' for Inactive)
REMARK    1  A    between atoms: _5  and  _11
REMARK    2  A    between atoms: _19  and  _21
REMARK    3  A    between atoms: _22  and  _66
REMARK    4  A    between atoms: _27  and  _30
REMARK    5  A    between atoms: _32  and  _33
REMARK    6  A    between atoms: _38  and  _43
REMARK    7  A    between atoms: _43  and  _46
REMARK    8  A    between atoms: _53  and  _55
REMARK                            x       y       z     vdW  Elec       q    Type
REMARK                         _______ _______ _______ _____ _____    ______ ____
ROOT
ATOM     10  C   UNL     1     -41.393  -1.301 -36.963  0.00  0.00    +0.038 A 
ATOM     11  C   UNL     1     -42.672  -0.958 -36.456  0.00  0.00    +0.047 A 
ATOM     12  C   UNL     1     -43.702  -0.408 -37.324  0.00  0.00    +0.035 A 
ATOM     32  C   UNL     1     -43.396  -0.223 -38.704  0.00  0.00    +0.024 A 
ATOM     33  C   UNL     1     -42.100  -0.565 -39.235  0.00  0.00    +0.007 A 
ATOM     34  C   UNL     1     -41.079  -1.105 -38.384  0.00  0.00    -0.029 A 
ATOM     35  C   UNL     1     -39.706  -1.448 -39.006  0.00  0.00    +0.045 C 
ENDROOT
BRANCH  10   9
ATOM      4  C   UNL     1     -39.393  -4.955 -34.579  0.00  0.00    +0.077 A 
ATOM      5  C   UNL     1     -40.341  -5.895 -35.106  0.00  0.00    +0.048 A 
ATOM      6  C   UNL     1     -41.331  -5.396 -35.982  0.00  0.00    +0.116 A 
ATOM      7  N   UNL     1     -41.362  -4.055 -36.300  0.00  0.00    -0.223 NA
ATOM      8  C   UNL     1     -40.434  -3.176 -35.773  0.00  0.00    +0.220 A 
ATOM      9  N   UNL     1     -40.441  -1.825 -36.085  0.00  0.00    -0.283 N 
ATOM     36  H   UNL     1     -39.744  -1.208 -35.670  0.00  0.00    +0.155 HD
ATOM     37  N   UNL     1     -39.479  -3.627 -34.933  0.00  0.00    -0.214 NA
BRANCH   4   3
ATOM      1  C   UNL     1     -35.924  -5.127 -32.780  0.00  0.00    +0.020 A 
ATOM      2  C   UNL     1     -36.959  -4.730 -33.707  0.00  0.00    +0.013 A 
ATOM      3  C   UNL     1     -38.285  -5.330 -33.644  0.00  0.00    +0.019 A 
ATOM     38  C   UNL     1     -38.535  -6.336 -32.623  0.00  0.00    +0.120 A 
ATOM     39  N   UNL     1     -37.518  -6.700 -31.745  0.00  0.00    -0.263 NA
ATOM     40  C   UNL     1     -36.237  -6.130 -31.797  0.00  0.00    +0.111 A 
ENDBRANCH   4   3
ENDBRANCH  10   9
BRANCH  12  13
ATOM     13  N   UNL     1     -45.017  -0.034 -36.865  0.00  0.00    -0.281 N 
ATOM     14  C   UNL     1     -45.397   1.141 -36.237  0.00  0.00    +0.248 C 
ATOM     30  O   UNL     1     -44.618   1.965 -35.781  0.00  0.00    -0.270 OA
ATOM     31  H   UNL     1     -45.757  -0.718 -37.021  0.00  0.00    +0.155 HD
BRANCH  14  15
ATOM     15  C   UNL     1     -46.854   1.438 -36.081  0.00  0.00    +0.037 A 
ATOM     16  C   UNL     1     -47.314   2.667 -35.429  0.00  0.00    +0.013 A 
ATOM     17  C   UNL     1     -48.724   2.920 -35.276  0.00  0.00    +0.005 A 
ATOM     18  C   UNL     1     -49.686   1.941 -35.777  0.00  0.00    -0.033 A 
ATOM     28  C   UNL     1     -49.203   0.733 -36.424  0.00  0.00    +0.005 A 
ATOM     29  C   UNL     1     -47.821   0.481 -36.575  0.00  0.00    +0.013 A 
BRANCH  18  19
ATOM     19  C   UNL     1     -51.210   2.119 -35.638  0.00  0.00    +0.119 C 
BRANCH  19  20
ATOM     20  N   UNL     1     -51.796   1.953 -34.275  0.00  0.00    -0.302 NA
ATOM     21  C   UNL     1     -51.835   3.274 -33.502  0.00  0.00    +0.066 C 
ATOM     22  C   UNL     1     -52.472   3.087 -32.086  0.00  0.00    -0.064 C 
ATOM     23  N   UNL     1     -51.683   2.029 -31.311  0.00  0.00    +0.379 N 
ATOM     24  C   UNL     1     -52.244   1.893 -29.959  0.00  0.00    -0.096 C 
ATOM     25  H   UNL     1     -50.636   2.397 -31.208  0.00  0.00    -0.082 HD
ATOM     26  C   UNL     1     -51.637   0.713 -32.074  0.00  0.00    -0.064 C 
ATOM     27  C   UNL     1     -51.030   0.916 -33.490  0.00  0.00    +0.066 C 
ENDBRANCH  19  20
ENDBRANCH  18  19
ENDBRANCH  14  15
ENDBRANCH  12  13
TORSDOF 6
ENDMDL
