MODEL 1
REMARK VINA RESULT:      -9.8      0.000      0.000
REMARK  Name = C:\Users\Docking\Desktop\test protocol\1iep_ligandH.pdb
REMARK  8 active torsions:
REMARK  status: ('A' for Active; 'I' for Inactive)
REMARK    1  A    between atoms: _5  and  _11
REMARK    2  A    between atoms: _19  and  _21
REMARK    3  A    between atoms: _22  and  _66
REMARK    4  A    between atoms: _27  and  _30
REMARK    5  A    between atoms: _32  and  _33
REMARK    6  A    between atoms: _38  and  _43
REMARK    7  A    between atoms: _43  and  _46
REMARK    8  A    between atoms: _53  and  _55
REMARK                            x       y       z     vdW  Elec       q    Type
REMARK                         _______ _______ _______ _____ _____    ______ ____
ROOT
ATOM     10  C   UNL     1     -35.359  -0.391 -30.633  0.00  0.00    +0.038 A 
ATOM     11  C   UNL     1     -36.344  -0.790 -31.572  0.00  0.00    +0.047 A 
ATOM     12  C   UNL     1     -36.138  -1.941 -32.436  0.00  0.00    +0.035 A 
ATOM     32  C   UNL     1     -34.916  -2.665 -32.316  0.00  0.00    +0.024 A 
ATOM     33  C   UNL     1     -33.903  -2.273 -31.369  0.00  0.00    +0.007 A 
ATOM     34  C   UNL     1     -34.100  -1.136 -30.515  0.00  0.00    -0.029 A 
ATOM     35  C   UNL     1     -32.977  -0.757 -29.522  0.00  0.00    +0.045 C 
ENDROOT
BRANCH  10   9
ATOM      4  C   UNL     1     -34.901   4.274 -29.599  0.00  0.00    +0.077 A 
ATOM      5  C   UNL     1     -34.070   4.507 -30.744  0.00  0.00    +0.048 A 
ATOM      6  C   UNL     1     -33.778   3.399 -31.571  0.00  0.00    +0.116 A 
ATOM      7  N   UNL     1     -34.285   2.155 -31.264  0.00  0.00    -0.223 NA
ATOM      8  C   UNL     1     -35.082   1.964 -30.151  0.00  0.00    +0.220 A 
ATOM      9  N   UNL     1     -35.610   0.723 -29.828  0.00  0.00    -0.283 N 
ATOM     36  H   UNL     1     -36.187   0.622 -28.994  0.00  0.00    +0.155 HD
ATOM     37  N   UNL     1     -35.375   3.006 -29.345  0.00  0.00    -0.214 NA
BRANCH   4   3
ATOM      1  C   UNL     1     -36.746   7.286 -27.917  0.00  0.00    +0.020 A 
ATOM      2  C   UNL     1     -36.400   6.269 -28.884  0.00  0.00    +0.013 A 
ATOM      3  C   UNL     1     -35.302   5.345 -28.632  0.00  0.00    +0.019 A 
ATOM     38  C   UNL     1     -34.568   5.476 -27.382  0.00  0.00    +0.120 A 
ATOM     39  N   UNL     1     -34.923   6.466 -26.470  0.00  0.00    -0.263 NA
ATOM     40  C   UNL     1     -35.977   7.362 -26.703  0.00  0.00    +0.111 A 
ENDBRANCH   4   3
ENDBRANCH  10   9
BRANCH  12  13
ATOM     13  N   UNL     1     -37.099  -2.389 -33.413  0.00  0.00    -0.281 N 
ATOM     14  C   UNL     1     -37.942  -3.485 -33.338  0.00  0.00    +0.248 C 
ATOM     30  O   UNL     1     -37.846  -4.375 -32.506  0.00  0.00    -0.270 OA
ATOM     31  H   UNL     1     -37.166  -1.830 -34.264  0.00  0.00    +0.155 HD
BRANCH  14  15
ATOM     15  C   UNL     1     -39.043  -3.620 -34.340  0.00  0.00    +0.037 A 
ATOM     16  C   UNL     1     -39.670  -4.916 -34.611  0.00  0.00    +0.013 A 
ATOM     17  C   UNL     1     -40.718  -5.022 -35.595  0.00  0.00    +0.005 A 
ATOM     18  C   UNL     1     -41.146  -3.825 -36.315  0.00  0.00    -0.033 A 
ATOM     28  C   UNL     1     -40.511  -2.551 -36.024  0.00  0.00    +0.005 A 
ATOM     29  C   UNL     1     -39.483  -2.444 -35.060  0.00  0.00    +0.013 A 
BRANCH  18  19
ATOM     19  C   UNL     1     -42.242  -3.848 -37.397  0.00  0.00    +0.119 C 
BRANCH  19  20
ATOM     20  N   UNL     1     -43.270  -2.765 -37.353  0.00  0.00    -0.302 NA
ATOM     21  C   UNL     1     -44.637  -3.289 -36.904  0.00  0.00    +0.066 C 
ATOM     22  C   UNL     1     -45.694  -2.139 -36.841  0.00  0.00    -0.064 C 
ATOM     23  N   UNL     1     -45.795  -1.467 -38.211  0.00  0.00    +0.379 N 
ATOM     24  C   UNL     1     -46.830  -0.424 -38.172  0.00  0.00    -0.096 C 
ATOM     25  H   UNL     1     -46.123  -2.241 -38.944  0.00  0.00    -0.082 HD
ATOM     26  C   UNL     1     -44.439  -0.946 -38.667  0.00  0.00    -0.064 C 
ATOM     27  C   UNL     1     -43.389  -2.091 -38.698  0.00  0.00    +0.066 C 
ENDBRANCH  19  20
ENDBRANCH  18  19
ENDBRANCH  14  15
ENDBRANCH  12  13
TORSDOF 6
ENDMDL
MODEL 2
REMARK VINA RESULT:      -9.1      3.280     12.626
REMARK  Name = C:\Users\Docking\Desktop\test protocol\1iep_ligandH.pdb
REMARK  8 active torsions:
REMARK  status: ('A' for Active; 'I' for Inactive)
REMARK    1  A    between atoms: _5  and  _11
REMARK    2  A    between atoms: _19  and  _21
REMARK    3  A    between atoms: _22  and  _66
REMARK    4  A    between atoms: _27  and  _30
REMARK    5  A    between atoms: _32  and  _33
REMARK    6  A    between atoms: _38  and  _43
REMARK    7  A    between atoms: _43  and  _46
REMARK    8  A    between atoms: _53  and  _55
REMARK                            x       y       z     vdW  Elec       q    Type
REMARK                         _______ _______ _______ _____ _____    ______ ____
ROOT
ATOM     10  C   UNL     1     -37.626  -5.025 -33.711  0.00  0.00    +0.038 A 
ATOM     11  C   UNL     1     -37.036  -3.742 -33.589  0.00  0.00    +0.047 A 
ATOM     12  C   UNL     1     -36.993  -3.051 -32.309  0.00  0.00    +0.035 A 
ATOM     32  C   UNL     1     -37.559  -3.699 -31.173  0.00  0.00    +0.024 A 
ATOM     33  C   UNL     1     -38.165  -5.003 -31.279  0.00  0.00    +0.007 A 
ATOM     34  C   UNL     1     -38.212  -5.688 -32.539  0.00  0.00    -0.029 A 
ATOM     35  C   UNL     1     -38.880  -7.082 -32.595  0.00  0.00    +0.045 C 
ENDROOT
BRANCH  10   9
ATOM      4  C   UNL     1     -39.842  -6.323 -37.766  0.00  0.00    +0.077 A 
ATOM      5  C   UNL     1     -41.085  -5.746 -37.341  0.00  0.00    +0.048 A 
ATOM      6  C   UNL     1     -41.114  -5.131 -36.070  0.00  0.00    +0.116 A 
ATOM      7  N   UNL     1     -39.978  -5.101 -35.289  0.00  0.00    -0.223 NA
ATOM      8  C   UNL     1     -38.796  -5.668 -35.728  0.00  0.00    +0.220 A 
ATOM      9  N   UNL     1     -37.640  -5.643 -34.963  0.00  0.00    -0.283 N 
ATOM     36  H   UNL     1     -36.790  -6.079 -35.320  0.00  0.00    +0.155 HD
ATOM     37  N   UNL     1     -38.743  -6.263 -36.938  0.00  0.00    -0.214 NA
BRANCH   4   3
ATOM      1  C   UNL     1     -40.193  -8.801 -40.772  0.00  0.00    +0.020 A 
ATOM      2  C   UNL     1     -40.415  -8.180 -39.486  0.00  0.00    +0.013 A 
ATOM      3  C   UNL     1     -39.652  -7.005 -39.085  0.00  0.00    +0.019 A 
ATOM     38  C   UNL     1     -38.664  -6.479 -40.015  0.00  0.00    +0.120 A 
ATOM     39  N   UNL     1     -38.471  -7.099 -41.246  0.00  0.00    -0.263 NA
ATOM     40  C   UNL     1     -39.198  -8.231 -41.642  0.00  0.00    +0.111 A 
ENDBRANCH   4   3
ENDBRANCH  10   9
BRANCH  12  13
ATOM     13  N   UNL     1     -36.413  -1.744 -32.127  0.00  0.00    -0.281 N 
ATOM     14  C   UNL     1     -35.073  -1.416 -32.003  0.00  0.00    +0.248 C 
ATOM     30  O   UNL     1     -34.177  -2.226 -31.816  0.00  0.00    -0.270 OA
ATOM     31  H   UNL     1     -37.071  -0.965 -32.083  0.00  0.00    +0.155 HD
BRANCH  14  15
ATOM     15  C   UNL     1     -34.671   0.021 -32.085  0.00  0.00    +0.037 A 
ATOM     16  C   UNL     1     -33.272   0.409 -32.284  0.00  0.00    +0.013 A 
ATOM     17  C   UNL     1     -32.909   1.803 -32.342  0.00  0.00    +0.005 A 
ATOM     18  C   UNL     1     -33.948   2.820 -32.201  0.00  0.00    -0.033 A 
ATOM     28  C   UNL     1     -35.328   2.407 -32.010  0.00  0.00    +0.005 A 
ATOM     29  C   UNL     1     -35.688   1.042 -31.951  0.00  0.00    +0.013 A 
BRANCH  18  19
ATOM     19  C   UNL     1     -33.649   4.330 -32.229  0.00  0.00    +0.119 C 
BRANCH  19  20
ATOM     20  N   UNL     1     -34.192   5.156 -31.109  0.00  0.00    -0.302 NA
ATOM     21  C   UNL     1     -33.814   6.633 -31.248  0.00  0.00    +0.066 C 
ATOM     22  C   UNL     1     -34.409   7.486 -30.081  0.00  0.00    -0.064 C 
ATOM     23  N   UNL     1     -33.922   6.925 -28.744  0.00  0.00    +0.379 N 
ATOM     24  C   UNL     1     -34.433   7.760 -27.647  0.00  0.00    -0.096 C 
ATOM     25  H   UNL     1     -32.809   6.996 -28.733  0.00  0.00    -0.082 HD
ATOM     26  C   UNL     1     -34.292   5.456 -28.598  0.00  0.00    -0.064 C 
ATOM     27  C   UNL     1     -33.720   4.622 -29.779  0.00  0.00    +0.066 C 
ENDBRANCH  19  20
ENDBRANCH  18  19
ENDBRANCH  14  15
ENDBRANCH  12  13
TORSDOF 6
ENDMDL
MODEL 3
REMARK VINA RESULT:      -8.8      4.742      8.828
REMARK  Name = C:\Users\Docking\Desktop\test protocol\1iep_ligandH.pdb
REMARK  8 active torsions:
REMARK  status: ('A' for Active; 'I' for Inactive)
REMARK    1  A    between atoms: _5  and  _11
REMARK    2  A    between atoms: _19  and  _21
REMARK    3  A    between atoms: _22  and  _66
REMARK    4  A    between atoms: _27  and  _30
REMARK    5  A    between atoms: _32  and  _33
REMARK    6  A    between atoms: _38  and  _43
REMARK    7  A    between atoms: _43  and  _46
REMARK    8  A    between atoms: _53  and  _55
REMARK                            x       y       z     vdW  Elec       q    Type
REMARK                         _______ _______ _______ _____ _____    ______ ____
ROOT
ATOM     10  C   UNL     1     -35.253   7.121 -26.767  0.00  0.00    +0.038 A 
ATOM     11  C   UNL     1     -35.391   5.743 -27.073  0.00  0.00    +0.047 A 
ATOM     12  C   UNL     1     -34.584   5.118 -28.110  0.00  0.00    +0.035 A 
ATOM     32  C   UNL     1     -33.645   5.926 -28.814  0.00  0.00    +0.024 A 
ATOM     33  C   UNL     1     -33.493   7.329 -28.517  0.00  0.00    +0.007 A 
ATOM     34  C   UNL     1     -34.288   7.951 -27.497  0.00  0.00    -0.029 A 
ATOM     35  C   UNL     1     -34.087   9.461 -27.225  0.00  0.00    +0.045 C 
ENDROOT
BRANCH  10   9
ATOM      4  C   UNL     1     -39.374   9.016 -25.198  0.00  0.00    +0.077 A 
ATOM      5  C   UNL     1     -39.976   8.932 -26.497  0.00  0.00    +0.048 A 
ATOM      6  C   UNL     1     -39.189   8.402 -27.544  0.00  0.00    +0.116 A 
ATOM      7  N   UNL     1     -37.898   7.989 -27.298  0.00  0.00    -0.223 NA
ATOM      8  C   UNL     1     -37.347   8.085 -26.033  0.00  0.00    +0.220 A 
ATOM      9  N   UNL     1     -36.053   7.669 -25.761  0.00  0.00    -0.283 N 
ATOM     36  H   UNL     1     -35.680   7.764 -24.817  0.00  0.00    +0.155 HD
ATOM     37  N   UNL     1     -38.077   8.590 -25.017  0.00  0.00    -0.214 NA
BRANCH   4   3
ATOM      1  C   UNL     1     -41.004  11.436 -22.593  0.00  0.00    +0.020 A 
ATOM      2  C   UNL     1     -40.318  10.972 -23.776  0.00  0.00    +0.013 A 
ATOM      3  C   UNL     1     -40.079   9.550 -23.990  0.00  0.00    +0.019 A 
ATOM     38  C   UNL     1     -40.551   8.617 -22.978  0.00  0.00    +0.120 A 
ATOM     39  N   UNL     1     -41.207   9.093 -21.848  0.00  0.00    -0.263 NA
ATOM     40  C   UNL     1     -41.442  10.459 -21.631  0.00  0.00    +0.111 A 
ENDBRANCH   4   3
ENDBRANCH  10   9
BRANCH  12  13
ATOM     13  N   UNL     1     -34.686   3.725 -28.470  0.00  0.00    -0.281 N 
ATOM     14  C   UNL     1     -35.561   3.140 -29.370  0.00  0.00    +0.248 C 
ATOM     30  O   UNL     1     -36.537   3.699 -29.848  0.00  0.00    -0.270 OA
ATOM     31  H   UNL     1     -34.034   3.095 -28.004  0.00  0.00    +0.155 HD
BRANCH  14  15
ATOM     15  C   UNL     1     -35.325   1.725 -29.790  0.00  0.00    +0.037 A 
ATOM     16  C   UNL     1     -35.151   0.658 -28.802  0.00  0.00    +0.013 A 
ATOM     17  C   UNL     1     -34.908  -0.696 -29.234  0.00  0.00    +0.005 A 
ATOM     18  C   UNL     1     -34.838  -0.989 -30.664  0.00  0.00    -0.033 A 
ATOM     28  C   UNL     1     -35.019   0.088 -31.623  0.00  0.00    +0.005 A 
ATOM     29  C   UNL     1     -35.257   1.416 -31.203  0.00  0.00    +0.013 A 
BRANCH  18  19
ATOM     19  C   UNL     1     -34.562  -2.401 -31.215  0.00  0.00    +0.119 C 
BRANCH  19  20
ATOM     20  N   UNL     1     -35.655  -3.058 -31.991  0.00  0.00    -0.302 NA
ATOM     21  C   UNL     1     -36.954  -3.153 -31.185  0.00  0.00    +0.066 C 
ATOM     22  C   UNL     1     -38.094  -3.823 -32.020  0.00  0.00    -0.064 C 
ATOM     23  N   UNL     1     -37.639  -5.209 -32.479  0.00  0.00    +0.379 N 
ATOM     24  C   UNL     1     -38.730  -5.865 -33.215  0.00  0.00    -0.096 C 
ATOM     25  H   UNL     1     -37.433  -5.816 -31.567  0.00  0.00    -0.082 HD
ATOM     26  C   UNL     1     -36.346  -5.124 -33.279  0.00  0.00    -0.064 C 
ATOM     27  C   UNL     1     -35.229  -4.430 -32.451  0.00  0.00    +0.066 C 
ENDBRANCH  19  20
ENDBRANCH  18  19
ENDBRANCH  14  15
ENDBRANCH  12  13
TORSDOF 6
ENDMDL
MODEL 4
REMARK VINA RESULT:      -8.7      7.059     10.854
REMARK  Name = C:\Users\Docking\Desktop\test protocol\1iep_ligandH.pdb
REMARK  8 active torsions:
REMARK  status: ('A' for Active; 'I' for Inactive)
REMARK    1  A    between atoms: _5  and  _11
REMARK    2  A    between atoms: _19  and  _21
REMARK    3  A    between atoms: _22  and  _66
REMARK    4  A    between atoms: _27  and  _30
REMARK    5  A    between atoms: _32  and  _33
REMARK    6  A    between atoms: _38  and  _43
REMARK    7  A    between atoms: _43  and  _46
REMARK    8  A    between atoms: _53  and  _55
REMARK                            x       y       z     vdW  Elec       q    Type
REMARK                         _______ _______ _______ _____ _____    ______ ____
ROOT
ATOM     10  C   UNL     1     -41.384  -0.906 -37.004  0.00  0.00    +0.038 A 
ATOM     11  C   UNL     1     -42.596  -0.383 -36.486  0.00  0.00    +0.047 A 
ATOM     12  C   UNL     1     -43.577   0.245 -37.357  0.00  0.00    +0.035 A 
ATOM     32  C   UNL     1     -43.292   0.321 -38.752  0.00  0.00    +0.024 A 
ATOM     33  C   UNL     1     -42.065  -0.205 -39.295  0.00  0.00    +0.007 A 
ATOM     34  C   UNL     1     -41.092  -0.823 -38.440  0.00  0.00    -0.029 A 
ATOM     35  C   UNL     1     -39.790  -1.364 -39.077  0.00  0.00    +0.045 C 
ENDROOT
BRANCH  10   9
ATOM      4  C   UNL     1     -39.559  -4.727 -34.743  0.00  0.00    +0.077 A 
ATOM      5  C   UNL     1     -40.510  -5.614 -35.350  0.00  0.00    +0.048 A 
ATOM      6  C   UNL     1     -41.457  -5.046 -36.232  0.00  0.00    +0.116 A 
ATOM      7  N   UNL     1     -41.443  -3.691 -36.482  0.00  0.00    -0.223 NA
ATOM      8  C   UNL     1     -40.514  -2.863 -35.879  0.00  0.00    +0.220 A 
ATOM      9  N   UNL     1     -40.477  -1.499 -36.122  0.00  0.00    -0.283 N 
ATOM     36  H   UNL     1     -39.780  -0.922 -35.653  0.00  0.00    +0.155 HD
ATOM     37  N   UNL     1     -39.600  -3.381 -35.032  0.00  0.00    -0.214 NA
BRANCH   4   3
ATOM      1  C   UNL     1     -36.159  -5.085 -32.843  0.00  0.00    +0.020 A 
ATOM      2  C   UNL     1     -37.150  -4.615 -33.784  0.00  0.00    +0.013 A 
ATOM      3  C   UNL     1     -38.495  -5.177 -33.792  0.00  0.00    +0.019 A 
ATOM     38  C   UNL     1     -38.807  -6.222 -32.828  0.00  0.00    +0.120 A 
ATOM     39  N   UNL     1     -37.831  -6.655 -31.935  0.00  0.00    -0.263 NA
ATOM     40  C   UNL     1     -36.533  -6.122 -31.919  0.00  0.00    +0.111 A 
ENDBRANCH   4   3
ENDBRANCH  10   9
BRANCH  12  13
ATOM     13  N   UNL     1     -44.822   0.801 -36.887  0.00  0.00    -0.281 N 
ATOM     14  C   UNL     1     -46.096   0.276 -37.027  0.00  0.00    +0.248 C 
ATOM     30  O   UNL     1     -46.383  -0.652 -37.768  0.00  0.00    -0.270 OA
ATOM     31  H   UNL     1     -44.755   1.690 -36.391  0.00  0.00    +0.155 HD
BRANCH  14  15
ATOM     15  C   UNL     1     -47.215   0.878 -36.240  0.00  0.00    +0.037 A 
ATOM     16  C   UNL     1     -46.999   2.045 -35.382  0.00  0.00    +0.013 A 
ATOM     17  C   UNL     1     -48.092   2.596 -34.621  0.00  0.00    +0.005 A 
ATOM     18  C   UNL     1     -49.413   1.979 -34.716  0.00  0.00    -0.033 A 
ATOM     28  C   UNL     1     -49.601   0.825 -35.580  0.00  0.00    +0.005 A 
ATOM     29  C   UNL     1     -48.532   0.282 -36.326  0.00  0.00    +0.013 A 
BRANCH  18  19
ATOM     19  C   UNL     1     -50.633   2.487 -33.924  0.00  0.00    +0.119 C 
BRANCH  19  20
ATOM     20  N   UNL     1     -51.376   1.489 -33.099  0.00  0.00    -0.302 NA
ATOM     21  C   UNL     1     -52.711   2.042 -32.592  0.00  0.00    +0.066 C 
ATOM     22  C   UNL     1     -53.486   0.977 -31.751  0.00  0.00    -0.064 C 
ATOM     23  N   UNL     1     -52.611   0.518 -30.583  0.00  0.00    +0.379 N 
ATOM     24  C   UNL     1     -53.359  -0.441 -29.757  0.00  0.00    -0.096 C 
ATOM     25  H   UNL     1     -52.394   1.411 -29.952  0.00  0.00    -0.082 HD
ATOM     26  C   UNL     1     -51.281  -0.032 -31.078  0.00  0.00    -0.064 C 
ATOM     27  C   UNL     1     -50.532   1.025 -31.938  0.00  0.00    +0.066 C 
ENDBRANCH  19  20
ENDBRANCH  18  19
ENDBRANCH  14  15
ENDBRANCH  12  13
TORSDOF 6
ENDMDL
MODEL 5
REMARK VINA RESULT:      -8.6      7.137     10.879
REMARK  Name = C:\Users\Docking\Desktop\test protocol\1iep_ligandH.pdb
REMARK  8 active torsions:
REMARK  status: ('A' for Active; 'I' for Inactive)
REMARK    1  A    between atoms: _5  and  _11
REMARK    2  A    between atoms: _19  and  _21
REMARK    3  A    between atoms: _22  and  _66
REMARK    4  A    between atoms: _27  and  _30
REMARK    5  A    between atoms: _32  and  _33
REMARK    6  A    between atoms: _38  and  _43
REMARK    7  A    between atoms: _43  and  _46
REMARK    8  A    between atoms: _53  and  _55
REMARK                            x       y       z     vdW  Elec       q    Type
REMARK                         _______ _______ _______ _____ _____    ______ ____
ROOT
ATOM     10  C   UNL     1     -41.677  -1.401 -37.076  0.00  0.00    +0.038 A 
ATOM     11  C   UNL     1     -43.029  -1.215 -36.690  0.00  0.00    +0.047 A 
ATOM     12  C   UNL     1     -44.011  -0.679 -37.620  0.00  0.00    +0.035 A 
ATOM     32  C   UNL     1     -43.582  -0.347 -38.938  0.00  0.00    +0.024 A 
ATOM     33  C   UNL     1     -42.211  -0.529 -39.347  0.00  0.00    +0.007 A 
ATOM     34  C   UNL     1     -41.238  -1.054 -38.433  0.00  0.00    -0.029 A 
ATOM     35  C   UNL     1     -39.781  -1.222 -38.924  0.00  0.00    +0.045 C 
ENDROOT
BRANCH  10   9
ATOM      4  C   UNL     1     -39.578  -5.071 -34.805  0.00  0.00    +0.077 A 
ATOM      5  C   UNL     1     -40.360  -6.038 -35.520  0.00  0.00    +0.048 A 
ATOM      6  C   UNL     1     -41.296  -5.550 -36.458  0.00  0.00    +0.116 A 
ATOM      7  N   UNL     1     -41.432  -4.193 -36.659  0.00  0.00    -0.223 NA
ATOM      8  C   UNL     1     -40.663  -3.287 -35.951  0.00  0.00    +0.220 A 
ATOM      9  N   UNL     1     -40.777  -1.919 -36.142  0.00  0.00    -0.283 N 
ATOM     36  H   UNL     1     -40.197  -1.283 -35.595  0.00  0.00    +0.155 HD
ATOM     37  N   UNL     1     -39.763  -3.729 -35.048  0.00  0.00    -0.214 NA
BRANCH   4   3
ATOM      1  C   UNL     1     -36.264  -5.199 -32.731  0.00  0.00    +0.020 A 
ATOM      2  C   UNL     1     -37.225  -4.815 -33.739  0.00  0.00    +0.013 A 
ATOM      3  C   UNL     1     -38.545  -5.432 -33.783  0.00  0.00    +0.019 A 
ATOM     38  C   UNL     1     -38.863  -6.441 -32.784  0.00  0.00    +0.120 A 
ATOM     39  N   UNL     1     -37.917  -6.791 -31.826  0.00  0.00    -0.263 NA
ATOM     40  C   UNL     1     -36.643  -6.206 -31.775  0.00  0.00    +0.111 A 
ENDBRANCH   4   3
ENDBRANCH  10   9
BRANCH  12  13
ATOM     13  N   UNL     1     -45.395  -0.461 -37.282  0.00  0.00    -0.281 N 
ATOM     14  C   UNL     1     -45.948   0.618 -36.610  0.00  0.00    +0.248 C 
ATOM     30  O   UNL     1     -45.301   1.462 -36.008  0.00  0.00    -0.270 OA
ATOM     31  H   UNL     1     -46.047  -1.189 -37.572  0.00  0.00    +0.155 HD
BRANCH  14  15
ATOM     15  C   UNL     1     -47.434   0.774 -36.594  0.00  0.00    +0.037 A 
ATOM     16  C   UNL     1     -48.117   1.435 -35.479  0.00  0.00    +0.013 A 
ATOM     17  C   UNL     1     -49.553   1.557 -35.480  0.00  0.00    +0.005 A 
ATOM     18  C   UNL     1     -50.317   1.016 -36.602  0.00  0.00    -0.033 A 
ATOM     28  C   UNL     1     -49.614   0.370 -37.698  0.00  0.00    +0.005 A 
ATOM     29  C   UNL     1     -48.206   0.248 -37.700  0.00  0.00    +0.013 A 
BRANCH  18  19
ATOM     19  C   UNL     1     -51.854   1.083 -36.677  0.00  0.00    +0.119 C 
BRANCH  19  20
ATOM     20  N   UNL     1     -52.492   0.706 -37.973  0.00  0.00    -0.302 NA
ATOM     21  C   UNL     1     -52.645   1.909 -38.909  0.00  0.00    +0.066 C 
ATOM     22  C   UNL     1     -53.294   1.493 -40.269  0.00  0.00    -0.064 C 
ATOM     23  N   UNL     1     -54.650   0.837 -40.005  0.00  0.00    +0.379 N 
ATOM     24  C   UNL     1     -55.289   0.497 -41.285  0.00  0.00    -0.096 C 
ATOM     25  H   UNL     1     -55.295   1.589 -39.494  0.00  0.00    -0.082 HD
ATOM     26  C   UNL     1     -54.508  -0.358 -39.073  0.00  0.00    -0.064 C 
ATOM     27  C   UNL     1     -53.835   0.060 -37.736  0.00  0.00    +0.066 C 
ENDBRANCH  19  20
ENDBRANCH  18  19
ENDBRANCH  14  15
ENDBRANCH  12  13
TORSDOF 6
ENDMDL
