MODEL 1
REMARK VINA RESULT:     -10.9      0.000      0.000
REMARK  Name = C:\Users\Docking\Desktop\test protocol\1iep_ligandH.pdb
REMARK  8 active torsions:
REMARK  status: ('A' for Active; 'I' for Inactive)
REMARK    1  A    between atoms: _5  and  _11
REMARK    2  A    between atoms: _19  and  _21
REMARK    3  A    between atoms: _22  and  _66
REMARK    4  A    between atoms: _27  and  _30
REMARK    5  A    between atoms: _32  and  _33
REMARK    6  A    between atoms: _38  and  _43
REMARK    7  A    between atoms: _43  and  _46
REMARK    8  A    between atoms: _53  and  _55
REMARK                            x       y       z     vdW  Elec       q    Type
REMARK                         _______ _______ _______ _____ _____    ______ ____
ROOT
ATOM     10  C   UNL     1      69.107 127.839 112.674  0.00  0.00    +0.038 A 
ATOM     11  C   UNL     1      68.232 128.233 113.718  0.00  0.00    +0.047 A 
ATOM     12  C   UNL     1      68.509 129.408 114.529  0.00  0.00    +0.035 A 
ATOM     32  C   UNL     1      69.685 130.162 114.247  0.00  0.00    +0.024 A 
ATOM     33  C   UNL     1      70.587 129.775 113.190  0.00  0.00    +0.007 A 
ATOM     34  C   UNL     1      70.320 128.615 112.389  0.00  0.00    -0.029 A 
ATOM     35  C   UNL     1      71.325 128.244 111.273  0.00  0.00    +0.045 C 
ENDROOT
BRANCH  10   9
ATOM      4  C   UNL     1      67.173 123.469 112.228  0.00  0.00    +0.077 A 
ATOM      5  C   UNL     1      66.779 123.438 113.607  0.00  0.00    +0.048 A 
ATOM      6  C   UNL     1      67.100 124.563 114.399  0.00  0.00    +0.116 A 
ATOM      7  N   UNL     1      67.764 125.635 113.842  0.00  0.00    -0.223 NA
ATOM      8  C   UNL     1      68.131 125.632 112.509  0.00  0.00    +0.220 A 
ATOM      9  N   UNL     1      68.793 126.702 111.927  0.00  0.00    -0.283 N 
ATOM     36  H   UNL     1      69.053 126.658 110.942  0.00  0.00    +0.155 HD
ATOM     37  N   UNL     1      67.838 124.569 111.732  0.00  0.00    -0.214 NA
BRANCH   4   3
ATOM      1  C   UNL     1      67.517 120.911 109.289  0.00  0.00    +0.020 A 
ATOM      2  C   UNL     1      67.825 121.994 110.194  0.00  0.00    +0.013 A 
ATOM      3  C   UNL     1      66.903 122.357 111.262  0.00  0.00    +0.019 A 
ATOM     38  C   UNL     1      65.667 121.599 111.388  0.00  0.00    +0.120 A 
ATOM     39  N   UNL     1      65.396 120.562 110.501  0.00  0.00    -0.263 NA
ATOM     40  C   UNL     1      66.276 120.204 109.468  0.00  0.00    +0.111 A 
ENDBRANCH   4   3
ENDBRANCH  10   9
BRANCH  12  13
ATOM     13  N   UNL     1      67.661 129.852 115.608  0.00  0.00    -0.281 N 
ATOM     14  C   UNL     1      67.161 129.103 116.661  0.00  0.00    +0.248 C 
ATOM     30  O   UNL     1      67.194 127.883 116.719  0.00  0.00    -0.270 OA
ATOM     31  H   UNL     1      67.397 130.837 115.593  0.00  0.00    +0.155 HD
BRANCH  14  15
ATOM     15  C   UNL     1      66.520 129.812 117.810  0.00  0.00    +0.037 A 
ATOM     16  C   UNL     1      66.097 129.087 119.011  0.00  0.00    +0.013 A 
ATOM     17  C   UNL     1      65.465 129.792 120.098  0.00  0.00    +0.005 A 
ATOM     18  C   UNL     1      65.253 131.233 119.989  0.00  0.00    -0.033 A 
ATOM     28  C   UNL     1      65.687 131.929 118.788  0.00  0.00    +0.005 A 
ATOM     29  C   UNL     1      66.306 131.241 117.721  0.00  0.00    +0.013 A 
BRANCH  18  19
ATOM     19  C   UNL     1      64.568 132.064 121.090  0.00  0.00    +0.119 C 
BRANCH  19  20
ATOM     20  N   UNL     1      64.539 133.546 120.911  0.00  0.00    -0.302 NA
ATOM     21  C   UNL     1      65.836 134.208 121.383  0.00  0.00    +0.066 C 
ATOM     22  C   UNL     1      65.797 135.756 121.167  0.00  0.00    -0.064 C 
ATOM     23  N   UNL     1      64.592 136.340 121.905  0.00  0.00    +0.379 N 
ATOM     24  C   UNL     1      64.585 137.802 121.752  0.00  0.00    -0.096 C 
ATOM     25  H   UNL     1      64.717 136.114 122.989  0.00  0.00    -0.082 HD
ATOM     26  C   UNL     1      63.297 135.686 121.443  0.00  0.00    -0.064 C 
ATOM     27  C   UNL     1      63.358 134.145 121.635  0.00  0.00    +0.066 C 
ENDBRANCH  19  20
ENDBRANCH  18  19
ENDBRANCH  14  15
ENDBRANCH  12  13
TORSDOF 6
ENDMDL
MODEL 2
REMARK VINA RESULT:     -10.9     13.140     18.976
REMARK  Name = C:\Users\Docking\Desktop\test protocol\1iep_ligandH.pdb
REMARK  8 active torsions:
REMARK  status: ('A' for Active; 'I' for Inactive)
REMARK    1  A    between atoms: _5  and  _11
REMARK    2  A    between atoms: _19  and  _21
REMARK    3  A    between atoms: _22  and  _66
REMARK    4  A    between atoms: _27  and  _30
REMARK    5  A    between atoms: _32  and  _33
REMARK    6  A    between atoms: _38  and  _43
REMARK    7  A    between atoms: _43  and  _46
REMARK    8  A    between atoms: _53  and  _55
REMARK                            x       y       z     vdW  Elec       q    Type
REMARK                         _______ _______ _______ _____ _____    ______ ____
ROOT
ATOM     10  C   UNL     1      78.043 136.897 124.478  0.00  0.00    +0.038 A 
ATOM     11  C   UNL     1      78.796 136.203 123.497  0.00  0.00    +0.047 A 
ATOM     12  C   UNL     1      80.203 135.899 123.703  0.00  0.00    +0.035 A 
ATOM     32  C   UNL     1      80.812 136.314 124.922  0.00  0.00    +0.024 A 
ATOM     33  C   UNL     1      80.063 137.022 125.931  0.00  0.00    +0.007 A 
ATOM     34  C   UNL     1      78.675 137.327 125.732  0.00  0.00    -0.029 A 
ATOM     35  C   UNL     1      77.923 138.094 126.844  0.00  0.00    +0.045 C 
ENDROOT
BRANCH  10   9
ATOM      4  C   UNL     1      73.390 135.746 124.706  0.00  0.00    +0.077 A 
ATOM      5  C   UNL     1      73.669 134.497 125.354  0.00  0.00    +0.048 A 
ATOM      6  C   UNL     1      75.025 134.185 125.605  0.00  0.00    +0.116 A 
ATOM      7  N   UNL     1      76.018 135.065 125.231  0.00  0.00    -0.223 NA
ATOM      8  C   UNL     1      75.713 136.260 124.606  0.00  0.00    +0.220 A 
ATOM      9  N   UNL     1      76.695 137.163 124.228  0.00  0.00    -0.283 N 
ATOM     36  H   UNL     1      76.430 138.030 123.762  0.00  0.00    +0.155 HD
ATOM     37  N   UNL     1      74.427 136.580 124.354  0.00  0.00    -0.214 NA
BRANCH   4   3
ATOM      1  C   UNL     1      69.541 135.834 124.011  0.00  0.00    +0.020 A 
ATOM      2  C   UNL     1      70.855 135.327 124.335  0.00  0.00    +0.013 A 
ATOM      3  C   UNL     1      72.008 136.218 124.376  0.00  0.00    +0.019 A 
ATOM     38  C   UNL     1      71.795 137.627 124.084  0.00  0.00    +0.120 A 
ATOM     39  N   UNL     1      70.519 138.087 123.774  0.00  0.00    -0.263 NA
ATOM     40  C   UNL     1      69.402 137.239 123.730  0.00  0.00    +0.111 A 
ENDBRANCH   4   3
ENDBRANCH  10   9
BRANCH  12  13
ATOM     13  N   UNL     1      81.020 135.204 122.739  0.00  0.00    -0.281 N 
ATOM     14  C   UNL     1      81.939 135.744 121.855  0.00  0.00    +0.248 C 
ATOM     30  O   UNL     1      82.045 136.937 121.610  0.00  0.00    -0.270 OA
ATOM     31  H   UNL     1      80.905 134.191 122.703  0.00  0.00    +0.155 HD
BRANCH  14  15
ATOM     15  C   UNL     1      82.866 134.825 121.126  0.00  0.00    +0.037 A 
ATOM     16  C   UNL     1      83.963 135.346 120.305  0.00  0.00    +0.013 A 
ATOM     17  C   UNL     1      84.832 134.438 119.599  0.00  0.00    +0.005 A 
ATOM     18  C   UNL     1      84.608 132.998 119.713  0.00  0.00    -0.033 A 
ATOM     28  C   UNL     1      83.516 132.509 120.538  0.00  0.00    +0.005 A 
ATOM     29  C   UNL     1      82.662 133.396 121.231  0.00  0.00    +0.013 A 
BRANCH  18  19
ATOM     19  C   UNL     1      85.473 131.957 118.978  0.00  0.00    +0.119 C 
BRANCH  19  20
ATOM     20  N   UNL     1      85.032 131.544 117.613  0.00  0.00    -0.302 NA
ATOM     21  C   UNL     1      84.485 132.723 116.803  0.00  0.00    +0.066 C 
ATOM     22  C   UNL     1      84.050 132.277 115.370  0.00  0.00    -0.064 C 
ATOM     23  N   UNL     1      83.005 131.165 115.480  0.00  0.00    +0.379 N 
ATOM     24  C   UNL     1      82.551 130.783 114.135  0.00  0.00    -0.096 C 
ATOM     25  H   UNL     1      82.128 131.579 116.029  0.00  0.00    -0.082 HD
ATOM     26  C   UNL     1      83.540 129.989 116.286  0.00  0.00    -0.064 C 
ATOM     27  C   UNL     1      83.997 130.449 117.698  0.00  0.00    +0.066 C 
ENDBRANCH  19  20
ENDBRANCH  18  19
ENDBRANCH  14  15
ENDBRANCH  12  13
TORSDOF 6
ENDMDL
MODEL 3
REMARK VINA RESULT:     -10.7      8.350     15.275
REMARK  Name = C:\Users\Docking\Desktop\test protocol\1iep_ligandH.pdb
REMARK  8 active torsions:
REMARK  status: ('A' for Active; 'I' for Inactive)
REMARK    1  A    between atoms: _5  and  _11
REMARK    2  A    between atoms: _19  and  _21
REMARK    3  A    between atoms: _22  and  _66
REMARK    4  A    between atoms: _27  and  _30
REMARK    5  A    between atoms: _32  and  _33
REMARK    6  A    between atoms: _38  and  _43
REMARK    7  A    between atoms: _43  and  _46
REMARK    8  A    between atoms: _53  and  _55
REMARK                            x       y       z     vdW  Elec       q    Type
REMARK                         _______ _______ _______ _____ _____    ______ ____
ROOT
ATOM     10  C   UNL     1      72.114 137.859 125.557  0.00  0.00    +0.038 A 
ATOM     11  C   UNL     1      71.195 137.117 124.772  0.00  0.00    +0.047 A 
ATOM     12  C   UNL     1      69.788 137.038 125.133  0.00  0.00    +0.035 A 
ATOM     32  C   UNL     1      69.350 137.730 126.299  0.00  0.00    +0.024 A 
ATOM     33  C   UNL     1      70.270 138.489 127.109  0.00  0.00    +0.007 A 
ATOM     34  C   UNL     1      71.660 138.568 126.759  0.00  0.00    -0.029 A 
ATOM     35  C   UNL     1      72.603 139.391 127.668  0.00  0.00    +0.045 C 
ENDROOT
BRANCH  10   9
ATOM      4  C   UNL     1      76.492 135.919 125.232  0.00  0.00    +0.077 A 
ATOM      5  C   UNL     1      76.083 134.733 125.928  0.00  0.00    +0.048 A 
ATOM      6  C   UNL     1      74.739 134.665 126.359  0.00  0.00    +0.116 A 
ATOM      7  N   UNL     1      73.877 135.711 126.107  0.00  0.00    -0.223 NA
ATOM      8  C   UNL     1      74.305 136.841 125.435  0.00  0.00    +0.220 A 
ATOM      9  N   UNL     1      73.453 137.901 125.163  0.00  0.00    -0.283 N 
ATOM     36  H   UNL     1      73.809 138.720 124.671  0.00  0.00    +0.155 HD
ATOM     37  N   UNL     1      75.583 136.931 125.014  0.00  0.00    -0.214 NA
BRANCH   4   3
ATOM      1  C   UNL     1      80.382 135.859 124.831  0.00  0.00    +0.020 A 
ATOM      2  C   UNL     1      79.066 135.619 125.377  0.00  0.00    +0.013 A 
ATOM      3  C   UNL     1      77.878 136.139 124.711  0.00  0.00    +0.019 A 
ATOM     38  C   UNL     1      78.058 136.902 123.485  0.00  0.00    +0.120 A 
ATOM     39  N   UNL     1      79.338 137.118 122.984  0.00  0.00    -0.263 NA
ATOM     40  C   UNL     1      80.489 136.625 123.617  0.00  0.00    +0.111 A 
ENDBRANCH   4   3
ENDBRANCH  10   9
BRANCH  12  13
ATOM     13  N   UNL     1      68.811 136.293 124.378  0.00  0.00    -0.281 N 
ATOM     14  C   UNL     1      68.092 136.709 123.270  0.00  0.00    +0.248 C 
ATOM     30  O   UNL     1      68.025 137.867 122.885  0.00  0.00    -0.270 OA
ATOM     31  H   UNL     1      68.626 135.343 124.701  0.00  0.00    +0.155 HD
BRANCH  14  15
ATOM     15  C   UNL     1      67.326 135.695 122.483  0.00  0.00    +0.037 A 
ATOM     16  C   UNL     1      66.513 136.085 121.328  0.00  0.00    +0.013 A 
ATOM     17  C   UNL     1      65.770 135.089 120.597  0.00  0.00    +0.005 A 
ATOM     18  C   UNL     1      65.839 133.692 121.019  0.00  0.00    -0.033 A 
ATOM     28  C   UNL     1      66.657 133.332 122.165  0.00  0.00    +0.005 A 
ATOM     29  C   UNL     1      67.385 134.306 122.885  0.00  0.00    +0.013 A 
BRANCH  18  19
ATOM     19  C   UNL     1      65.062 132.566 120.311  0.00  0.00    +0.119 C 
BRANCH  19  20
ATOM     20  N   UNL     1      65.864 131.521 119.607  0.00  0.00    -0.302 NA
ATOM     21  C   UNL     1      65.997 131.811 118.110  0.00  0.00    +0.066 C 
ATOM     22  C   UNL     1      66.858 130.720 117.393  0.00  0.00    -0.064 C 
ATOM     23  N   UNL     1      66.229 129.345 117.624  0.00  0.00    +0.379 N 
ATOM     24  C   UNL     1      67.003 128.324 116.904  0.00  0.00    -0.096 C 
ATOM     25  H   UNL     1      65.204 129.364 117.186  0.00  0.00    -0.082 HD
ATOM     26  C   UNL     1      66.090 129.050 119.111  0.00  0.00    -0.064 C 
ATOM     27  C   UNL     1      65.258 130.155 119.819  0.00  0.00    +0.066 C 
ENDBRANCH  19  20
ENDBRANCH  18  19
ENDBRANCH  14  15
ENDBRANCH  12  13
TORSDOF 6
ENDMDL
MODEL 4
REMARK VINA RESULT:     -10.6      9.073     15.631
REMARK  Name = C:\Users\Docking\Desktop\test protocol\1iep_ligandH.pdb
REMARK  8 active torsions:
REMARK  status: ('A' for Active; 'I' for Inactive)
REMARK    1  A    between atoms: _5  and  _11
REMARK    2  A    between atoms: _19  and  _21
REMARK    3  A    between atoms: _22  and  _66
REMARK    4  A    between atoms: _27  and  _30
REMARK    5  A    between atoms: _32  and  _33
REMARK    6  A    between atoms: _38  and  _43
REMARK    7  A    between atoms: _43  and  _46
REMARK    8  A    between atoms: _53  and  _55
REMARK                            x       y       z     vdW  Elec       q    Type
REMARK                         _______ _______ _______ _____ _____    ______ ____
ROOT
ATOM     10  C   UNL     1      73.186 138.424 125.864  0.00  0.00    +0.038 A 
ATOM     11  C   UNL     1      72.176 137.737 125.144  0.00  0.00    +0.047 A 
ATOM     12  C   UNL     1      70.774 137.861 125.511  0.00  0.00    +0.035 A 
ATOM     32  C   UNL     1      70.436 138.696 126.616  0.00  0.00    +0.024 A 
ATOM     33  C   UNL     1      71.450 139.401 127.359  0.00  0.00    +0.007 A 
ATOM     34  C   UNL     1      72.835 139.280 127.003  0.00  0.00    -0.029 A 
ATOM     35  C   UNL     1      73.881 140.054 127.840  0.00  0.00    +0.045 C 
ENDROOT
BRANCH  10   9
ATOM      4  C   UNL     1      77.184 135.811 125.389  0.00  0.00    +0.077 A 
ATOM      5  C   UNL     1      76.580 134.666 126.006  0.00  0.00    +0.048 A 
ATOM      6  C   UNL     1      75.240 134.793 126.439  0.00  0.00    +0.116 A 
ATOM      7  N   UNL     1      74.566 135.981 126.261  0.00  0.00    -0.223 NA
ATOM      8  C   UNL     1      75.179 137.067 125.663  0.00  0.00    +0.220 A 
ATOM      9  N   UNL     1      74.517 138.269 125.468  0.00  0.00    -0.283 N 
ATOM     36  H   UNL     1      75.006 139.049 125.030  0.00  0.00    +0.155 HD
ATOM     37  N   UNL     1      76.457 136.971 125.243  0.00  0.00    -0.214 NA
BRANCH   4   3
ATOM      1  C   UNL     1      80.292 135.893 123.015  0.00  0.00    +0.020 A 
ATOM      2  C   UNL     1      78.917 135.874 123.457  0.00  0.00    +0.013 A 
ATOM      3  C   UNL     1      78.591 135.832 124.877  0.00  0.00    +0.019 A 
ATOM     38  C   UNL     1      79.689 135.810 125.832  0.00  0.00    +0.120 A 
ATOM     39  N   UNL     1      81.004 135.828 125.377  0.00  0.00    -0.263 NA
ATOM     40  C   UNL     1      81.329 135.867 124.013  0.00  0.00    +0.111 A 
ENDBRANCH   4   3
ENDBRANCH  10   9
BRANCH  12  13
ATOM     13  N   UNL     1      69.705 137.180 124.822  0.00  0.00    -0.281 N 
ATOM     14  C   UNL     1      68.821 137.705 123.893  0.00  0.00    +0.248 C 
ATOM     30  O   UNL     1      68.679 138.898 123.671  0.00  0.00    -0.270 OA
ATOM     31  H   UNL     1      69.585 136.193 125.047  0.00  0.00    +0.155 HD
BRANCH  14  15
ATOM     15  C   UNL     1      67.960 136.769 123.108  0.00  0.00    +0.037 A 
ATOM     16  C   UNL     1      68.169 135.320 123.159  0.00  0.00    +0.013 A 
ATOM     17  C   UNL     1      67.336 134.441 122.378  0.00  0.00    +0.005 A 
ATOM     18  C   UNL     1      66.283 135.009 121.540  0.00  0.00    -0.033 A 
ATOM     28  C   UNL     1      66.094 136.450 121.512  0.00  0.00    +0.005 A 
ATOM     29  C   UNL     1      66.910 137.315 122.275  0.00  0.00    +0.013 A 
BRANCH  18  19
ATOM     19  C   UNL     1      65.360 134.148 120.657  0.00  0.00    +0.119 C 
BRANCH  19  20
ATOM     20  N   UNL     1      65.501 132.666 120.763  0.00  0.00    -0.302 NA
ATOM     21  C   UNL     1      65.009 131.950 119.501  0.00  0.00    +0.066 C 
ATOM     22  C   UNL     1      65.185 130.401 119.620  0.00  0.00    -0.064 C 
ATOM     23  N   UNL     1      64.435 129.899 120.855  0.00  0.00    +0.379 N 
ATOM     24  C   UNL     1      64.550 128.436 120.937  0.00  0.00    -0.096 C 
ATOM     25  H   UNL     1      63.356 130.146 120.719  0.00  0.00    -0.082 HD
ATOM     26  C   UNL     1      64.916 130.607 122.113  0.00  0.00    -0.064 C 
ATOM     27  C   UNL     1      64.764 132.147 121.973  0.00  0.00    +0.066 C 
ENDBRANCH  19  20
ENDBRANCH  18  19
ENDBRANCH  14  15
ENDBRANCH  12  13
TORSDOF 6
ENDMDL
MODEL 5
REMARK VINA RESULT:     -10.5     14.431     19.720
REMARK  Name = C:\Users\Docking\Desktop\test protocol\1iep_ligandH.pdb
REMARK  8 active torsions:
REMARK  status: ('A' for Active; 'I' for Inactive)
REMARK    1  A    between atoms: _5  and  _11
REMARK    2  A    between atoms: _19  and  _21
REMARK    3  A    between atoms: _22  and  _66
REMARK    4  A    between atoms: _27  and  _30
REMARK    5  A    between atoms: _32  and  _33
REMARK    6  A    between atoms: _38  and  _43
REMARK    7  A    between atoms: _43  and  _46
REMARK    8  A    between atoms: _53  and  _55
REMARK                            x       y       z     vdW  Elec       q    Type
REMARK                         _______ _______ _______ _____ _____    ______ ____
ROOT
ATOM     10  C   UNL     1      78.537 136.893 124.512  0.00  0.00    +0.038 A 
ATOM     11  C   UNL     1      78.893 136.048 123.430  0.00  0.00    +0.047 A 
ATOM     12  C   UNL     1      80.208 135.431 123.358  0.00  0.00    +0.035 A 
ATOM     32  C   UNL     1      81.136 135.696 124.407  0.00  0.00    +0.024 A 
ATOM     33  C   UNL     1      80.792 136.554 125.513  0.00  0.00    +0.007 A 
ATOM     34  C   UNL     1      79.497 137.166 125.588  0.00  0.00    -0.029 A 
ATOM     35  C   UNL     1      79.184 138.083 126.794  0.00  0.00    +0.045 C 
ENDROOT
BRANCH  10   9
ATOM      4  C   UNL     1      73.886 136.806 125.694  0.00  0.00    +0.077 A 
ATOM      5  C   UNL     1      74.004 135.513 126.303  0.00  0.00    +0.048 A 
ATOM      6  C   UNL     1      75.278 134.901 126.285  0.00  0.00    +0.116 A 
ATOM      7  N   UNL     1      76.346 135.544 125.698  0.00  0.00    -0.223 NA
ATOM      8  C   UNL     1      76.197 136.790 125.118  0.00  0.00    +0.220 A 
ATOM      9  N   UNL     1      77.260 137.459 124.530  0.00  0.00    -0.283 N 
ATOM     36  H   UNL     1      77.108 138.374 124.106  0.00  0.00    +0.155 HD
ATOM     37  N   UNL     1      74.991 137.395 125.122  0.00  0.00    -0.214 NA
BRANCH   4   3
ATOM      1  C   UNL     1      70.303 138.031 124.712  0.00  0.00    +0.020 A 
ATOM      2  C   UNL     1      71.518 137.250 124.727  0.00  0.00    +0.013 A 
ATOM      3  C   UNL     1      72.607 137.583 125.637  0.00  0.00    +0.019 A 
ATOM     38  C   UNL     1      72.433 138.721 126.526  0.00  0.00    +0.120 A 
ATOM     39  N   UNL     1      71.253 139.457 126.488  0.00  0.00    -0.263 NA
ATOM     40  C   UNL     1      70.199 139.147 125.616  0.00  0.00    +0.111 A 
ENDBRANCH   4   3
ENDBRANCH  10   9
BRANCH  12  13
ATOM     13  N   UNL     1      80.629 134.570 122.280  0.00  0.00    -0.281 N 
ATOM     14  C   UNL     1      81.832 134.591 121.594  0.00  0.00    +0.248 C 
ATOM     30  O   UNL     1      82.650 135.496 121.661  0.00  0.00    -0.270 OA
ATOM     31  H   UNL     1      79.958 133.860 121.988  0.00  0.00    +0.155 HD
BRANCH  14  15
ATOM     15  C   UNL     1      82.168 133.447 120.692  0.00  0.00    +0.037 A 
ATOM     16  C   UNL     1      83.496 132.828 120.713  0.00  0.00    +0.013 A 
ATOM     17  C   UNL     1      83.800 131.738 119.820  0.00  0.00    +0.005 A 
ATOM     18  C   UNL     1      82.771 131.258 118.900  0.00  0.00    -0.033 A 
ATOM     28  C   UNL     1      81.460 131.886 118.905  0.00  0.00    +0.005 A 
ATOM     29  C   UNL     1      81.160 132.956 119.777  0.00  0.00    +0.013 A 
BRANCH  18  19
ATOM     19  C   UNL     1      83.013 130.113 117.899  0.00  0.00    +0.119 C 
BRANCH  19  20
ATOM     20  N   UNL     1      84.368 130.025 117.276  0.00  0.00    -0.302 NA
ATOM     21  C   UNL     1      84.675 131.238 116.394  0.00  0.00    +0.066 C 
ATOM     22  C   UNL     1      86.104 131.140 115.768  0.00  0.00    -0.064 C 
ATOM     23  N   UNL     1      86.218 129.844 114.964  0.00  0.00    +0.379 N 
ATOM     24  C   UNL     1      87.541 129.777 114.327  0.00  0.00    -0.096 C 
ATOM     25  H   UNL     1      85.454 129.880 114.154  0.00  0.00    -0.082 HD
ATOM     26  C   UNL     1      85.912 128.632 115.833  0.00  0.00    -0.064 C 
ATOM     27  C   UNL     1      84.501 128.754 116.474  0.00  0.00    +0.066 C 
ENDBRANCH  19  20
ENDBRANCH  18  19
ENDBRANCH  14  15
ENDBRANCH  12  13
TORSDOF 6
ENDMDL
