MODEL 1
REMARK VINA RESULT:     -10.7      0.000      0.000
REMARK  Name = C:\Users\Docking\Desktop\test protocol\1iep_ligandH.pdb
REMARK  8 active torsions:
REMARK  status: ('A' for Active; 'I' for Inactive)
REMARK    1  A    between atoms: _5  and  _11
REMARK    2  A    between atoms: _19  and  _21
REMARK    3  A    between atoms: _22  and  _66
REMARK    4  A    between atoms: _27  and  _30
REMARK    5  A    between atoms: _32  and  _33
REMARK    6  A    between atoms: _38  and  _43
REMARK    7  A    between atoms: _43  and  _46
REMARK    8  A    between atoms: _53  and  _55
REMARK                            x       y       z     vdW  Elec       q    Type
REMARK                         _______ _______ _______ _____ _____    ______ ____
ROOT
ATOM     10  C   UNL     1      68.991 128.009 112.771  0.00  0.00    +0.038 A 
ATOM     11  C   UNL     1      68.112 128.476 113.781  0.00  0.00    +0.047 A 
ATOM     12  C   UNL     1      68.437 129.649 114.578  0.00  0.00    +0.035 A 
ATOM     32  C   UNL     1      69.666 130.324 114.317  0.00  0.00    +0.024 A 
ATOM     33  C   UNL     1      70.572 129.861 113.295  0.00  0.00    +0.007 A 
ATOM     34  C   UNL     1      70.257 128.704 112.508  0.00  0.00    -0.029 A 
ATOM     35  C   UNL     1      71.269 128.249 111.430  0.00  0.00    +0.045 C 
ENDROOT
BRANCH  10   9
ATOM      4  C   UNL     1      67.060 123.629 112.420  0.00  0.00    +0.077 A 
ATOM      5  C   UNL     1      66.773 123.578 113.824  0.00  0.00    +0.048 A 
ATOM      6  C   UNL     1      67.145 124.697 114.603  0.00  0.00    +0.116 A 
ATOM      7  N   UNL     1      67.757 125.780 114.011  0.00  0.00    -0.223 NA
ATOM      8  C   UNL     1      68.021 125.796 112.654  0.00  0.00    +0.220 A 
ATOM      9  N   UNL     1      68.629 126.878 112.036  0.00  0.00    -0.283 N 
ATOM     36  H   UNL     1      68.814 126.848 111.034  0.00  0.00    +0.155 HD
ATOM     37  N   UNL     1      67.678 124.739 111.888  0.00  0.00    -0.214 NA
BRANCH   4   3
ATOM      1  C   UNL     1      67.233 121.060 109.475  0.00  0.00    +0.020 A 
ATOM      2  C   UNL     1      67.604 122.132 110.370  0.00  0.00    +0.013 A 
ATOM      3  C   UNL     1      66.726 122.526 111.464  0.00  0.00    +0.019 A 
ATOM     38  C   UNL     1      65.470 121.808 111.628  0.00  0.00    +0.120 A 
ATOM     39  N   UNL     1      65.139 120.781 110.750  0.00  0.00    -0.263 NA
ATOM     40  C   UNL     1      65.976 120.394 109.692  0.00  0.00    +0.111 A 
ENDBRANCH   4   3
ENDBRANCH  10   9
BRANCH  12  13
ATOM     13  N   UNL     1      67.588 130.166 115.622  0.00  0.00    -0.281 N 
ATOM     14  C   UNL     1      67.117 129.502 116.743  0.00  0.00    +0.248 C 
ATOM     30  O   UNL     1      67.182 128.293 116.909  0.00  0.00    -0.270 OA
ATOM     31  H   UNL     1      67.298 131.139 115.523  0.00  0.00    +0.155 HD
BRANCH  14  15
ATOM     15  C   UNL     1      66.467 130.294 117.831  0.00  0.00    +0.037 A 
ATOM     16  C   UNL     1      66.311 131.747 117.725  0.00  0.00    +0.013 A 
ATOM     17  C   UNL     1      65.696 132.489 118.796  0.00  0.00    +0.005 A 
ATOM     18  C   UNL     1      65.231 131.778 119.985  0.00  0.00    -0.033 A 
ATOM     28  C   UNL     1      65.393 130.336 120.062  0.00  0.00    +0.005 A 
ATOM     29  C   UNL     1      65.997 129.605 119.014  0.00  0.00    +0.013 A 
BRANCH  18  19
ATOM     19  C   UNL     1      64.582 132.492 121.186  0.00  0.00    +0.119 C 
BRANCH  19  20
ATOM     20  N   UNL     1      64.329 133.958 121.055  0.00  0.00    -0.302 NA
ATOM     21  C   UNL     1      65.514 134.791 121.552  0.00  0.00    +0.066 C 
ATOM     22  C   UNL     1      65.241 136.322 121.387  0.00  0.00    -0.064 C 
ATOM     23  N   UNL     1      63.963 136.694 122.141  0.00  0.00    +0.379 N 
ATOM     24  C   UNL     1      63.736 138.143 122.036  0.00  0.00    -0.096 C 
ATOM     25  H   UNL     1      64.124 136.453 123.217  0.00  0.00    -0.082 HD
ATOM     26  C   UNL     1      62.781 135.867 121.655  0.00  0.00    -0.064 C 
ATOM     27  C   UNL     1      63.074 134.348 121.796  0.00  0.00    +0.066 C 
ENDBRANCH  19  20
ENDBRANCH  18  19
ENDBRANCH  14  15
ENDBRANCH  12  13
TORSDOF 6
ENDMDL
MODEL 2
REMARK VINA RESULT:     -10.5      8.636     15.175
REMARK  Name = C:\Users\Docking\Desktop\test protocol\1iep_ligandH.pdb
REMARK  8 active torsions:
REMARK  status: ('A' for Active; 'I' for Inactive)
REMARK    1  A    between atoms: _5  and  _11
REMARK    2  A    between atoms: _19  and  _21
REMARK    3  A    between atoms: _22  and  _66
REMARK    4  A    between atoms: _27  and  _30
REMARK    5  A    between atoms: _32  and  _33
REMARK    6  A    between atoms: _38  and  _43
REMARK    7  A    between atoms: _43  and  _46
REMARK    8  A    between atoms: _53  and  _55
REMARK                            x       y       z     vdW  Elec       q    Type
REMARK                         _______ _______ _______ _____ _____    ______ ____
ROOT
ATOM     10  C   UNL     1      72.241 137.701 125.646  0.00  0.00    +0.038 A 
ATOM     11  C   UNL     1      71.330 136.968 124.843  0.00  0.00    +0.047 A 
ATOM     12  C   UNL     1      69.904 136.973 125.126  0.00  0.00    +0.035 A 
ATOM     32  C   UNL     1      69.438 137.739 126.235  0.00  0.00    +0.024 A 
ATOM     33  C   UNL     1      70.349 138.489 127.062  0.00  0.00    +0.007 A 
ATOM     34  C   UNL     1      71.758 138.486 126.789  0.00  0.00    -0.029 A 
ATOM     35  C   UNL     1      72.690 139.303 127.714  0.00  0.00    +0.045 C 
ENDROOT
BRANCH  10   9
ATOM      4  C   UNL     1      76.503 135.496 125.560  0.00  0.00    +0.077 A 
ATOM      5  C   UNL     1      75.983 134.337 126.228  0.00  0.00    +0.048 A 
ATOM      6  C   UNL     1      74.616 134.352 126.583  0.00  0.00    +0.116 A 
ATOM      7  N   UNL     1      73.835 135.448 126.287  0.00  0.00    -0.223 NA
ATOM      8  C   UNL     1      74.368 136.550 125.643  0.00  0.00    +0.220 A 
ATOM      9  N   UNL     1      73.600 137.660 125.329  0.00  0.00    -0.283 N 
ATOM     36  H   UNL     1      74.032 138.456 124.860  0.00  0.00    +0.155 HD
ATOM     37  N   UNL     1      75.672 136.561 125.295  0.00  0.00    -0.214 NA
BRANCH   4   3
ATOM      1  C   UNL     1      79.697 136.007 123.360  0.00  0.00    +0.020 A 
ATOM      2  C   UNL     1      78.306 135.886 123.734  0.00  0.00    +0.013 A 
ATOM      3  C   UNL     1      77.927 135.630 125.118  0.00  0.00    +0.019 A 
ATOM     38  C   UNL     1      78.987 135.502 126.106  0.00  0.00    +0.120 A 
ATOM     39  N   UNL     1      80.317 135.622 125.716  0.00  0.00    -0.263 NA
ATOM     40  C   UNL     1      80.694 135.866 124.388  0.00  0.00    +0.111 A 
ENDBRANCH   4   3
ENDBRANCH  10   9
BRANCH  12  13
ATOM     13  N   UNL     1      68.933 136.242 124.351  0.00  0.00    -0.281 N 
ATOM     14  C   UNL     1      68.339 136.617 123.157  0.00  0.00    +0.248 C 
ATOM     30  O   UNL     1      68.394 137.741 122.681  0.00  0.00    -0.270 OA
ATOM     31  H   UNL     1      68.649 135.337 124.728  0.00  0.00    +0.155 HD
BRANCH  14  15
ATOM     15  C   UNL     1      67.559 135.600 122.387  0.00  0.00    +0.037 A 
ATOM     16  C   UNL     1      67.256 134.284 122.956  0.00  0.00    +0.013 A 
ATOM     17  C   UNL     1      66.517 133.316 122.186  0.00  0.00    +0.005 A 
ATOM     18  C   UNL     1      66.074 133.661 120.837  0.00  0.00    -0.033 A 
ATOM     28  C   UNL     1      66.384 134.975 120.299  0.00  0.00    +0.005 A 
ATOM     29  C   UNL     1      67.109 135.926 121.051  0.00  0.00    +0.013 A 
BRANCH  18  19
ATOM     19  C   UNL     1      65.299 132.682 119.936  0.00  0.00    +0.119 C 
BRANCH  19  20
ATOM     20  N   UNL     1      66.076 131.579 119.296  0.00  0.00    -0.302 NA
ATOM     21  C   UNL     1      66.379 131.870 117.823  0.00  0.00    +0.066 C 
ATOM     22  C   UNL     1      67.212 130.716 117.176  0.00  0.00    -0.064 C 
ATOM     23  N   UNL     1      66.452 129.397 117.322  0.00  0.00    +0.379 N 
ATOM     24  C   UNL     1      67.206 128.320 116.663  0.00  0.00    -0.096 C 
ATOM     25  H   UNL     1      65.480 129.506 116.787  0.00  0.00    -0.082 HD
ATOM     26  C   UNL     1      66.144 129.102 118.783  0.00  0.00    -0.064 C 
ATOM     27  C   UNL     1      65.341 130.268 119.425  0.00  0.00    +0.066 C 
ENDBRANCH  19  20
ENDBRANCH  18  19
ENDBRANCH  14  15
ENDBRANCH  12  13
TORSDOF 6
ENDMDL
MODEL 3
REMARK VINA RESULT:     -10.5     13.354     19.128
REMARK  Name = C:\Users\Docking\Desktop\test protocol\1iep_ligandH.pdb
REMARK  8 active torsions:
REMARK  status: ('A' for Active; 'I' for Inactive)
REMARK    1  A    between atoms: _5  and  _11
REMARK    2  A    between atoms: _19  and  _21
REMARK    3  A    between atoms: _22  and  _66
REMARK    4  A    between atoms: _27  and  _30
REMARK    5  A    between atoms: _32  and  _33
REMARK    6  A    between atoms: _38  and  _43
REMARK    7  A    between atoms: _43  and  _46
REMARK    8  A    between atoms: _53  and  _55
REMARK                            x       y       z     vdW  Elec       q    Type
REMARK                         _______ _______ _______ _____ _____    ______ ____
ROOT
ATOM     10  C   UNL     1      78.115 136.898 124.599  0.00  0.00    +0.038 A 
ATOM     11  C   UNL     1      78.843 136.218 123.589  0.00  0.00    +0.047 A 
ATOM     12  C   UNL     1      80.246 135.880 123.772  0.00  0.00    +0.035 A 
ATOM     32  C   UNL     1      80.875 136.246 124.997  0.00  0.00    +0.024 A 
ATOM     33  C   UNL     1      80.150 136.938 126.034  0.00  0.00    +0.007 A 
ATOM     34  C   UNL     1      78.767 137.277 125.858  0.00  0.00    -0.029 A 
ATOM     35  C   UNL     1      78.041 138.024 127.000  0.00  0.00    +0.045 C 
ENDROOT
BRANCH  10   9
ATOM      4  C   UNL     1      73.443 135.817 124.804  0.00  0.00    +0.077 A 
ATOM      5  C   UNL     1      73.705 134.534 125.391  0.00  0.00    +0.048 A 
ATOM      6  C   UNL     1      75.056 134.188 125.618  0.00  0.00    +0.116 A 
ATOM      7  N   UNL     1      76.062 135.067 125.279  0.00  0.00    -0.223 NA
ATOM      8  C   UNL     1      75.775 136.295 124.712  0.00  0.00    +0.220 A 
ATOM      9  N   UNL     1      76.770 137.198 124.370  0.00  0.00    -0.283 N 
ATOM     36  H   UNL     1      76.518 138.090 123.947  0.00  0.00    +0.155 HD
ATOM     37  N   UNL     1      74.493 136.648 124.484  0.00  0.00    -0.214 NA
BRANCH   4   3
ATOM      1  C   UNL     1      69.673 136.009 123.779  0.00  0.00    +0.020 A 
ATOM      2  C   UNL     1      70.983 135.465 124.053  0.00  0.00    +0.013 A 
ATOM      3  C   UNL     1      72.068 136.327 124.506  0.00  0.00    +0.019 A 
ATOM     38  C   UNL     1      71.790 137.746 124.675  0.00  0.00    +0.120 A 
ATOM     39  N   UNL     1      70.519 138.241 124.403  0.00  0.00    -0.263 NA
ATOM     40  C   UNL     1      69.468 137.421 123.964  0.00  0.00    +0.111 A 
ENDBRANCH   4   3
ENDBRANCH  10   9
BRANCH  12  13
ATOM     13  N   UNL     1      81.039 135.198 122.779  0.00  0.00    -0.281 N 
ATOM     14  C   UNL     1      81.969 135.744 121.910  0.00  0.00    +0.248 C 
ATOM     30  O   UNL     1      82.107 136.942 121.708  0.00  0.00    -0.270 OA
ATOM     31  H   UNL     1      80.897 134.190 122.708  0.00  0.00    +0.155 HD
BRANCH  14  15
ATOM     15  C   UNL     1      82.867 134.827 121.144  0.00  0.00    +0.037 A 
ATOM     16  C   UNL     1      82.660 133.377 121.154  0.00  0.00    +0.013 A 
ATOM     17  C   UNL     1      83.552 132.514 120.421  0.00  0.00    +0.005 A 
ATOM     18  C   UNL     1      84.658 133.100 119.669  0.00  0.00    -0.033 A 
ATOM     28  C   UNL     1      84.838 134.542 119.671  0.00  0.00    +0.005 A 
ATOM     29  C   UNL     1      83.967 135.391 120.390  0.00  0.00    +0.013 A 
BRANCH  18  19
ATOM     19  C   UNL     1      85.671 132.253 118.875  0.00  0.00    +0.119 C 
BRANCH  19  20
ATOM     20  N   UNL     1      85.267 131.808 117.508  0.00  0.00    -0.302 NA
ATOM     21  C   UNL     1      84.586 132.928 116.716  0.00  0.00    +0.066 C 
ATOM     22  C   UNL     1      84.190 132.452 115.281  0.00  0.00    -0.064 C 
ATOM     23  N   UNL     1      83.275 131.231 115.386  0.00  0.00    +0.379 N 
ATOM     24  C   UNL     1      82.854 130.815 114.040  0.00  0.00    -0.096 C 
ATOM     25  H   UNL     1      82.362 131.540 115.946  0.00  0.00    -0.082 HD
ATOM     26  C   UNL     1      83.943 130.113 116.174  0.00  0.00    -0.064 C 
ATOM     27  C   UNL     1      84.359 130.605 117.589  0.00  0.00    +0.066 C 
ENDBRANCH  19  20
ENDBRANCH  18  19
ENDBRANCH  14  15
ENDBRANCH  12  13
TORSDOF 6
ENDMDL
MODEL 4
REMARK VINA RESULT:     -10.4     14.546     19.920
REMARK  Name = C:\Users\Docking\Desktop\test protocol\1iep_ligandH.pdb
REMARK  8 active torsions:
REMARK  status: ('A' for Active; 'I' for Inactive)
REMARK    1  A    between atoms: _5  and  _11
REMARK    2  A    between atoms: _19  and  _21
REMARK    3  A    between atoms: _22  and  _66
REMARK    4  A    between atoms: _27  and  _30
REMARK    5  A    between atoms: _32  and  _33
REMARK    6  A    between atoms: _38  and  _43
REMARK    7  A    between atoms: _43  and  _46
REMARK    8  A    between atoms: _53  and  _55
REMARK                            x       y       z     vdW  Elec       q    Type
REMARK                         _______ _______ _______ _____ _____    ______ ____
ROOT
ATOM     10  C   UNL     1      78.865 136.994 125.021  0.00  0.00    +0.038 A 
ATOM     11  C   UNL     1      79.119 136.157 123.905  0.00  0.00    +0.047 A 
ATOM     12  C   UNL     1      80.432 135.568 123.689  0.00  0.00    +0.035 A 
ATOM     32  C   UNL     1      81.463 135.851 124.632  0.00  0.00    +0.024 A 
ATOM     33  C   UNL     1      81.222 136.701 125.772  0.00  0.00    +0.007 A 
ATOM     34  C   UNL     1      79.930 137.287 125.988  0.00  0.00    -0.029 A 
ATOM     35  C   UNL     1      79.731 138.195 127.224  0.00  0.00    +0.045 C 
ENDROOT
BRANCH  10   9
ATOM      4  C   UNL     1      74.208 136.592 126.112  0.00  0.00    +0.077 A 
ATOM      5  C   UNL     1      74.328 135.184 126.361  0.00  0.00    +0.048 A 
ATOM      6  C   UNL     1      75.603 134.601 126.190  0.00  0.00    +0.116 A 
ATOM      7  N   UNL     1      76.673 135.377 125.800  0.00  0.00    -0.223 NA
ATOM      8  C   UNL     1      76.523 136.731 125.566  0.00  0.00    +0.220 A 
ATOM      9  N   UNL     1      77.586 137.533 125.180  0.00  0.00    -0.283 N 
ATOM     36  H   UNL     1      77.433 138.526 125.009  0.00  0.00    +0.155 HD
ATOM     37  N   UNL     1      75.315 137.312 125.720  0.00  0.00    -0.214 NA
BRANCH   4   3
ATOM      1  C   UNL     1      70.740 138.234 125.356  0.00  0.00    +0.020 A 
ATOM      2  C   UNL     1      71.962 137.487 125.168  0.00  0.00    +0.013 A 
ATOM      3  C   UNL     1      72.927 137.353 126.252  0.00  0.00    +0.019 A 
ATOM     38  C   UNL     1      72.622 137.991 127.524  0.00  0.00    +0.120 A 
ATOM     39  N   UNL     1      71.437 138.705 127.675  0.00  0.00    -0.263 NA
ATOM     40  C   UNL     1      70.502 138.842 126.638  0.00  0.00    +0.111 A 
ENDBRANCH   4   3
ENDBRANCH  10   9
BRANCH  12  13
ATOM     13  N   UNL     1      80.751 134.717 122.570  0.00  0.00    -0.281 N 
ATOM     14  C   UNL     1      81.870 134.767 121.754  0.00  0.00    +0.248 C 
ATOM     30  O   UNL     1      82.668 135.692 121.731  0.00  0.00    -0.270 OA
ATOM     31  H   UNL     1      80.070 133.990 122.352  0.00  0.00    +0.155 HD
BRANCH  14  15
ATOM     15  C   UNL     1      82.132 133.631 120.818  0.00  0.00    +0.037 A 
ATOM     16  C   UNL     1      83.450 132.995 120.745  0.00  0.00    +0.013 A 
ATOM     17  C   UNL     1      83.680 131.913 119.822  0.00  0.00    +0.005 A 
ATOM     18  C   UNL     1      82.588 131.458 118.964  0.00  0.00    -0.033 A 
ATOM     28  C   UNL     1      81.290 132.103 119.061  0.00  0.00    +0.005 A 
ATOM     29  C   UNL     1      81.060 133.165 119.964  0.00  0.00    +0.013 A 
BRANCH  18  19
ATOM     19  C   UNL     1      82.750 130.324 117.934  0.00  0.00    +0.119 C 
BRANCH  19  20
ATOM     20  N   UNL     1      84.125 130.067 117.411  0.00  0.00    -0.302 NA
ATOM     21  C   UNL     1      84.642 131.228 116.558  0.00  0.00    +0.066 C 
ATOM     22  C   UNL     1      86.090 130.952 116.037  0.00  0.00    -0.064 C 
ATOM     23  N   UNL     1      86.102 129.646 115.240  0.00  0.00    +0.379 N 
ATOM     24  C   UNL     1      87.450 129.413 114.701  0.00  0.00    -0.096 C 
ATOM     25  H   UNL     1      85.409 129.772 114.376  0.00  0.00    -0.082 HD
ATOM     26  C   UNL     1      85.587 128.487 116.081  0.00  0.00    -0.064 C 
ATOM     27  C   UNL     1      84.159 128.784 116.617  0.00  0.00    +0.066 C 
ENDBRANCH  19  20
ENDBRANCH  18  19
ENDBRANCH  14  15
ENDBRANCH  12  13
TORSDOF 6
ENDMDL
MODEL 5
REMARK VINA RESULT:     -10.2      9.179     15.468
REMARK  Name = C:\Users\Docking\Desktop\test protocol\1iep_ligandH.pdb
REMARK  8 active torsions:
REMARK  status: ('A' for Active; 'I' for Inactive)
REMARK    1  A    between atoms: _5  and  _11
REMARK    2  A    between atoms: _19  and  _21
REMARK    3  A    between atoms: _22  and  _66
REMARK    4  A    between atoms: _27  and  _30
REMARK    5  A    between atoms: _32  and  _33
REMARK    6  A    between atoms: _38  and  _43
REMARK    7  A    between atoms: _43  and  _46
REMARK    8  A    between atoms: _53  and  _55
REMARK                            x       y       z     vdW  Elec       q    Type
REMARK                         _______ _______ _______ _____ _____    ______ ____
ROOT
ATOM     10  C   UNL     1      73.033 138.249 125.768  0.00  0.00    +0.038 A 
ATOM     11  C   UNL     1      72.035 137.624 124.978  0.00  0.00    +0.047 A 
ATOM     12  C   UNL     1      70.637 137.641 125.379  0.00  0.00    +0.035 A 
ATOM     32  C   UNL     1      70.290 138.306 126.591  0.00  0.00    +0.024 A 
ATOM     33  C   UNL     1      71.292 138.945 127.407  0.00  0.00    +0.007 A 
ATOM     34  C   UNL     1      72.673 138.930 127.018  0.00  0.00    -0.029 A 
ATOM     35  C   UNL     1      73.705 139.626 127.935  0.00  0.00    +0.045 C 
ENDROOT
BRANCH  10   9
ATOM      4  C   UNL     1      77.236 135.993 125.240  0.00  0.00    +0.077 A 
ATOM      5  C   UNL     1      76.756 134.817 125.907  0.00  0.00    +0.048 A 
ATOM      6  C   UNL     1      75.424 134.836 126.378  0.00  0.00    +0.116 A 
ATOM      7  N   UNL     1      74.639 135.953 126.189  0.00  0.00    -0.223 NA
ATOM      8  C   UNL     1      75.134 137.071 125.543  0.00  0.00    +0.220 A 
ATOM      9  N   UNL     1      74.360 138.203 125.335  0.00  0.00    -0.283 N 
ATOM     36  H   UNL     1      74.764 139.010 124.860  0.00  0.00    +0.155 HD
ATOM     37  N   UNL     1      76.403 137.079 125.085  0.00  0.00    -0.214 NA
BRANCH   4   3
ATOM      1  C   UNL     1      81.124 135.858 124.832  0.00  0.00    +0.020 A 
ATOM      2  C   UNL     1      79.811 135.710 125.415  0.00  0.00    +0.013 A 
ATOM      3  C   UNL     1      78.620 136.125 124.683  0.00  0.00    +0.019 A 
ATOM     38  C   UNL     1      78.794 136.690 123.354  0.00  0.00    +0.120 A 
ATOM     39  N   UNL     1      80.072 136.822 122.819  0.00  0.00    -0.263 NA
ATOM     40  C   UNL     1      81.225 136.428 123.514  0.00  0.00    +0.111 A 
ENDBRANCH   4   3
ENDBRANCH  10   9
BRANCH  12  13
ATOM     13  N   UNL     1      69.581 137.016 124.621  0.00  0.00    -0.281 N 
ATOM     14  C   UNL     1      68.580 137.632 123.887  0.00  0.00    +0.248 C 
ATOM     30  O   UNL     1      68.314 138.824 123.946  0.00  0.00    -0.270 OA
ATOM     31  H   UNL     1      69.570 135.996 124.626  0.00  0.00    +0.155 HD
BRANCH  14  15
ATOM     15  C   UNL     1      67.746 136.803 122.966  0.00  0.00    +0.037 A 
ATOM     16  C   UNL     1      66.742 137.415 122.091  0.00  0.00    +0.013 A 
ATOM     17  C   UNL     1      65.939 136.590 121.224  0.00  0.00    +0.005 A 
ATOM     18  C   UNL     1      66.137 135.143 121.227  0.00  0.00    -0.033 A 
ATOM     28  C   UNL     1      67.144 134.562 122.101  0.00  0.00    +0.005 A 
ATOM     29  C   UNL     1      67.932 135.368 122.953  0.00  0.00    +0.013 A 
BRANCH  18  19
ATOM     19  C   UNL     1      65.311 134.184 120.350  0.00  0.00    +0.119 C 
BRANCH  19  20
ATOM     20  N   UNL     1      65.489 132.719 120.582  0.00  0.00    -0.302 NA
ATOM     21  C   UNL     1      65.203 131.898 119.322  0.00  0.00    +0.066 C 
ATOM     22  C   UNL     1      65.416 130.371 119.577  0.00  0.00    -0.064 C 
ATOM     23  N   UNL     1      64.520 129.919 120.732  0.00  0.00    +0.379 N 
ATOM     24  C   UNL     1      64.675 128.472 120.936  0.00  0.00    -0.096 C 
ATOM     25  H   UNL     1      63.463 130.108 120.432  0.00  0.00    -0.082 HD
ATOM     26  C   UNL     1      64.796 130.732 121.988  0.00  0.00    -0.064 C 
ATOM     27  C   UNL     1      64.610 132.251 121.716  0.00  0.00    +0.066 C 
ENDBRANCH  19  20
ENDBRANCH  18  19
ENDBRANCH  14  15
ENDBRANCH  12  13
TORSDOF 6
ENDMDL
