MODEL 1
REMARK VINA RESULT:     -10.7      0.000      0.000
REMARK  Name = C:\Users\Docking\Desktop\test protocol\1iep_ligandH.pdb
REMARK  8 active torsions:
REMARK  status: ('A' for Active; 'I' for Inactive)
REMARK    1  A    between atoms: _5  and  _11
REMARK    2  A    between atoms: _19  and  _21
REMARK    3  A    between atoms: _22  and  _66
REMARK    4  A    between atoms: _27  and  _30
REMARK    5  A    between atoms: _32  and  _33
REMARK    6  A    between atoms: _38  and  _43
REMARK    7  A    between atoms: _43  and  _46
REMARK    8  A    between atoms: _53  and  _55
REMARK                            x       y       z     vdW  Elec       q    Type
REMARK                         _______ _______ _______ _____ _____    ______ ____
ROOT
ATOM     10  C   UNL     1      68.944 127.914 112.751  0.00  0.00    +0.038 A 
ATOM     11  C   UNL     1      68.068 128.312 113.793  0.00  0.00    +0.047 A 
ATOM     12  C   UNL     1      68.362 129.471 114.622  0.00  0.00    +0.035 A 
ATOM     32  C   UNL     1      69.557 130.203 114.360  0.00  0.00    +0.024 A 
ATOM     33  C   UNL     1      70.459 129.812 113.306  0.00  0.00    +0.007 A 
ATOM     34  C   UNL     1      70.175 128.668 112.487  0.00  0.00    -0.029 A 
ATOM     35  C   UNL     1      71.182 128.291 111.375  0.00  0.00    +0.045 C 
ENDROOT
BRANCH  10   9
ATOM      4  C   UNL     1      67.123 123.498 112.281  0.00  0.00    +0.077 A 
ATOM      5  C   UNL     1      66.832 123.405 113.683  0.00  0.00    +0.048 A 
ATOM      6  C   UNL     1      67.173 124.512 114.491  0.00  0.00    +0.116 A 
ATOM      7  N   UNL     1      67.761 125.625 113.929  0.00  0.00    -0.223 NA
ATOM      8  C   UNL     1      68.029 125.682 112.574  0.00  0.00    +0.220 A 
ATOM      9  N   UNL     1      68.612 126.794 111.986  0.00  0.00    -0.283 N 
ATOM     36  H   UNL     1      68.801 126.794 110.984  0.00  0.00    +0.155 HD
ATOM     37  N   UNL     1      67.714 124.637 111.781  0.00  0.00    -0.214 NA
BRANCH   4   3
ATOM      1  C   UNL     1      67.395 120.971 109.308  0.00  0.00    +0.020 A 
ATOM      2  C   UNL     1      67.737 122.027 110.233  0.00  0.00    +0.013 A 
ATOM      3  C   UNL     1      66.818 122.412 111.296  0.00  0.00    +0.019 A 
ATOM     38  C   UNL     1      65.551 121.704 111.397  0.00  0.00    +0.120 A 
ATOM     39  N   UNL     1      65.249 120.692 110.492  0.00  0.00    -0.263 NA
ATOM     40  C   UNL     1      66.124 120.313 109.463  0.00  0.00    +0.111 A 
ENDBRANCH   4   3
ENDBRANCH  10   9
BRANCH  12  13
ATOM     13  N   UNL     1      67.515 129.918 115.700  0.00  0.00    -0.281 N 
ATOM     14  C   UNL     1      67.091 129.198 116.805  0.00  0.00    +0.248 C 
ATOM     30  O   UNL     1      67.205 127.987 116.926  0.00  0.00    -0.270 OA
ATOM     31  H   UNL     1      67.187 130.882 115.640  0.00  0.00    +0.155 HD
BRANCH  14  15
ATOM     15  C   UNL     1      66.434 129.926 117.933  0.00  0.00    +0.037 A 
ATOM     16  C   UNL     1      66.006 129.223 119.145  0.00  0.00    +0.013 A 
ATOM     17  C   UNL     1      65.359 129.947 120.210  0.00  0.00    +0.005 A 
ATOM     18  C   UNL     1      65.137 131.384 120.068  0.00  0.00    -0.033 A 
ATOM     28  C   UNL     1      65.577 132.057 118.857  0.00  0.00    +0.005 A 
ATOM     29  C   UNL     1      66.210 131.351 117.811  0.00  0.00    +0.013 A 
BRANCH  18  19
ATOM     19  C   UNL     1      64.436 132.232 121.146  0.00  0.00    +0.119 C 
BRANCH  19  20
ATOM     20  N   UNL     1      64.455 133.715 120.968  0.00  0.00    -0.302 NA
ATOM     21  C   UNL     1      65.746 134.341 121.505  0.00  0.00    +0.066 C 
ATOM     22  C   UNL     1      65.759 135.889 121.291  0.00  0.00    -0.064 C 
ATOM     23  N   UNL     1      64.535 136.506 121.970  0.00  0.00    +0.379 N 
ATOM     24  C   UNL     1      64.575 137.968 121.821  0.00  0.00    -0.096 C 
ATOM     25  H   UNL     1      64.600 136.275 123.059  0.00  0.00    -0.082 HD
ATOM     26  C   UNL     1      63.247 135.887 121.444  0.00  0.00    -0.064 C 
ATOM     27  C   UNL     1      63.257 134.345 121.635  0.00  0.00    +0.066 C 
ENDBRANCH  19  20
ENDBRANCH  18  19
ENDBRANCH  14  15
ENDBRANCH  12  13
TORSDOF 6
ENDMDL
MODEL 2
REMARK VINA RESULT:     -10.6      8.245     15.233
REMARK  Name = C:\Users\Docking\Desktop\test protocol\1iep_ligandH.pdb
REMARK  8 active torsions:
REMARK  status: ('A' for Active; 'I' for Inactive)
REMARK    1  A    between atoms: _5  and  _11
REMARK    2  A    between atoms: _19  and  _21
REMARK    3  A    between atoms: _22  and  _66
REMARK    4  A    between atoms: _27  and  _30
REMARK    5  A    between atoms: _32  and  _33
REMARK    6  A    between atoms: _38  and  _43
REMARK    7  A    between atoms: _43  and  _46
REMARK    8  A    between atoms: _53  and  _55
REMARK                            x       y       z     vdW  Elec       q    Type
REMARK                         _______ _______ _______ _____ _____    ______ ____
ROOT
ATOM     10  C   UNL     1      71.931 137.900 125.519  0.00  0.00    +0.038 A 
ATOM     11  C   UNL     1      71.049 137.119 124.730  0.00  0.00    +0.047 A 
ATOM     12  C   UNL     1      69.638 137.009 125.064  0.00  0.00    +0.035 A 
ATOM     32  C   UNL     1      69.157 137.711 126.208  0.00  0.00    +0.024 A 
ATOM     33  C   UNL     1      70.040 138.509 127.022  0.00  0.00    +0.007 A 
ATOM     34  C   UNL     1      71.434 138.619 126.699  0.00  0.00    -0.029 A 
ATOM     35  C   UNL     1      72.335 139.484 127.611  0.00  0.00    +0.045 C 
ENDROOT
BRANCH  10   9
ATOM      4  C   UNL     1      76.342 136.032 125.229  0.00  0.00    +0.077 A 
ATOM      5  C   UNL     1      75.938 134.823 125.888  0.00  0.00    +0.048 A 
ATOM      6  C   UNL     1      74.587 134.725 126.292  0.00  0.00    +0.116 A 
ATOM      7  N   UNL     1      73.715 135.764 126.050  0.00  0.00    -0.223 NA
ATOM      8  C   UNL     1      74.138 136.917 125.413  0.00  0.00    +0.220 A 
ATOM      9  N   UNL     1      73.277 137.971 125.153  0.00  0.00    -0.283 N 
ATOM     36  H   UNL     1      73.629 138.807 124.688  0.00  0.00    +0.155 HD
ATOM     37  N   UNL     1      75.423 137.035 125.019  0.00  0.00    -0.214 NA
BRANCH   4   3
ATOM      1  C   UNL     1      79.385 137.217 123.076  0.00  0.00    +0.020 A 
ATOM      2  C   UNL     1      78.022 137.000 123.504  0.00  0.00    +0.013 A 
ATOM      3  C   UNL     1      77.735 136.284 124.740  0.00  0.00    +0.019 A 
ATOM     38  C   UNL     1      78.858 135.797 125.527  0.00  0.00    +0.120 A 
ATOM     39  N   UNL     1      80.159 136.020 125.089  0.00  0.00    -0.263 NA
ATOM     40  C   UNL     1      80.448 136.706 123.901  0.00  0.00    +0.111 A 
ENDBRANCH   4   3
ENDBRANCH  10   9
BRANCH  12  13
ATOM     13  N   UNL     1      68.696 136.223 124.305  0.00  0.00    -0.281 N 
ATOM     14  C   UNL     1      68.030 136.581 123.145  0.00  0.00    +0.248 C 
ATOM     30  O   UNL     1      67.980 137.717 122.698  0.00  0.00    -0.270 OA
ATOM     31  H   UNL     1      68.497 135.291 124.668  0.00  0.00    +0.155 HD
BRANCH  14  15
ATOM     15  C   UNL     1      67.301 135.526 122.377  0.00  0.00    +0.037 A 
ATOM     16  C   UNL     1      67.351 134.119 122.783  0.00  0.00    +0.013 A 
ATOM     17  C   UNL     1      66.653 133.119 122.014  0.00  0.00    +0.005 A 
ATOM     18  C   UNL     1      65.896 133.524 120.832  0.00  0.00    -0.033 A 
ATOM     28  C   UNL     1      65.859 134.927 120.455  0.00  0.00    +0.005 A 
ATOM     29  C   UNL     1      66.543 135.909 121.205  0.00  0.00    +0.013 A 
BRANCH  18  19
ATOM     19  C   UNL     1      65.139 132.522 119.940  0.00  0.00    +0.119 C 
BRANCH  19  20
ATOM     20  N   UNL     1      65.931 131.411 119.333  0.00  0.00    -0.302 NA
ATOM     21  C   UNL     1      66.214 131.652 117.848  0.00  0.00    +0.066 C 
ATOM     22  C   UNL     1      67.063 130.491 117.234  0.00  0.00    -0.064 C 
ATOM     23  N   UNL     1      66.330 129.164 117.438  0.00  0.00    +0.379 N 
ATOM     24  C   UNL     1      67.098 128.079 116.811  0.00  0.00    -0.096 C 
ATOM     25  H   UNL     1      65.350 129.235 116.910  0.00  0.00    -0.082 HD
ATOM     26  C   UNL     1      66.042 128.918 118.912  0.00  0.00    -0.064 C 
ATOM     27  C   UNL     1      65.223 130.091 119.519  0.00  0.00    +0.066 C 
ENDBRANCH  19  20
ENDBRANCH  18  19
ENDBRANCH  14  15
ENDBRANCH  12  13
TORSDOF 6
ENDMDL
MODEL 3
REMARK VINA RESULT:     -10.5     13.144     18.978
REMARK  Name = C:\Users\Docking\Desktop\test protocol\1iep_ligandH.pdb
REMARK  8 active torsions:
REMARK  status: ('A' for Active; 'I' for Inactive)
REMARK    1  A    between atoms: _5  and  _11
REMARK    2  A    between atoms: _19  and  _21
REMARK    3  A    between atoms: _22  and  _66
REMARK    4  A    between atoms: _27  and  _30
REMARK    5  A    between atoms: _32  and  _33
REMARK    6  A    between atoms: _38  and  _43
REMARK    7  A    between atoms: _43  and  _46
REMARK    8  A    between atoms: _53  and  _55
REMARK                            x       y       z     vdW  Elec       q    Type
REMARK                         _______ _______ _______ _____ _____    ______ ____
ROOT
ATOM     10  C   UNL     1      77.718 137.021 124.838  0.00  0.00    +0.038 A 
ATOM     11  C   UNL     1      78.480 136.390 123.821  0.00  0.00    +0.047 A 
ATOM     12  C   UNL     1      79.863 136.001 124.049  0.00  0.00    +0.035 A 
ATOM     32  C   UNL     1      80.438 136.268 125.326  0.00  0.00    +0.024 A 
ATOM     33  C   UNL     1      79.678 136.909 126.370  0.00  0.00    +0.007 A 
ATOM     34  C   UNL     1      78.314 137.297 126.150  0.00  0.00    -0.029 A 
ATOM     35  C   UNL     1      77.549 137.987 127.304  0.00  0.00    +0.045 C 
ENDROOT
BRANCH  10   9
ATOM      4  C   UNL     1      73.027 136.024 124.643  0.00  0.00    +0.077 A 
ATOM      5  C   UNL     1      73.234 134.679 125.100  0.00  0.00    +0.048 A 
ATOM      6  C   UNL     1      74.563 134.282 125.366  0.00  0.00    +0.116 A 
ATOM      7  N   UNL     1      75.601 135.171 125.187  0.00  0.00    -0.223 NA
ATOM      8  C   UNL     1      75.367 136.460 124.744  0.00  0.00    +0.220 A 
ATOM      9  N   UNL     1      76.395 137.373 124.564  0.00  0.00    -0.283 N 
ATOM     36  H   UNL     1      76.182 138.312 124.229  0.00  0.00    +0.155 HD
ATOM     37  N   UNL     1      74.107 136.863 124.481  0.00  0.00    -0.214 NA
BRANCH   4   3
ATOM      1  C   UNL     1      69.428 136.507 123.189  0.00  0.00    +0.020 A 
ATOM      2  C   UNL     1      70.716 135.913 123.467  0.00  0.00    +0.013 A 
ATOM      3  C   UNL     1      71.680 136.593 124.322  0.00  0.00    +0.019 A 
ATOM     38  C   UNL     1      71.307 137.882 124.886  0.00  0.00    +0.120 A 
ATOM     39  N   UNL     1      70.061 138.430 124.599  0.00  0.00    -0.263 NA
ATOM     40  C   UNL     1      69.125 137.785 123.776  0.00  0.00    +0.111 A 
ENDBRANCH   4   3
ENDBRANCH  10   9
BRANCH  12  13
ATOM     13  N   UNL     1      80.689 135.365 123.053  0.00  0.00    -0.281 N 
ATOM     14  C   UNL     1      81.535 135.968 122.137  0.00  0.00    +0.248 C 
ATOM     30  O   UNL     1      81.550 137.166 121.893  0.00  0.00    -0.270 OA
ATOM     31  H   UNL     1      80.643 134.347 123.018  0.00  0.00    +0.155 HD
BRANCH  14  15
ATOM     15  C   UNL     1      82.495 135.117 121.371  0.00  0.00    +0.037 A 
ATOM     16  C   UNL     1      82.401 133.655 121.396  0.00  0.00    +0.013 A 
ATOM     17  C   UNL     1      83.350 132.856 120.662  0.00  0.00    +0.005 A 
ATOM     18  C   UNL     1      84.402 133.519 119.895  0.00  0.00    -0.033 A 
ATOM     28  C   UNL     1      84.469 134.971 119.883  0.00  0.00    +0.005 A 
ATOM     29  C   UNL     1      83.541 135.757 120.602  0.00  0.00    +0.013 A 
BRANCH  18  19
ATOM     19  C   UNL     1      85.470 132.746 119.099  0.00  0.00    +0.119 C 
BRANCH  19  20
ATOM     20  N   UNL     1      85.063 132.181 117.778  0.00  0.00    -0.302 NA
ATOM     21  C   UNL     1      84.417 133.237 116.876  0.00  0.00    +0.066 C 
ATOM     22  C   UNL     1      84.018 132.634 115.490  0.00  0.00    -0.064 C 
ATOM     23  N   UNL     1      83.071 131.452 115.704  0.00  0.00    +0.379 N 
ATOM     24  C   UNL     1      82.648 130.920 114.401  0.00  0.00    -0.096 C 
ATOM     25  H   UNL     1      82.162 131.837 116.224  0.00  0.00    -0.082 HD
ATOM     26  C   UNL     1      83.704 130.399 116.602  0.00  0.00    -0.064 C 
ATOM     27  C   UNL     1      84.124 131.015 117.966  0.00  0.00    +0.066 C 
ENDBRANCH  19  20
ENDBRANCH  18  19
ENDBRANCH  14  15
ENDBRANCH  12  13
TORSDOF 6
ENDMDL
MODEL 4
REMARK VINA RESULT:     -10.3      1.866     12.228
REMARK  Name = C:\Users\Docking\Desktop\test protocol\1iep_ligandH.pdb
REMARK  8 active torsions:
REMARK  status: ('A' for Active; 'I' for Inactive)
REMARK    1  A    between atoms: _5  and  _11
REMARK    2  A    between atoms: _19  and  _21
REMARK    3  A    between atoms: _22  and  _66
REMARK    4  A    between atoms: _27  and  _30
REMARK    5  A    between atoms: _32  and  _33
REMARK    6  A    between atoms: _38  and  _43
REMARK    7  A    between atoms: _43  and  _46
REMARK    8  A    between atoms: _53  and  _55
REMARK                            x       y       z     vdW  Elec       q    Type
REMARK                         _______ _______ _______ _____ _____    ______ ____
ROOT
ATOM     10  C   UNL     1      68.458 130.444 115.071  0.00  0.00    +0.038 A 
ATOM     11  C   UNL     1      68.091 129.095 114.836  0.00  0.00    +0.047 A 
ATOM     12  C   UNL     1      68.653 128.346 113.723  0.00  0.00    +0.035 A 
ATOM     32  C   UNL     1      69.588 129.002 112.870  0.00  0.00    +0.024 A 
ATOM     33  C   UNL     1      69.971 130.374 113.094  0.00  0.00    +0.007 A 
ATOM     34  C   UNL     1      69.418 131.118 114.189  0.00  0.00    -0.029 A 
ATOM     35  C   UNL     1      69.860 132.588 114.378  0.00  0.00    +0.045 C 
ENDROOT
BRANCH  10   9
ATOM      4  C   UNL     1      66.036 130.504 119.215  0.00  0.00    +0.077 A 
ATOM      5  C   UNL     1      65.870 129.079 119.206  0.00  0.00    +0.048 A 
ATOM      6  C   UNL     1      66.416 128.369 118.114  0.00  0.00    +0.116 A 
ATOM      7  N   UNL     1      67.078 129.043 117.111  0.00  0.00    -0.223 NA
ATOM      8  C   UNL     1      67.219 130.418 117.149  0.00  0.00    +0.220 A 
ATOM      9  N   UNL     1      67.887 131.116 116.155  0.00  0.00    -0.283 N 
ATOM     36  H   UNL     1      67.964 132.131 116.216  0.00  0.00    +0.155 HD
ATOM     37  N   UNL     1      66.705 131.120 118.180  0.00  0.00    -0.214 NA
BRANCH   4   3
ATOM      1  C   UNL     1      65.145 131.974 122.728  0.00  0.00    +0.020 A 
ATOM      2  C   UNL     1      65.663 131.081 121.718  0.00  0.00    +0.013 A 
ATOM      3  C   UNL     1      65.518 131.394 120.302  0.00  0.00    +0.019 A 
ATOM     38  C   UNL     1      64.839 132.628 119.939  0.00  0.00    +0.120 A 
ATOM     39  N   UNL     1      64.349 133.469 120.934  0.00  0.00    -0.263 NA
ATOM     40  C   UNL     1      64.481 133.177 122.300  0.00  0.00    +0.111 A 
ENDBRANCH   4   3
ENDBRANCH  10   9
BRANCH  12  13
ATOM     13  N   UNL     1      68.313 126.975 113.429  0.00  0.00    -0.281 N 
ATOM     14  C   UNL     1      67.103 126.335 113.641  0.00  0.00    +0.248 C 
ATOM     30  O   UNL     1      66.190 126.787 114.316  0.00  0.00    -0.270 OA
ATOM     31  H   UNL     1      69.053 126.409 113.015  0.00  0.00    +0.155 HD
BRANCH  14  15
ATOM     15  C   UNL     1      66.880 124.991 113.026  0.00  0.00    +0.037 A 
ATOM     16  C   UNL     1      65.844 124.086 113.531  0.00  0.00    +0.013 A 
ATOM     17  C   UNL     1      65.662 122.788 112.931  0.00  0.00    +0.005 A 
ATOM     18  C   UNL     1      66.519 122.388 111.817  0.00  0.00    -0.033 A 
ATOM     28  C   UNL     1      67.535 123.307 111.332  0.00  0.00    +0.005 A 
ATOM     29  C   UNL     1      67.717 124.579 111.919  0.00  0.00    +0.013 A 
BRANCH  18  19
ATOM     19  C   UNL     1      66.409 121.014 111.130  0.00  0.00    +0.119 C 
BRANCH  19  20
ATOM     20  N   UNL     1      65.037 120.467 110.909  0.00  0.00    -0.302 NA
ATOM     21  C   UNL     1      64.498 119.750 112.150  0.00  0.00    +0.066 C 
ATOM     22  C   UNL     1      63.053 119.204 111.909  0.00  0.00    -0.064 C 
ATOM     23  N   UNL     1      63.060 118.265 110.702  0.00  0.00    +0.379 N 
ATOM     24  C   UNL     1      61.715 117.705 110.508  0.00  0.00    -0.096 C 
ATOM     25  H   UNL     1      63.749 117.420 110.935  0.00  0.00    -0.082 HD
ATOM     26  C   UNL     1      63.597 118.969 109.464  0.00  0.00    -0.064 C 
ATOM     27  C   UNL     1      65.022 119.534 109.723  0.00  0.00    +0.066 C 
ENDBRANCH  19  20
ENDBRANCH  18  19
ENDBRANCH  14  15
ENDBRANCH  12  13
TORSDOF 6
ENDMDL
MODEL 5
REMARK VINA RESULT:     -10.2      9.087     15.586
REMARK  Name = C:\Users\Docking\Desktop\test protocol\1iep_ligandH.pdb
REMARK  8 active torsions:
REMARK  status: ('A' for Active; 'I' for Inactive)
REMARK    1  A    between atoms: _5  and  _11
REMARK    2  A    between atoms: _19  and  _21
REMARK    3  A    between atoms: _22  and  _66
REMARK    4  A    between atoms: _27  and  _30
REMARK    5  A    between atoms: _32  and  _33
REMARK    6  A    between atoms: _38  and  _43
REMARK    7  A    between atoms: _43  and  _46
REMARK    8  A    between atoms: _53  and  _55
REMARK                            x       y       z     vdW  Elec       q    Type
REMARK                         _______ _______ _______ _____ _____    ______ ____
ROOT
ATOM     10  C   UNL     1      73.303 138.534 125.724  0.00  0.00    +0.038 A 
ATOM     11  C   UNL     1      72.289 137.950 124.921  0.00  0.00    +0.047 A 
ATOM     12  C   UNL     1      70.883 138.096 125.262  0.00  0.00    +0.035 A 
ATOM     32  C   UNL     1      70.544 138.845 126.427  0.00  0.00    +0.024 A 
ATOM     33  C   UNL     1      71.561 139.444 127.254  0.00  0.00    +0.007 A 
ATOM     34  C   UNL     1      72.950 139.301 126.924  0.00  0.00    -0.029 A 
ATOM     35  C   UNL     1      73.999 139.959 127.851  0.00  0.00    +0.045 C 
ENDROOT
BRANCH  10   9
ATOM      4  C   UNL     1      77.299 135.897 125.386  0.00  0.00    +0.077 A 
ATOM      5  C   UNL     1      76.685 134.775 126.035  0.00  0.00    +0.048 A 
ATOM      6  C   UNL     1      75.341 134.920 126.446  0.00  0.00    +0.116 A 
ATOM      7  N   UNL     1      74.671 136.103 126.220  0.00  0.00    -0.223 NA
ATOM      8  C   UNL     1      75.294 137.166 125.594  0.00  0.00    +0.220 A 
ATOM      9  N   UNL     1      74.638 138.363 125.349  0.00  0.00    -0.283 N 
ATOM     36  H   UNL     1      75.134 139.126 124.891  0.00  0.00    +0.155 HD
ATOM     37  N   UNL     1      76.578 137.054 125.193  0.00  0.00    -0.214 NA
BRANCH   4   3
ATOM      1  C   UNL     1      81.198 135.621 125.223  0.00  0.00    +0.020 A 
ATOM      2  C   UNL     1      79.853 135.608 125.751  0.00  0.00    +0.013 A 
ATOM      3  C   UNL     1      78.712 135.898 124.891  0.00  0.00    +0.019 A 
ATOM     38  C   UNL     1      78.968 136.198 123.491  0.00  0.00    +0.120 A 
ATOM     39  N   UNL     1      80.274 136.205 123.010  0.00  0.00    -0.263 NA
ATOM     40  C   UNL     1      81.380 135.929 123.829  0.00  0.00    +0.111 A 
ENDBRANCH   4   3
ENDBRANCH  10   9
BRANCH  12  13
ATOM     13  N   UNL     1      69.810 137.519 124.490  0.00  0.00    -0.281 N 
ATOM     14  C   UNL     1      69.651 137.528 123.114  0.00  0.00    +0.248 C 
ATOM     30  O   UNL     1      70.302 138.222 122.347  0.00  0.00    -0.270 OA
ATOM     31  H   UNL     1      69.079 137.047 125.023  0.00  0.00    +0.155 HD
BRANCH  14  15
ATOM     15  C   UNL     1      68.609 136.649 122.502  0.00  0.00    +0.037 A 
ATOM     16  C   UNL     1      67.998 135.554 123.259  0.00  0.00    +0.013 A 
ATOM     17  C   UNL     1      67.007 134.710 122.639  0.00  0.00    +0.005 A 
ATOM     18  C   UNL     1      66.619 134.960 121.253  0.00  0.00    -0.033 A 
ATOM     28  C   UNL     1      67.238 136.057 120.527  0.00  0.00    +0.005 A 
ATOM     29  C   UNL     1      68.210 136.885 121.131  0.00  0.00    +0.013 A 
BRANCH  18  19
ATOM     19  C   UNL     1      65.586 134.098 120.505  0.00  0.00    +0.119 C 
BRANCH  19  20
ATOM     20  N   UNL     1      65.662 132.619 120.697  0.00  0.00    -0.302 NA
ATOM     21  C   UNL     1      65.462 131.857 119.384  0.00  0.00    +0.066 C 
ATOM     22  C   UNL     1      65.568 130.313 119.600  0.00  0.00    -0.064 C 
ATOM     23  N   UNL     1      64.537 129.875 120.642  0.00  0.00    +0.379 N 
ATOM     24  C   UNL     1      64.594 128.414 120.804  0.00  0.00    -0.096 C 
ATOM     25  H   UNL     1      63.527 130.132 120.247  0.00  0.00    -0.082 HD
ATOM     26  C   UNL     1      64.727 130.629 121.950  0.00  0.00    -0.064 C 
ATOM     27  C   UNL     1      64.650 132.164 121.720  0.00  0.00    +0.066 C 
ENDBRANCH  19  20
ENDBRANCH  18  19
ENDBRANCH  14  15
ENDBRANCH  12  13
TORSDOF 6
ENDMDL
