MODEL 1
REMARK VINA RESULT:     -10.0      0.000      0.000
REMARK  Name = C:\Users\Docking\Desktop\test protocol\1iep_ligandH.pdb
REMARK  8 active torsions:
REMARK  status: ('A' for Active; 'I' for Inactive)
REMARK    1  A    between atoms: _5  and  _11
REMARK    2  A    between atoms: _19  and  _21
REMARK    3  A    between atoms: _22  and  _66
REMARK    4  A    between atoms: _27  and  _30
REMARK    5  A    between atoms: _32  and  _33
REMARK    6  A    between atoms: _38  and  _43
REMARK    7  A    between atoms: _43  and  _46
REMARK    8  A    between atoms: _53  and  _55
REMARK                            x       y       z     vdW  Elec       q    Type
REMARK                         _______ _______ _______ _____ _____    ______ ____
ROOT
ATOM     10  C   UNL     1      35.051  -3.515  54.666  0.00  0.00    +0.038 A 
ATOM     11  C   UNL     1      35.416  -2.265  54.103  0.00  0.00    +0.047 A 
ATOM     12  C   UNL     1      34.686  -1.050  54.431  0.00  0.00    +0.035 A 
ATOM     32  C   UNL     1      33.589  -1.145  55.337  0.00  0.00    +0.024 A 
ATOM     33  C   UNL     1      33.204  -2.407  55.916  0.00  0.00    +0.007 A 
ATOM     34  C   UNL     1      33.919  -3.609  55.595  0.00  0.00    -0.029 A 
ATOM     35  C   UNL     1      33.457  -4.936  56.242  0.00  0.00    +0.045 C 
ENDROOT
BRANCH  10   9
ATOM      4  C   UNL     1      36.009  -7.209  51.754  0.00  0.00    +0.077 A 
ATOM      5  C   UNL     1      34.935  -6.865  50.867  0.00  0.00    +0.048 A 
ATOM      6  C   UNL     1      34.155  -5.734  51.200  0.00  0.00    +0.116 A 
ATOM      7  N   UNL     1      34.438  -5.009  52.337  0.00  0.00    -0.223 NA
ATOM      8  C   UNL     1      35.480  -5.369  53.172  0.00  0.00    +0.220 A 
ATOM      9  N   UNL     1      35.787  -4.649  54.317  0.00  0.00    -0.283 N 
ATOM     36  H   UNL     1      36.559  -4.951  54.910  0.00  0.00    +0.155 HD
ATOM     37  N   UNL     1      36.238  -6.445  52.877  0.00  0.00    -0.214 NA
BRANCH   4   3
ATOM      1  C   UNL     1      38.990  -9.442  50.560  0.00  0.00    +0.020 A 
ATOM      2  C   UNL     1      38.140  -8.287  50.738  0.00  0.00    +0.013 A 
ATOM      3  C   UNL     1      36.924  -8.373  51.537  0.00  0.00    +0.019 A 
ATOM     38  C   UNL     1      36.594  -9.653  52.146  0.00  0.00    +0.120 A 
ATOM     39  N   UNL     1      37.430 -10.748  51.955  0.00  0.00    -0.263 NA
ATOM     40  C   UNL     1      38.602 -10.677  51.188  0.00  0.00    +0.111 A 
ENDBRANCH   4   3
ENDBRANCH  10   9
BRANCH  12  13
ATOM     13  N   UNL     1      35.006   0.245  53.885  0.00  0.00    -0.281 N 
ATOM     14  C   UNL     1      35.958   1.146  54.331  0.00  0.00    +0.248 C 
ATOM     30  O   UNL     1      36.538   1.064  55.404  0.00  0.00    -0.270 OA
ATOM     31  H   UNL     1      34.464   0.533  53.070  0.00  0.00    +0.155 HD
BRANCH  14  15
ATOM     15  C   UNL     1      36.308   2.315  53.468  0.00  0.00    +0.037 A 
ATOM     16  C   UNL     1      35.275   3.223  52.964  0.00  0.00    +0.013 A 
ATOM     17  C   UNL     1      35.638   4.333  52.118  0.00  0.00    +0.005 A 
ATOM     18  C   UNL     1      37.043   4.541  51.773  0.00  0.00    -0.033 A 
ATOM     28  C   UNL     1      38.047   3.628  52.292  0.00  0.00    +0.005 A 
ATOM     29  C   UNL     1      37.695   2.538  53.119  0.00  0.00    +0.013 A 
BRANCH  18  19
ATOM     19  C   UNL     1      37.519   5.687  50.860  0.00  0.00    +0.119 C 
BRANCH  19  20
ATOM     20  N   UNL     1      37.429   5.468  49.386  0.00  0.00    -0.302 NA
ATOM     21  C   UNL     1      38.790   5.131  48.771  0.00  0.00    +0.066 C 
ATOM     22  C   UNL     1      38.674   4.884  47.232  0.00  0.00    -0.064 C 
ATOM     23  N   UNL     1      38.069   6.119  46.563  0.00  0.00    +0.379 N 
ATOM     24  C   UNL     1      38.012   5.912  45.109  0.00  0.00    -0.096 C 
ATOM     25  H   UNL     1      38.754   6.978  46.756  0.00  0.00    -0.082 HD
ATOM     26  C   UNL     1      36.716   6.463  47.171  0.00  0.00    -0.064 C 
ATOM     27  C   UNL     1      36.838   6.678  48.705  0.00  0.00    +0.066 C 
ENDBRANCH  19  20
ENDBRANCH  18  19
ENDBRANCH  14  15
ENDBRANCH  12  13
TORSDOF 6
ENDMDL
MODEL 2
REMARK VINA RESULT:      -9.6      2.017     11.774
REMARK  Name = C:\Users\Docking\Desktop\test protocol\1iep_ligandH.pdb
REMARK  8 active torsions:
REMARK  status: ('A' for Active; 'I' for Inactive)
REMARK    1  A    between atoms: _5  and  _11
REMARK    2  A    between atoms: _19  and  _21
REMARK    3  A    between atoms: _22  and  _66
REMARK    4  A    between atoms: _27  and  _30
REMARK    5  A    between atoms: _32  and  _33
REMARK    6  A    between atoms: _38  and  _43
REMARK    7  A    between atoms: _43  and  _46
REMARK    8  A    between atoms: _53  and  _55
REMARK                            x       y       z     vdW  Elec       q    Type
REMARK                         _______ _______ _______ _____ _____    ______ ____
ROOT
ATOM     10  C   UNL     1      36.124   2.514  54.546  0.00  0.00    +0.038 A 
ATOM     11  C   UNL     1      36.044   1.116  54.320  0.00  0.00    +0.047 A 
ATOM     12  C   UNL     1      36.356   0.164  55.375  0.00  0.00    +0.035 A 
ATOM     32  C   UNL     1      36.744   0.672  56.649  0.00  0.00    +0.024 A 
ATOM     33  C   UNL     1      36.832   2.090  56.896  0.00  0.00    +0.007 A 
ATOM     34  C   UNL     1      36.528   3.033  55.858  0.00  0.00    -0.029 A 
ATOM     35  C   UNL     1      36.645   4.542  56.176  0.00  0.00    +0.045 C 
ENDROOT
BRANCH  10   9
ATOM      4  C   UNL     1      37.371   5.247  50.803  0.00  0.00    +0.077 A 
ATOM      5  C   UNL     1      38.763   4.941  50.967  0.00  0.00    +0.048 A 
ATOM      6  C   UNL     1      39.117   4.082  52.031  0.00  0.00    +0.116 A 
ATOM      7  N   UNL     1      38.143   3.572  52.863  0.00  0.00    -0.223 NA
ATOM      8  C   UNL     1      36.810   3.889  52.678  0.00  0.00    +0.220 A 
ATOM      9  N   UNL     1      35.813   3.382  53.497  0.00  0.00    -0.283 N 
ATOM     36  H   UNL     1      34.842   3.646  53.332  0.00  0.00    +0.155 HD
ATOM     37  N   UNL     1      36.446   4.709  51.669  0.00  0.00    -0.214 NA
BRANCH   4   3
ATOM      1  C   UNL     1      34.974   7.032  48.278  0.00  0.00    +0.020 A 
ATOM      2  C   UNL     1      35.436   6.153  49.327  0.00  0.00    +0.013 A 
ATOM      3  C   UNL     1      36.839   6.138  49.723  0.00  0.00    +0.019 A 
ATOM     38  C   UNL     1      37.755   7.033  49.032  0.00  0.00    +0.120 A 
ATOM     39  N   UNL     1      37.282   7.867  48.025  0.00  0.00    -0.263 NA
ATOM     40  C   UNL     1      35.934   7.889  47.634  0.00  0.00    +0.111 A 
ENDBRANCH   4   3
ENDBRANCH  10   9
BRANCH  12  13
ATOM     13  N   UNL     1      36.300  -1.266  55.203  0.00  0.00    -0.281 N 
ATOM     14  C   UNL     1      35.203  -2.041  54.861  0.00  0.00    +0.248 C 
ATOM     30  O   UNL     1      34.048  -1.641  54.860  0.00  0.00    -0.270 OA
ATOM     31  H   UNL     1      37.175  -1.769  55.351  0.00  0.00    +0.155 HD
BRANCH  14  15
ATOM     15  C   UNL     1      35.419  -3.469  54.478  0.00  0.00    +0.037 A 
ATOM     16  C   UNL     1      36.735  -3.951  54.049  0.00  0.00    +0.013 A 
ATOM     17  C   UNL     1      36.912  -5.330  53.669  0.00  0.00    +0.005 A 
ATOM     18  C   UNL     1      35.769  -6.239  53.719  0.00  0.00    -0.033 A 
ATOM     28  C   UNL     1      34.476  -5.736  54.154  0.00  0.00    +0.005 A 
ATOM     29  C   UNL     1      34.299  -4.384  54.526  0.00  0.00    +0.013 A 
BRANCH  18  19
ATOM     19  C   UNL     1      35.861  -7.721  53.312  0.00  0.00    +0.119 C 
BRANCH  19  20
ATOM     20  N   UNL     1      36.542  -8.034  52.021  0.00  0.00    -0.302 NA
ATOM     21  C   UNL     1      35.550  -8.152  50.860  0.00  0.00    +0.066 C 
ATOM     22  C   UNL     1      36.282  -8.458  49.513  0.00  0.00    -0.064 C 
ATOM     23  N   UNL     1      37.098  -9.743  49.660  0.00  0.00    +0.379 N 
ATOM     24  C   UNL     1      37.742 -10.065  48.378  0.00  0.00    -0.096 C 
ATOM     25  H   UNL     1      36.388 -10.569  49.899  0.00  0.00    -0.082 HD
ATOM     26  C   UNL     1      38.086  -9.636  50.813  0.00  0.00    -0.064 C 
ATOM     27  C   UNL     1      37.351  -9.303  52.142  0.00  0.00    +0.066 C 
ENDBRANCH  19  20
ENDBRANCH  18  19
ENDBRANCH  14  15
ENDBRANCH  12  13
TORSDOF 6
ENDMDL
MODEL 3
REMARK VINA RESULT:      -9.5      1.581      2.249
REMARK  Name = C:\Users\Docking\Desktop\test protocol\1iep_ligandH.pdb
REMARK  8 active torsions:
REMARK  status: ('A' for Active; 'I' for Inactive)
REMARK    1  A    between atoms: _5  and  _11
REMARK    2  A    between atoms: _19  and  _21
REMARK    3  A    between atoms: _22  and  _66
REMARK    4  A    between atoms: _27  and  _30
REMARK    5  A    between atoms: _32  and  _33
REMARK    6  A    between atoms: _38  and  _43
REMARK    7  A    between atoms: _43  and  _46
REMARK    8  A    between atoms: _53  and  _55
REMARK                            x       y       z     vdW  Elec       q    Type
REMARK                         _______ _______ _______ _____ _____    ______ ____
ROOT
ATOM     10  C   UNL     1      34.197  -2.504  53.611  0.00  0.00    +0.038 A 
ATOM     11  C   UNL     1      34.617  -1.291  53.009  0.00  0.00    +0.047 A 
ATOM     12  C   UNL     1      34.954  -0.128  53.816  0.00  0.00    +0.035 A 
ATOM     32  C   UNL     1      34.855  -0.237  55.233  0.00  0.00    +0.024 A 
ATOM     33  C   UNL     1      34.428  -1.463  55.862  0.00  0.00    +0.007 A 
ATOM     34  C   UNL     1      34.092  -2.612  55.072  0.00  0.00    -0.029 A 
ATOM     35  C   UNL     1      33.634  -3.898  55.799  0.00  0.00    +0.045 C 
ENDROOT
BRANCH  10   9
ATOM      4  C   UNL     1      35.349  -6.602  51.394  0.00  0.00    +0.077 A 
ATOM      5  C   UNL     1      36.692  -6.564  51.895  0.00  0.00    +0.048 A 
ATOM      6  C   UNL     1      37.049  -5.470  52.713  0.00  0.00    +0.116 A 
ATOM      7  N   UNL     1      36.123  -4.492  53.004  0.00  0.00    -0.223 NA
ATOM      8  C   UNL     1      34.835  -4.558  52.503  0.00  0.00    +0.220 A 
ATOM      9  N   UNL     1      33.885  -3.589  52.789  0.00  0.00    -0.283 N 
ATOM     36  H   UNL     1      32.948  -3.670  52.394  0.00  0.00    +0.155 HD
ATOM     37  N   UNL     1      34.470  -5.592  51.718  0.00  0.00    -0.214 NA
BRANCH   4   3
ATOM      1  C   UNL     1      33.077  -8.691  48.990  0.00  0.00    +0.020 A 
ATOM      2  C   UNL     1      33.542  -7.606  49.824  0.00  0.00    +0.013 A 
ATOM      3  C   UNL     1      34.820  -7.696  50.519  0.00  0.00    +0.019 A 
ATOM     38  C   UNL     1      35.610  -8.906  50.348  0.00  0.00    +0.120 A 
ATOM     39  N   UNL     1      35.136  -9.935  49.540  0.00  0.00    -0.263 NA
ATOM     40  C   UNL     1      33.907  -9.861  48.867  0.00  0.00    +0.111 A 
ENDBRANCH   4   3
ENDBRANCH  10   9
BRANCH  12  13
ATOM     13  N   UNL     1      35.379   1.133  53.260  0.00  0.00    -0.281 N 
ATOM     14  C   UNL     1      36.616   1.745  53.385  0.00  0.00    +0.248 C 
ATOM     30  O   UNL     1      37.482   1.399  54.175  0.00  0.00    -0.270 OA
ATOM     31  H   UNL     1      34.684   1.635  52.709  0.00  0.00    +0.155 HD
BRANCH  14  15
ATOM     15  C   UNL     1      36.931   2.919  52.516  0.00  0.00    +0.037 A 
ATOM     16  C   UNL     1      35.888   3.863  52.106  0.00  0.00    +0.013 A 
ATOM     17  C   UNL     1      36.216   4.978  51.253  0.00  0.00    +0.005 A 
ATOM     18  C   UNL     1      37.595   5.155  50.805  0.00  0.00    -0.033 A 
ATOM     28  C   UNL     1      38.611   4.207  51.231  0.00  0.00    +0.005 A 
ATOM     29  C   UNL     1      38.293   3.112  52.066  0.00  0.00    +0.013 A 
BRANCH  18  19
ATOM     19  C   UNL     1      38.032   6.304  49.877  0.00  0.00    +0.119 C 
BRANCH  19  20
ATOM     20  N   UNL     1      37.618   6.221  48.444  0.00  0.00    -0.302 NA
ATOM     21  C   UNL     1      38.559   5.332  47.626  0.00  0.00    +0.066 C 
ATOM     22  C   UNL     1      38.099   5.238  46.135  0.00  0.00    -0.064 C 
ATOM     23  N   UNL     1      38.025   6.644  45.537  0.00  0.00    +0.379 N 
ATOM     24  C   UNL     1      37.648   6.554  44.118  0.00  0.00    -0.096 C 
ATOM     25  H   UNL     1      39.046   7.088  45.588  0.00  0.00    -0.082 HD
ATOM     26  C   UNL     1      37.093   7.534  46.346  0.00  0.00    -0.064 C 
ATOM     27  C   UNL     1      37.542   7.598  47.833  0.00  0.00    +0.066 C 
ENDBRANCH  19  20
ENDBRANCH  18  19
ENDBRANCH  14  15
ENDBRANCH  12  13
TORSDOF 6
ENDMDL
MODEL 4
REMARK VINA RESULT:      -9.3      3.757      6.188
REMARK  Name = C:\Users\Docking\Desktop\test protocol\1iep_ligandH.pdb
REMARK  8 active torsions:
REMARK  status: ('A' for Active; 'I' for Inactive)
REMARK    1  A    between atoms: _5  and  _11
REMARK    2  A    between atoms: _19  and  _21
REMARK    3  A    between atoms: _22  and  _66
REMARK    4  A    between atoms: _27  and  _30
REMARK    5  A    between atoms: _32  and  _33
REMARK    6  A    between atoms: _38  and  _43
REMARK    7  A    between atoms: _43  and  _46
REMARK    8  A    between atoms: _53  and  _55
REMARK                            x       y       z     vdW  Elec       q    Type
REMARK                         _______ _______ _______ _____ _____    ______ ____
ROOT
ATOM     10  C   UNL     1      33.182  -3.056  55.086  0.00  0.00    +0.038 A 
ATOM     11  C   UNL     1      33.453  -1.762  54.572  0.00  0.00    +0.047 A 
ATOM     12  C   UNL     1      34.730  -1.451  53.950  0.00  0.00    +0.035 A 
ATOM     32  C   UNL     1      35.709  -2.484  53.865  0.00  0.00    +0.024 A 
ATOM     33  C   UNL     1      35.451  -3.804  54.383  0.00  0.00    +0.007 A 
ATOM     34  C   UNL     1      34.194  -4.116  55.000  0.00  0.00    -0.029 A 
ATOM     35  C   UNL     1      33.975  -5.547  55.544  0.00  0.00    +0.045 C 
ENDROOT
BRANCH  10   9
ATOM      4  C   UNL     1      28.680  -4.713  54.933  0.00  0.00    +0.077 A 
ATOM      5  C   UNL     1      28.808  -5.104  53.559  0.00  0.00    +0.048 A 
ATOM      6  C   UNL     1      30.046  -4.854  52.925  0.00  0.00    +0.116 A 
ATOM      7  N   UNL     1      31.073  -4.258  53.625  0.00  0.00    -0.223 NA
ATOM      8  C   UNL     1      30.916  -3.892  54.949  0.00  0.00    +0.220 A 
ATOM      9  N   UNL     1      31.939  -3.299  55.673  0.00  0.00    -0.283 N 
ATOM     36  H   UNL     1      31.781  -3.037  56.646  0.00  0.00    +0.155 HD
ATOM     37  N   UNL     1      29.743  -4.119  55.576  0.00  0.00    -0.214 NA
BRANCH   4   3
ATOM      1  C   UNL     1      25.065  -5.726  56.030  0.00  0.00    +0.020 A 
ATOM      2  C   UNL     1      26.241  -5.557  55.208  0.00  0.00    +0.013 A 
ATOM      3  C   UNL     1      27.435  -4.914  55.740  0.00  0.00    +0.019 A 
ATOM     38  C   UNL     1      27.407  -4.451  57.120  0.00  0.00    +0.120 A 
ATOM     39  N   UNL     1      26.260  -4.626  57.887  0.00  0.00    -0.263 NA
ATOM     40  C   UNL     1      25.104  -5.242  57.385  0.00  0.00    +0.111 A 
ENDBRANCH   4   3
ENDBRANCH  10   9
BRANCH  12  13
ATOM     13  N   UNL     1      35.065  -0.153  53.418  0.00  0.00    -0.281 N 
ATOM     14  C   UNL     1      35.755   0.872  54.044  0.00  0.00    +0.248 C 
ATOM     30  O   UNL     1      36.005   0.907  55.240  0.00  0.00    -0.270 OA
ATOM     31  H   UNL     1      34.755   0.032  52.464  0.00  0.00    +0.155 HD
BRANCH  14  15
ATOM     15  C   UNL     1      36.222   2.032  53.227  0.00  0.00    +0.037 A 
ATOM     16  C   UNL     1      37.647   2.354  53.108  0.00  0.00    +0.013 A 
ATOM     17  C   UNL     1      38.069   3.489  52.327  0.00  0.00    +0.005 A 
ATOM     18  C   UNL     1      37.064   4.311  51.657  0.00  0.00    -0.033 A 
ATOM     28  C   UNL     1      35.658   3.967  51.788  0.00  0.00    +0.005 A 
ATOM     29  C   UNL     1      35.240   2.855  52.553  0.00  0.00    +0.013 A 
BRANCH  18  19
ATOM     19  C   UNL     1      37.423   5.554  50.820  0.00  0.00    +0.119 C 
BRANCH  19  20
ATOM     20  N   UNL     1      37.365   5.418  49.334  0.00  0.00    -0.302 NA
ATOM     21  C   UNL     1      38.724   5.044  48.738  0.00  0.00    +0.066 C 
ATOM     22  C   UNL     1      38.640   4.883  47.185  0.00  0.00    -0.064 C 
ATOM     23  N   UNL     1      38.117   6.182  46.568  0.00  0.00    +0.379 N 
ATOM     24  C   UNL     1      38.092   6.054  45.104  0.00  0.00    -0.096 C 
ATOM     25  H   UNL     1      38.838   6.992  46.825  0.00  0.00    -0.082 HD
ATOM     26  C   UNL     1      36.766   6.562  47.158  0.00  0.00    -0.064 C 
ATOM     27  C   UNL     1      36.855   6.690  48.704  0.00  0.00    +0.066 C 
ENDBRANCH  19  20
ENDBRANCH  18  19
ENDBRANCH  14  15
ENDBRANCH  12  13
TORSDOF 6
ENDMDL
MODEL 5
REMARK VINA RESULT:      -9.2      4.652     11.794
REMARK  Name = C:\Users\Docking\Desktop\test protocol\1iep_ligandH.pdb
REMARK  8 active torsions:
REMARK  status: ('A' for Active; 'I' for Inactive)
REMARK    1  A    between atoms: _5  and  _11
REMARK    2  A    between atoms: _19  and  _21
REMARK    3  A    between atoms: _22  and  _66
REMARK    4  A    between atoms: _27  and  _30
REMARK    5  A    between atoms: _32  and  _33
REMARK    6  A    between atoms: _38  and  _43
REMARK    7  A    between atoms: _43  and  _46
REMARK    8  A    between atoms: _53  and  _55
REMARK                            x       y       z     vdW  Elec       q    Type
REMARK                         _______ _______ _______ _____ _____    ______ ____
ROOT
ATOM     10  C   UNL     1      37.869   1.702  53.334  0.00  0.00    +0.038 A 
ATOM     11  C   UNL     1      36.600   1.081  53.462  0.00  0.00    +0.047 A 
ATOM     12  C   UNL     1      36.136   0.574  54.744  0.00  0.00    +0.035 A 
ATOM     32  C   UNL     1      36.990   0.718  55.876  0.00  0.00    +0.024 A 
ATOM     33  C   UNL     1      38.284   1.345  55.764  0.00  0.00    +0.007 A 
ATOM     34  C   UNL     1      38.747   1.845  54.501  0.00  0.00    -0.029 A 
ATOM     35  C   UNL     1      40.145   2.503  54.438  0.00  0.00    +0.045 C 
ENDROOT
BRANCH  10   9
ATOM      4  C   UNL     1      37.578   4.822  49.698  0.00  0.00    +0.077 A 
ATOM      5  C   UNL     1      36.533   5.565  50.342  0.00  0.00    +0.048 A 
ATOM      6  C   UNL     1      36.094   5.107  51.604  0.00  0.00    +0.116 A 
ATOM      7  N   UNL     1      36.665   3.988  52.172  0.00  0.00    -0.223 NA
ATOM      8  C   UNL     1      37.669   3.294  51.523  0.00  0.00    +0.220 A 
ATOM      9  N   UNL     1      38.263   2.171  52.079  0.00  0.00    -0.283 N 
ATOM     36  H   UNL     1      38.996   1.682  51.566  0.00  0.00    +0.155 HD
ATOM     37  N   UNL     1      38.105   3.710  50.316  0.00  0.00    -0.214 NA
BRANCH   4   3
ATOM      1  C   UNL     1      39.779   4.849  46.465  0.00  0.00    +0.020 A 
ATOM      2  C   UNL     1      39.263   4.460  47.757  0.00  0.00    +0.013 A 
ATOM      3  C   UNL     1      38.152   5.182  48.363  0.00  0.00    +0.019 A 
ATOM     38  C   UNL     1      37.580   6.302  47.630  0.00  0.00    +0.120 A 
ATOM     39  N   UNL     1      38.099   6.654  46.388  0.00  0.00    -0.263 NA
ATOM     40  C   UNL     1      39.169   5.967  45.795  0.00  0.00    +0.111 A 
ENDBRANCH   4   3
ENDBRANCH  10   9
BRANCH  12  13
ATOM     13  N   UNL     1      34.861  -0.073  54.934  0.00  0.00    -0.281 N 
ATOM     14  C   UNL     1      34.593  -1.431  54.974  0.00  0.00    +0.248 C 
ATOM     30  O   UNL     1      35.382  -2.302  54.637  0.00  0.00    -0.270 OA
ATOM     31  H   UNL     1      34.059   0.546  55.053  0.00  0.00    +0.155 HD
BRANCH  14  15
ATOM     15  C   UNL     1      33.249  -1.888  55.441  0.00  0.00    +0.037 A 
ATOM     16  C   UNL     1      33.031  -3.262  55.902  0.00  0.00    +0.013 A 
ATOM     17  C   UNL     1      31.721  -3.682  56.331  0.00  0.00    +0.005 A 
ATOM     18  C   UNL     1      30.617  -2.724  56.303  0.00  0.00    -0.033 A 
ATOM     28  C   UNL     1      30.862  -1.367  55.846  0.00  0.00    +0.005 A 
ATOM     29  C   UNL     1      32.145  -0.952  55.423  0.00  0.00    +0.013 A 
BRANCH  18  19
ATOM     19  C   UNL     1      29.181  -3.091  56.723  0.00  0.00    +0.119 C 
BRANCH  19  20
ATOM     20  N   UNL     1      28.503  -4.182  55.961  0.00  0.00    -0.302 NA
ATOM     21  C   UNL     1      28.708  -5.552  56.613  0.00  0.00    +0.066 C 
ATOM     22  C   UNL     1      27.973  -6.678  55.816  0.00  0.00    -0.064 C 
ATOM     23  N   UNL     1      28.475  -6.686  54.371  0.00  0.00    +0.379 N 
ATOM     24  C   UNL     1      27.829  -7.781  53.633  0.00  0.00    -0.096 C 
ATOM     25  H   UNL     1      29.570  -6.894  54.395  0.00  0.00    -0.082 HD
ATOM     26  C   UNL     1      28.278  -5.327  53.715  0.00  0.00    -0.064 C 
ATOM     27  C   UNL     1      28.987  -4.211  54.532  0.00  0.00    +0.066 C 
ENDBRANCH  19  20
ENDBRANCH  18  19
ENDBRANCH  14  15
ENDBRANCH  12  13
TORSDOF 6
ENDMDL
