MODEL 1
REMARK VINA RESULT:      -9.2      0.000      0.000
REMARK  Name = C:\Users\Docking\Desktop\test protocol\1iep_ligandH.pdb
REMARK  8 active torsions:
REMARK  status: ('A' for Active; 'I' for Inactive)
REMARK    1  A    between atoms: _5  and  _11
REMARK    2  A    between atoms: _19  and  _21
REMARK    3  A    between atoms: _22  and  _66
REMARK    4  A    between atoms: _27  and  _30
REMARK    5  A    between atoms: _32  and  _33
REMARK    6  A    between atoms: _38  and  _43
REMARK    7  A    between atoms: _43  and  _46
REMARK    8  A    between atoms: _53  and  _55
REMARK                            x       y       z     vdW  Elec       q    Type
REMARK                         _______ _______ _______ _____ _____    ______ ____
ROOT
ATOM     10  C   UNL     1      34.849  -3.903  54.184  0.00  0.00    +0.038 A 
ATOM     11  C   UNL     1      35.714  -4.822  53.537  0.00  0.00    +0.047 A 
ATOM     12  C   UNL     1      35.783  -6.213  53.956  0.00  0.00    +0.035 A 
ATOM     32  C   UNL     1      34.953  -6.636  55.035  0.00  0.00    +0.024 A 
ATOM     33  C   UNL     1      34.068  -5.715  55.704  0.00  0.00    +0.007 A 
ATOM     34  C   UNL     1      33.998  -4.340  55.298  0.00  0.00    -0.029 A 
ATOM     35  C   UNL     1      33.037  -3.396  56.055  0.00  0.00    +0.045 C 
ENDROOT
BRANCH  10   9
ATOM      4  C   UNL     1      36.349   0.653  54.372  0.00  0.00    +0.077 A 
ATOM      5  C   UNL     1      37.239   0.376  55.463  0.00  0.00    +0.048 A 
ATOM      6  C   UNL     1      37.276  -0.949  55.951  0.00  0.00    +0.116 A 
ATOM      7  N   UNL     1      36.478  -1.918  55.382  0.00  0.00    -0.223 NA
ATOM      8  C   UNL     1      35.629  -1.618  54.333  0.00  0.00    +0.220 A 
ATOM      9  N   UNL     1      34.824  -2.578  53.741  0.00  0.00    -0.283 N 
ATOM     36  H   UNL     1      34.206  -2.315  52.974  0.00  0.00    +0.155 HD
ATOM     37  N   UNL     1      35.575  -0.359  53.850  0.00  0.00    -0.214 NA
BRANCH   4   3
ATOM      1  C   UNL     1      36.806   4.442  53.516  0.00  0.00    +0.020 A 
ATOM      2  C   UNL     1      36.988   3.159  54.155  0.00  0.00    +0.013 A 
ATOM      3  C   UNL     1      36.200   2.004  53.745  0.00  0.00    +0.019 A 
ATOM     38  C   UNL     1      35.229   2.181  52.676  0.00  0.00    +0.120 A 
ATOM     39  N   UNL     1      35.074   3.429  52.080  0.00  0.00    -0.263 NA
ATOM     40  C   UNL     1      35.826   4.548  52.467  0.00  0.00    +0.111 A 
ENDBRANCH   4   3
ENDBRANCH  10   9
BRANCH  12  13
ATOM     13  N   UNL     1      36.648  -7.190  53.342  0.00  0.00    -0.281 N 
ATOM     14  C   UNL     1      36.343  -8.077  52.323  0.00  0.00    +0.248 C 
ATOM     30  O   UNL     1      35.211  -8.314  51.928  0.00  0.00    -0.270 OA
ATOM     31  H   UNL     1      37.601  -7.232  53.703  0.00  0.00    +0.155 HD
BRANCH  14  15
ATOM     15  C   UNL     1      37.455  -8.821  51.657  0.00  0.00    +0.037 A 
ATOM     16  C   UNL     1      38.335  -8.163  50.687  0.00  0.00    +0.013 A 
ATOM     17  C   UNL     1      39.389  -8.908  50.046  0.00  0.00    +0.005 A 
ATOM     18  C   UNL     1      39.570 -10.320  50.374  0.00  0.00    -0.033 A 
ATOM     28  C   UNL     1      38.686 -10.946  51.343  0.00  0.00    +0.005 A 
ATOM     29  C   UNL     1      37.651 -10.220  51.973  0.00  0.00    +0.013 A 
BRANCH  18  19
ATOM     19  C   UNL     1      40.655 -11.198  49.722  0.00  0.00    +0.119 C 
BRANCH  19  20
ATOM     20  N   UNL     1      40.583 -11.390  48.243  0.00  0.00    -0.302 NA
ATOM     21  C   UNL     1      41.103 -12.765  47.816  0.00  0.00    +0.066 C 
ATOM     22  C   UNL     1      40.999 -12.957  46.268  0.00  0.00    -0.064 C 
ATOM     23  N   UNL     1      41.775 -11.842  45.565  0.00  0.00    +0.379 N 
ATOM     24  C   UNL     1      41.728 -12.053  44.110  0.00  0.00    -0.096 C 
ATOM     25  H   UNL     1      42.841 -11.919  45.883  0.00  0.00    -0.082 HD
ATOM     26  C   UNL     1      41.266 -10.471  45.986  0.00  0.00    -0.064 C 
ATOM     27  C   UNL     1      41.346 -10.301  47.529  0.00  0.00    +0.066 C 
ENDBRANCH  19  20
ENDBRANCH  18  19
ENDBRANCH  14  15
ENDBRANCH  12  13
TORSDOF 6
ENDMDL
MODEL 2
REMARK VINA RESULT:      -9.1     10.037     13.112
REMARK  Name = C:\Users\Docking\Desktop\test protocol\1iep_ligandH.pdb
REMARK  8 active torsions:
REMARK  status: ('A' for Active; 'I' for Inactive)
REMARK    1  A    between atoms: _5  and  _11
REMARK    2  A    between atoms: _19  and  _21
REMARK    3  A    between atoms: _22  and  _66
REMARK    4  A    between atoms: _27  and  _30
REMARK    5  A    between atoms: _32  and  _33
REMARK    6  A    between atoms: _38  and  _43
REMARK    7  A    between atoms: _43  and  _46
REMARK    8  A    between atoms: _53  and  _55
REMARK                            x       y       z     vdW  Elec       q    Type
REMARK                         _______ _______ _______ _____ _____    ______ ____
ROOT
ATOM     10  C   UNL     1      37.569   4.077  52.162  0.00  0.00    +0.038 A 
ATOM     11  C   UNL     1      38.857   3.985  52.748  0.00  0.00    +0.047 A 
ATOM     12  C   UNL     1      39.198   2.895  53.649  0.00  0.00    +0.035 A 
ATOM     32  C   UNL     1      38.203   1.913  53.928  0.00  0.00    +0.024 A 
ATOM     33  C   UNL     1      36.888   1.992  53.341  0.00  0.00    +0.007 A 
ATOM     34  C   UNL     1      36.546   3.066  52.454  0.00  0.00    -0.029 A 
ATOM     35  C   UNL     1      35.119   3.104  51.859  0.00  0.00    +0.045 C 
ENDROOT
BRANCH  10   9
ATOM      4  C   UNL     1      37.787   6.226  47.876  0.00  0.00    +0.077 A 
ATOM      5  C   UNL     1      38.530   5.141  47.303  0.00  0.00    +0.048 A 
ATOM      6  C   UNL     1      38.842   4.052  48.147  0.00  0.00    +0.116 A 
ATOM      7  N   UNL     1      38.436   4.058  49.464  0.00  0.00    -0.223 NA
ATOM      8  C   UNL     1      37.722   5.121  49.985  0.00  0.00    +0.220 A 
ATOM      9  N   UNL     1      37.297   5.145  51.304  0.00  0.00    -0.283 N 
ATOM     36  H   UNL     1      36.778   5.952  51.653  0.00  0.00    +0.155 HD
ATOM     37  N   UNL     1      37.412   6.174  49.200  0.00  0.00    -0.214 NA
BRANCH   4   3
ATOM      1  C   UNL     1      36.181   9.657  46.901  0.00  0.00    +0.020 A 
ATOM      2  C   UNL     1      36.547   8.499  47.682  0.00  0.00    +0.013 A 
ATOM      3  C   UNL     1      37.378   7.446  47.110  0.00  0.00    +0.019 A 
ATOM     38  C   UNL     1      37.825   7.598  45.734  0.00  0.00    +0.120 A 
ATOM     39  N   UNL     1      37.455   8.724  45.005  0.00  0.00    -0.263 NA
ATOM     40  C   UNL     1      36.655   9.743  45.545  0.00  0.00    +0.111 A 
ENDBRANCH   4   3
ENDBRANCH  10   9
BRANCH  12  13
ATOM     13  N   UNL     1      40.487   2.754  54.280  0.00  0.00    -0.281 N 
ATOM     14  C   UNL     1      41.518   1.898  53.929  0.00  0.00    +0.248 C 
ATOM     30  O   UNL     1      41.408   0.968  53.144  0.00  0.00    -0.270 OA
ATOM     31  H   UNL     1      40.659   3.358  55.084  0.00  0.00    +0.155 HD
BRANCH  14  15
ATOM     15  C   UNL     1      42.863   2.096  54.551  0.00  0.00    +0.037 A 
ATOM     16  C   UNL     1      43.002   2.447  55.966  0.00  0.00    +0.013 A 
ATOM     17  C   UNL     1      44.311   2.648  56.536  0.00  0.00    +0.005 A 
ATOM     18  C   UNL     1      45.492   2.498  55.689  0.00  0.00    -0.033 A 
ATOM     28  C   UNL     1      45.325   2.144  54.289  0.00  0.00    +0.005 A 
ATOM     29  C   UNL     1      44.044   1.947  53.727  0.00  0.00    +0.013 A 
BRANCH  18  19
ATOM     19  C   UNL     1      46.926   2.715  56.208  0.00  0.00    +0.119 C 
BRANCH  19  20
ATOM     20  N   UNL     1      47.123   2.731  57.688  0.00  0.00    -0.302 NA
ATOM     21  C   UNL     1      47.858   3.990  58.156  0.00  0.00    +0.066 C 
ATOM     22  C   UNL     1      48.035   4.002  59.709  0.00  0.00    -0.064 C 
ATOM     23  N   UNL     1      48.787   2.743  60.143  0.00  0.00    +0.379 N 
ATOM     24  C   UNL     1      49.007   2.779  61.596  0.00  0.00    -0.096 C 
ATOM     25  H   UNL     1      49.787   2.759  59.650  0.00  0.00    -0.082 HD
ATOM     26  C   UNL     1      48.065   1.486  59.680  0.00  0.00    -0.064 C 
ATOM     27  C   UNL     1      47.868   1.499  58.138  0.00  0.00    +0.066 C 
ENDBRANCH  19  20
ENDBRANCH  18  19
ENDBRANCH  14  15
ENDBRANCH  12  13
TORSDOF 6
ENDMDL
MODEL 3
REMARK VINA RESULT:      -9.0      9.420     11.143
REMARK  Name = C:\Users\Docking\Desktop\test protocol\1iep_ligandH.pdb
REMARK  8 active torsions:
REMARK  status: ('A' for Active; 'I' for Inactive)
REMARK    1  A    between atoms: _5  and  _11
REMARK    2  A    between atoms: _19  and  _21
REMARK    3  A    between atoms: _22  and  _66
REMARK    4  A    between atoms: _27  and  _30
REMARK    5  A    between atoms: _32  and  _33
REMARK    6  A    between atoms: _38  and  _43
REMARK    7  A    between atoms: _43  and  _46
REMARK    8  A    between atoms: _53  and  _55
REMARK                            x       y       z     vdW  Elec       q    Type
REMARK                         _______ _______ _______ _____ _____    ______ ____
ROOT
ATOM     10  C   UNL     1      37.704   4.279  52.196  0.00  0.00    +0.038 A 
ATOM     11  C   UNL     1      39.073   4.054  52.488  0.00  0.00    +0.047 A 
ATOM     12  C   UNL     1      39.486   2.988  53.388  0.00  0.00    +0.035 A 
ATOM     32  C   UNL     1      38.476   2.168  53.971  0.00  0.00    +0.024 A 
ATOM     33  C   UNL     1      37.079   2.383  53.686  0.00  0.00    +0.007 A 
ATOM     34  C   UNL     1      36.667   3.435  52.801  0.00  0.00    -0.029 A 
ATOM     35  C   UNL     1      35.155   3.624  52.537  0.00  0.00    +0.045 C 
ENDROOT
BRANCH  10   9
ATOM      4  C   UNL     1      37.735   6.353  47.868  0.00  0.00    +0.077 A 
ATOM      5  C   UNL     1      38.516   5.292  47.300  0.00  0.00    +0.048 A 
ATOM      6  C   UNL     1      38.896   4.235  48.157  0.00  0.00    +0.116 A 
ATOM      7  N   UNL     1      38.516   4.248  49.482  0.00  0.00    -0.223 NA
ATOM      8  C   UNL     1      37.764   5.287  49.998  0.00  0.00    +0.220 A 
ATOM      9  N   UNL     1      37.364   5.317  51.325  0.00  0.00    -0.283 N 
ATOM     36  H   UNL     1      36.816   6.105  51.669  0.00  0.00    +0.155 HD
ATOM     37  N   UNL     1      37.390   6.309  49.200  0.00  0.00    -0.214 NA
BRANCH   4   3
ATOM      1  C   UNL     1      35.858   9.622  46.824  0.00  0.00    +0.020 A 
ATOM      2  C   UNL     1      36.289   8.494  47.617  0.00  0.00    +0.013 A 
ATOM      3  C   UNL     1      37.254   7.538  47.089  0.00  0.00    +0.019 A 
ATOM     38  C   UNL     1      37.769   7.754  45.745  0.00  0.00    +0.120 A 
ATOM     39  N   UNL     1      37.335   8.849  45.004  0.00  0.00    -0.263 NA
ATOM     40  C   UNL     1      36.405   9.775  45.501  0.00  0.00    +0.111 A 
ENDBRANCH   4   3
ENDBRANCH  10   9
BRANCH  12  13
ATOM     13  N   UNL     1      40.861   2.717  53.728  0.00  0.00    -0.281 N 
ATOM     14  C   UNL     1      41.350   1.748  54.588  0.00  0.00    +0.248 C 
ATOM     30  O   UNL     1      40.662   1.101  55.364  0.00  0.00    -0.270 OA
ATOM     31  H   UNL     1      41.558   3.312  53.280  0.00  0.00    +0.155 HD
BRANCH  14  15
ATOM     15  C   UNL     1      42.818   1.466  54.597  0.00  0.00    +0.037 A 
ATOM     16  C   UNL     1      43.796   2.520  54.318  0.00  0.00    +0.013 A 
ATOM     17  C   UNL     1      45.205   2.217  54.317  0.00  0.00    +0.005 A 
ATOM     18  C   UNL     1      45.645   0.852  54.598  0.00  0.00    -0.033 A 
ATOM     28  C   UNL     1      44.653  -0.173  54.877  0.00  0.00    +0.005 A 
ATOM     29  C   UNL     1      43.271   0.120  54.878  0.00  0.00    +0.013 A 
BRANCH  18  19
ATOM     19  C   UNL     1      47.127   0.434  54.597  0.00  0.00    +0.119 C 
BRANCH  19  20
ATOM     20  N   UNL     1      47.425  -1.030  54.621  0.00  0.00    -0.302 NA
ATOM     21  C   UNL     1      48.045  -1.467  55.951  0.00  0.00    +0.066 C 
ATOM     22  C   UNL     1      48.329  -3.005  55.968  0.00  0.00    -0.064 C 
ATOM     23  N   UNL     1      49.246  -3.364  54.798  0.00  0.00    +0.379 N 
ATOM     24  C   UNL     1      49.562  -4.799  54.845  0.00  0.00    -0.096 C 
ATOM     25  H   UNL     1      50.200  -2.803  54.933  0.00  0.00    -0.082 HD
ATOM     26  C   UNL     1      48.639  -2.930  53.472  0.00  0.00    -0.064 C 
ATOM     27  C   UNL     1      48.333  -1.406  53.477  0.00  0.00    +0.066 C 
ENDBRANCH  19  20
ENDBRANCH  18  19
ENDBRANCH  14  15
ENDBRANCH  12  13
TORSDOF 6
ENDMDL
MODEL 4
REMARK VINA RESULT:      -8.7      9.662     14.266
REMARK  Name = C:\Users\Docking\Desktop\test protocol\1iep_ligandH.pdb
REMARK  8 active torsions:
REMARK  status: ('A' for Active; 'I' for Inactive)
REMARK    1  A    between atoms: _5  and  _11
REMARK    2  A    between atoms: _19  and  _21
REMARK    3  A    between atoms: _22  and  _66
REMARK    4  A    between atoms: _27  and  _30
REMARK    5  A    between atoms: _32  and  _33
REMARK    6  A    between atoms: _38  and  _43
REMARK    7  A    between atoms: _43  and  _46
REMARK    8  A    between atoms: _53  and  _55
REMARK                            x       y       z     vdW  Elec       q    Type
REMARK                         _______ _______ _______ _____ _____    ______ ____
ROOT
ATOM     10  C   UNL     1      39.730   1.983  53.942  0.00  0.00    +0.038 A 
ATOM     11  C   UNL     1      40.983   2.302  54.526  0.00  0.00    +0.047 A 
ATOM     12  C   UNL     1      41.273   1.973  55.913  0.00  0.00    +0.035 A 
ATOM     32  C   UNL     1      40.264   1.316  56.676  0.00  0.00    +0.024 A 
ATOM     33  C   UNL     1      38.985   0.985  56.100  0.00  0.00    +0.007 A 
ATOM     34  C   UNL     1      38.693   1.309  54.733  0.00  0.00    -0.029 A 
ATOM     35  C   UNL     1      37.302   0.937  54.169  0.00  0.00    +0.045 C 
ENDROOT
BRANCH  10   9
ATOM      4  C   UNL     1      38.072   4.943  50.548  0.00  0.00    +0.077 A 
ATOM      5  C   UNL     1      37.587   5.881  51.519  0.00  0.00    +0.048 A 
ATOM      6  C   UNL     1      37.779   5.561  52.882  0.00  0.00    +0.116 A 
ATOM      7  N   UNL     1      38.409   4.387  53.235  0.00  0.00    -0.223 NA
ATOM      8  C   UNL     1      38.862   3.503  52.273  0.00  0.00    +0.220 A 
ATOM      9  N   UNL     1      39.506   2.321  52.606  0.00  0.00    -0.283 N 
ATOM     36  H   UNL     1      39.819   1.692  51.867  0.00  0.00    +0.155 HD
ATOM     37  N   UNL     1      38.690   3.785  50.965  0.00  0.00    -0.214 NA
BRANCH   4   3
ATOM      1  C   UNL     1      38.626   4.671  46.685  0.00  0.00    +0.020 A 
ATOM      2  C   UNL     1      38.787   4.444  48.103  0.00  0.00    +0.013 A 
ATOM      3  C   UNL     1      37.947   5.141  49.069  0.00  0.00    +0.019 A 
ATOM     38  C   UNL     1      36.945   6.067  48.564  0.00  0.00    +0.120 A 
ATOM     39  N   UNL     1      36.813   6.266  47.193  0.00  0.00    -0.263 NA
ATOM     40  C   UNL     1      37.617   5.603  46.254  0.00  0.00    +0.111 A 
ENDBRANCH   4   3
ENDBRANCH  10   9
BRANCH  12  13
ATOM     13  N   UNL     1      42.524   2.279  56.561  0.00  0.00    -0.281 N 
ATOM     14  C   UNL     1      43.729   2.618  55.969  0.00  0.00    +0.248 C 
ATOM     30  O   UNL     1      43.971   2.501  54.777  0.00  0.00    -0.270 OA
ATOM     31  H   UNL     1      42.520   2.242  57.581  0.00  0.00    +0.155 HD
BRANCH  14  15
ATOM     15  C   UNL     1      44.831   3.152  56.828  0.00  0.00    +0.037 A 
ATOM     16  C   UNL     1      44.710   4.448  57.501  0.00  0.00    +0.013 A 
ATOM     17  C   UNL     1      45.794   4.947  58.309  0.00  0.00    +0.005 A 
ATOM     18  C   UNL     1      47.008   4.147  58.451  0.00  0.00    -0.033 A 
ATOM     28  C   UNL     1      47.099   2.863  57.777  0.00  0.00    +0.005 A 
ATOM     29  C   UNL     1      46.039   2.371  56.983  0.00  0.00    +0.013 A 
BRANCH  18  19
ATOM     19  C   UNL     1      48.223   4.611  59.277  0.00  0.00    +0.119 C 
BRANCH  19  20
ATOM     20  N   UNL     1      48.133   4.475  60.761  0.00  0.00    -0.302 NA
ATOM     21  C   UNL     1      47.219   3.318  61.177  0.00  0.00    +0.066 C 
ATOM     22  C   UNL     1      47.154   3.176  62.733  0.00  0.00    -0.064 C 
ATOM     23  N   UNL     1      46.673   4.493  63.343  0.00  0.00    +0.379 N 
ATOM     24  C   UNL     1      46.555   4.344  64.801  0.00  0.00    -0.096 C 
ATOM     25  H   UNL     1      45.654   4.699  62.941  0.00  0.00    -0.082 HD
ATOM     26  C   UNL     1      47.574   5.649  62.932  0.00  0.00    -0.064 C 
ATOM     27  C   UNL     1      47.655   5.763  61.384  0.00  0.00    +0.066 C 
ENDBRANCH  19  20
ENDBRANCH  18  19
ENDBRANCH  14  15
ENDBRANCH  12  13
TORSDOF 6
ENDMDL
MODEL 5
REMARK VINA RESULT:      -8.7      2.263      3.096
REMARK  Name = C:\Users\Docking\Desktop\test protocol\1iep_ligandH.pdb
REMARK  8 active torsions:
REMARK  status: ('A' for Active; 'I' for Inactive)
REMARK    1  A    between atoms: _5  and  _11
REMARK    2  A    between atoms: _19  and  _21
REMARK    3  A    between atoms: _22  and  _66
REMARK    4  A    between atoms: _27  and  _30
REMARK    5  A    between atoms: _32  and  _33
REMARK    6  A    between atoms: _38  and  _43
REMARK    7  A    between atoms: _43  and  _46
REMARK    8  A    between atoms: _53  and  _55
REMARK                            x       y       z     vdW  Elec       q    Type
REMARK                         _______ _______ _______ _____ _____    ______ ____
ROOT
ATOM     10  C   UNL     1      35.825  -4.308  54.314  0.00  0.00    +0.038 A 
ATOM     11  C   UNL     1      36.627  -4.920  53.317  0.00  0.00    +0.047 A 
ATOM     12  C   UNL     1      36.186  -6.124  52.631  0.00  0.00    +0.035 A 
ATOM     32  C   UNL     1      34.921  -6.678  52.983  0.00  0.00    +0.024 A 
ATOM     33  C   UNL     1      34.093  -6.069  53.994  0.00  0.00    +0.007 A 
ATOM     34  C   UNL     1      34.523  -4.883  54.677  0.00  0.00    -0.029 A 
ATOM     35  C   UNL     1      33.597  -4.277  55.757  0.00  0.00    +0.045 C 
ENDROOT
BRANCH  10   9
ATOM      4  C   UNL     1      35.967   0.459  54.852  0.00  0.00    +0.077 A 
ATOM      5  C   UNL     1      35.043   0.668  53.774  0.00  0.00    +0.048 A 
ATOM      6  C   UNL     1      34.560  -0.478  53.103  0.00  0.00    +0.116 A 
ATOM      7  N   UNL     1      34.976  -1.734  53.489  0.00  0.00    -0.223 NA
ATOM      8  C   UNL     1      35.870  -1.899  54.531  0.00  0.00    +0.220 A 
ATOM      9  N   UNL     1      36.297  -3.153  54.941  0.00  0.00    -0.283 N 
ATOM     36  H   UNL     1      36.963  -3.233  55.709  0.00  0.00    +0.155 HD
ATOM     37  N   UNL     1      36.347  -0.821  55.187  0.00  0.00    -0.214 NA
BRANCH   4   3
ATOM      1  C   UNL     1      36.954   4.011  56.159  0.00  0.00    +0.020 A 
ATOM      2  C   UNL     1      36.356   2.978  55.346  0.00  0.00    +0.013 A 
ATOM      3  C   UNL     1      36.564   1.570  55.659  0.00  0.00    +0.019 A 
ATOM     38  C   UNL     1      37.388   1.239  56.812  0.00  0.00    +0.120 A 
ATOM     39  N   UNL     1      37.953   2.256  57.575  0.00  0.00    -0.263 NA
ATOM     40  C   UNL     1      37.761   3.614  57.282  0.00  0.00    +0.111 A 
ENDBRANCH   4   3
ENDBRANCH  10   9
BRANCH  12  13
ATOM     13  N   UNL     1      36.961  -6.794  51.616  0.00  0.00    -0.281 N 
ATOM     14  C   UNL     1      37.361  -8.120  51.587  0.00  0.00    +0.248 C 
ATOM     30  O   UNL     1      37.292  -8.884  52.539  0.00  0.00    -0.270 OA
ATOM     31  H   UNL     1      37.251  -6.221  50.824  0.00  0.00    +0.155 HD
BRANCH  14  15
ATOM     15  C   UNL     1      37.932  -8.675  50.322  0.00  0.00    +0.037 A 
ATOM     16  C   UNL     1      37.066  -9.214  49.270  0.00  0.00    +0.013 A 
ATOM     17  C   UNL     1      37.644  -9.758  48.066  0.00  0.00    +0.005 A 
ATOM     18  C   UNL     1      39.096  -9.764  47.908  0.00  0.00    -0.033 A 
ATOM     28  C   UNL     1      39.931  -9.218  48.966  0.00  0.00    +0.005 A 
ATOM     29  C   UNL     1      39.369  -8.685  50.147  0.00  0.00    +0.013 A 
BRANCH  18  19
ATOM     19  C   UNL     1      39.800 -10.344  46.667  0.00  0.00    +0.119 C 
BRANCH  19  20
ATOM     20  N   UNL     1      40.171  -9.387  45.582  0.00  0.00    -0.302 NA
ATOM     21  C   UNL     1      38.941  -8.848  44.847  0.00  0.00    +0.066 C 
ATOM     22  C   UNL     1      39.346  -7.831  43.730  0.00  0.00    -0.064 C 
ATOM     23  N   UNL     1      40.307  -8.508  42.752  0.00  0.00    +0.379 N 
ATOM     24  C   UNL     1      40.644  -7.573  41.669  0.00  0.00    -0.096 C 
ATOM     25  H   UNL     1      39.772  -9.375  42.298  0.00  0.00    -0.082 HD
ATOM     26  C   UNL     1      41.532  -9.050  43.475  0.00  0.00    -0.064 C 
ATOM     27  C   UNL     1      41.117 -10.037  44.602  0.00  0.00    +0.066 C 
ENDBRANCH  19  20
ENDBRANCH  18  19
ENDBRANCH  14  15
ENDBRANCH  12  13
TORSDOF 6
ENDMDL
