MODEL 1
REMARK VINA RESULT:      -9.1      0.000      0.000
REMARK  Name = C:\Users\Docking\Desktop\test protocol\1iep_ligandH.pdb
REMARK  8 active torsions:
REMARK  status: ('A' for Active; 'I' for Inactive)
REMARK    1  A    between atoms: _5  and  _11
REMARK    2  A    between atoms: _19  and  _21
REMARK    3  A    between atoms: _22  and  _66
REMARK    4  A    between atoms: _27  and  _30
REMARK    5  A    between atoms: _32  and  _33
REMARK    6  A    between atoms: _38  and  _43
REMARK    7  A    between atoms: _43  and  _46
REMARK    8  A    between atoms: _53  and  _55
REMARK                            x       y       z     vdW  Elec       q    Type
REMARK                         _______ _______ _______ _____ _____    ______ ____
ROOT
ATOM     10  C   UNL     1     -88.158  25.937  -4.932  0.00  0.00    +0.038 A 
ATOM     11  C   UNL     1     -87.876  25.134  -3.797  0.00  0.00    +0.047 A 
ATOM     12  C   UNL     1     -88.920  24.360  -3.145  0.00  0.00    +0.035 A 
ATOM     32  C   UNL     1     -90.241  24.425  -3.677  0.00  0.00    +0.024 A 
ATOM     33  C   UNL     1     -90.546  25.237  -4.828  0.00  0.00    +0.007 A 
ATOM     34  C   UNL     1     -89.520  26.005  -5.475  0.00  0.00    -0.029 A 
ATOM     35  C   UNL     1     -89.905  26.863  -6.702  0.00  0.00    +0.045 C 
ENDROOT
BRANCH  10   9
ATOM      4  C   UNL     1     -84.371  26.284  -7.861  0.00  0.00    +0.077 A 
ATOM      5  C   UNL     1     -84.458  24.901  -8.233  0.00  0.00    +0.048 A 
ATOM      6  C   UNL     1     -85.487  24.133  -7.643  0.00  0.00    +0.116 A 
ATOM      7  N   UNL     1     -86.359  24.716  -6.749  0.00  0.00    -0.223 NA
ATOM      8  C   UNL     1     -86.246  26.052  -6.410  0.00  0.00    +0.220 A 
ATOM      9  N   UNL     1     -87.116  26.660  -5.519  0.00  0.00    -0.283 N 
ATOM     36  H   UNL     1     -86.995  27.646  -5.290  0.00  0.00    +0.155 HD
ATOM     37  N   UNL     1     -85.271  26.806  -6.959  0.00  0.00    -0.214 NA
BRANCH   4   3
ATOM      1  C   UNL     1     -81.067  27.736  -9.370  0.00  0.00    +0.020 A 
ATOM      2  C   UNL     1     -82.027  26.786  -8.855  0.00  0.00    +0.013 A 
ATOM      3  C   UNL     1     -83.340  27.225  -8.402  0.00  0.00    +0.019 A 
ATOM     38  C   UNL     1     -83.655  28.643  -8.484  0.00  0.00    +0.120 A 
ATOM     39  N   UNL     1     -82.711  29.536  -8.982  0.00  0.00    -0.263 NA
ATOM     40  C   UNL     1     -81.442  29.125  -9.420  0.00  0.00    +0.111 A 
ENDBRANCH   4   3
ENDBRANCH  10   9
BRANCH  12  13
ATOM     13  N   UNL     1     -88.695  23.533  -1.985  0.00  0.00    -0.281 N 
ATOM     14  C   UNL     1     -89.291  23.635  -0.739  0.00  0.00    +0.248 C 
ATOM     30  O   UNL     1     -89.955  24.590  -0.366  0.00  0.00    -0.270 OA
ATOM     31  H   UNL     1     -88.014  22.782  -2.097  0.00  0.00    +0.155 HD
BRANCH  14  15
ATOM     15  C   UNL     1     -89.111  22.519   0.240  0.00  0.00    +0.037 A 
ATOM     16  C   UNL     1     -90.231  22.026   1.045  0.00  0.00    +0.013 A 
ATOM     17  C   UNL     1     -90.027  20.961   1.994  0.00  0.00    +0.005 A 
ATOM     18  C   UNL     1     -88.695  20.380   2.142  0.00  0.00    -0.033 A 
ATOM     28  C   UNL     1     -87.602  20.885   1.327  0.00  0.00    +0.005 A 
ATOM     29  C   UNL     1     -87.798  21.929   0.397  0.00  0.00    +0.013 A 
BRANCH  18  19
ATOM     19  C   UNL     1     -88.380  19.254   3.145  0.00  0.00    +0.119 C 
BRANCH  19  20
ATOM     20  N   UNL     1     -87.718  19.645   4.426  0.00  0.00    -0.302 NA
ATOM     21  C   UNL     1     -87.151  18.434   5.172  0.00  0.00    +0.066 C 
ATOM     22  C   UNL     1     -86.443  18.863   6.498  0.00  0.00    -0.064 C 
ATOM     23  N   UNL     1     -87.434  19.626   7.378  0.00  0.00    +0.379 N 
ATOM     24  C   UNL     1     -86.788  19.980   8.651  0.00  0.00    -0.096 C 
ATOM     25  H   UNL     1     -88.280  18.938   7.609  0.00  0.00    -0.082 HD
ATOM     26  C   UNL     1     -88.005  20.830   6.643  0.00  0.00    -0.064 C 
ATOM     27  C   UNL     1     -88.680  20.396   5.312  0.00  0.00    +0.066 C 
ENDBRANCH  19  20
ENDBRANCH  18  19
ENDBRANCH  14  15
ENDBRANCH  12  13
TORSDOF 6
ENDMDL
MODEL 2
REMARK VINA RESULT:      -8.4     25.214     28.396
REMARK  Name = C:\Users\Docking\Desktop\test protocol\1iep_ligandH.pdb
REMARK  8 active torsions:
REMARK  status: ('A' for Active; 'I' for Inactive)
REMARK    1  A    between atoms: _5  and  _11
REMARK    2  A    between atoms: _19  and  _21
REMARK    3  A    between atoms: _22  and  _66
REMARK    4  A    between atoms: _27  and  _30
REMARK    5  A    between atoms: _32  and  _33
REMARK    6  A    between atoms: _38  and  _43
REMARK    7  A    between atoms: _43  and  _46
REMARK    8  A    between atoms: _53  and  _55
REMARK                            x       y       z     vdW  Elec       q    Type
REMARK                         _______ _______ _______ _____ _____    ______ ____
ROOT
ATOM     10  C   UNL     1     -86.092  46.300 -18.954  0.00  0.00    +0.038 A 
ATOM     11  C   UNL     1     -87.459  45.930 -19.031  0.00  0.00    +0.047 A 
ATOM     12  C   UNL     1     -88.487  46.907 -19.356  0.00  0.00    +0.035 A 
ATOM     32  C   UNL     1     -88.086  48.252 -19.601  0.00  0.00    +0.024 A 
ATOM     33  C   UNL     1     -86.701  48.647 -19.526  0.00  0.00    +0.007 A 
ATOM     34  C   UNL     1     -85.683  47.688 -19.203  0.00  0.00    -0.029 A 
ATOM     35  C   UNL     1     -84.215  48.168 -19.130  0.00  0.00    +0.045 C 
ENDROOT
BRANCH  10   9
ATOM      4  C   UNL     1     -82.845  42.992 -20.198  0.00  0.00    +0.077 A 
ATOM      5  C   UNL     1     -83.068  43.214 -21.597  0.00  0.00    +0.048 A 
ATOM      6  C   UNL     1     -84.032  44.183 -21.955  0.00  0.00    +0.116 A 
ATOM      7  N   UNL     1     -84.716  44.873 -20.978  0.00  0.00    -0.223 NA
ATOM      8  C   UNL     1     -84.478  44.633 -19.637  0.00  0.00    +0.220 A 
ATOM      9  N   UNL     1     -85.148  45.321 -18.637  0.00  0.00    -0.283 N 
ATOM     36  H   UNL     1     -84.949  45.110 -17.659  0.00  0.00    +0.155 HD
ATOM     37  N   UNL     1     -83.563  43.712 -19.269  0.00  0.00    -0.214 NA
BRANCH   4   3
ATOM      1  C   UNL     1     -80.636  39.797 -19.735  0.00  0.00    +0.020 A 
ATOM      2  C   UNL     1     -81.602  40.715 -20.293  0.00  0.00    +0.013 A 
ATOM      3  C   UNL     1     -81.856  42.004 -19.661  0.00  0.00    +0.019 A 
ATOM     38  C   UNL     1     -81.110  42.336 -18.457  0.00  0.00    +0.120 A 
ATOM     39  N   UNL     1     -80.187  41.431 -17.941  0.00  0.00    -0.263 NA
ATOM     40  C   UNL     1     -79.936  40.187 -18.540  0.00  0.00    +0.111 A 
ENDBRANCH   4   3
ENDBRANCH  10   9
BRANCH  12  13
ATOM     13  N   UNL     1     -89.891  46.591 -19.441  0.00  0.00    -0.281 N 
ATOM     14  C   UNL     1     -90.511  45.686 -20.287  0.00  0.00    +0.248 C 
ATOM     30  O   UNL     1     -89.975  45.164 -21.253  0.00  0.00    -0.270 OA
ATOM     31  H   UNL     1     -90.502  47.095 -18.798  0.00  0.00    +0.155 HD
BRANCH  14  15
ATOM     15  C   UNL     1     -91.937  45.320 -20.033  0.00  0.00    +0.037 A 
ATOM     16  C   UNL     1     -92.956  45.462 -21.076  0.00  0.00    +0.013 A 
ATOM     17  C   UNL     1     -94.328  45.118 -20.799  0.00  0.00    +0.005 A 
ATOM     18  C   UNL     1     -94.689  44.626 -19.471  0.00  0.00    -0.033 A 
ATOM     28  C   UNL     1     -93.657  44.489 -18.457  0.00  0.00    +0.005 A 
ATOM     29  C   UNL     1     -92.311  44.827 -18.724  0.00  0.00    +0.013 A 
BRANCH  18  19
ATOM     19  C   UNL     1     -96.132  44.254 -19.080  0.00  0.00    +0.119 C 
BRANCH  19  20
ATOM     20  N   UNL     1     -97.005  43.687 -20.150  0.00  0.00    -0.302 NA
ATOM     21  C   UNL     1     -98.490  43.774 -19.785  0.00  0.00    +0.066 C 
ATOM     22  C   UNL     1     -99.391  43.197 -20.925  0.00  0.00    -0.064 C 
ATOM     23  N   UNL     1     -98.986  41.749 -21.207  0.00  0.00    +0.379 N 
ATOM     24  C   UNL     1     -99.870  41.185 -22.238  0.00  0.00    -0.096 C 
ATOM     25  H   UNL     1     -99.144  41.165 -20.271  0.00  0.00    -0.082 HD
ATOM     26  C   UNL     1     -97.511  41.653 -21.568  0.00  0.00    -0.064 C 
ATOM     27  C   UNL     1     -96.626  42.256 -20.442  0.00  0.00    +0.066 C 
ENDBRANCH  19  20
ENDBRANCH  18  19
ENDBRANCH  14  15
ENDBRANCH  12  13
TORSDOF 6
ENDMDL
MODEL 3
REMARK VINA RESULT:      -8.0      3.535     13.588
REMARK  Name = C:\Users\Docking\Desktop\test protocol\1iep_ligandH.pdb
REMARK  8 active torsions:
REMARK  status: ('A' for Active; 'I' for Inactive)
REMARK    1  A    between atoms: _5  and  _11
REMARK    2  A    between atoms: _19  and  _21
REMARK    3  A    between atoms: _22  and  _66
REMARK    4  A    between atoms: _27  and  _30
REMARK    5  A    between atoms: _32  and  _33
REMARK    6  A    between atoms: _38  and  _43
REMARK    7  A    between atoms: _43  and  _46
REMARK    8  A    between atoms: _53  and  _55
REMARK                            x       y       z     vdW  Elec       q    Type
REMARK                         _______ _______ _______ _____ _____    ______ ____
ROOT
ATOM     10  C   UNL     1     -87.026  25.133  -3.967  0.00  0.00    +0.038 A 
ATOM     11  C   UNL     1     -85.751  25.528  -4.448  0.00  0.00    +0.047 A 
ATOM     12  C   UNL     1     -85.620  26.504  -5.518  0.00  0.00    +0.035 A 
ATOM     32  C   UNL     1     -86.809  27.060  -6.075  0.00  0.00    +0.024 A 
ATOM     33  C   UNL     1     -88.113  26.669  -5.599  0.00  0.00    +0.007 A 
ATOM     34  C   UNL     1     -88.248  25.705  -4.545  0.00  0.00    -0.029 A 
ATOM     35  C   UNL     1     -89.671  25.318  -4.078  0.00  0.00    +0.045 C 
ENDROOT
BRANCH  10   9
ATOM      4  C   UNL     1     -86.999  20.612  -2.356  0.00  0.00    +0.077 A 
ATOM      5  C   UNL     1     -86.868  20.078  -3.681  0.00  0.00    +0.048 A 
ATOM      6  C   UNL     1     -86.818  21.000  -4.750  0.00  0.00    +0.116 A 
ATOM      7  N   UNL     1     -86.894  22.354  -4.501  0.00  0.00    -0.223 NA
ATOM      8  C   UNL     1     -87.022  22.835  -3.211  0.00  0.00    +0.220 A 
ATOM      9  N   UNL     1     -87.093  24.192  -2.937  0.00  0.00    -0.283 N 
ATOM     36  H   UNL     1     -87.195  24.507  -1.972  0.00  0.00    +0.155 HD
ATOM     37  N   UNL     1     -87.074  21.975  -2.173  0.00  0.00    -0.214 NA
BRANCH   4   3
ATOM      1  C   UNL     1     -86.635  17.627   0.147  0.00  0.00    +0.020 A 
ATOM      2  C   UNL     1     -86.549  18.402  -1.070  0.00  0.00    +0.013 A 
ATOM      3  C   UNL     1     -87.063  19.765  -1.122  0.00  0.00    +0.019 A 
ATOM     38  C   UNL     1     -87.661  20.319   0.083  0.00  0.00    +0.120 A 
ATOM     39  N   UNL     1     -87.731  19.549   1.240  0.00  0.00    -0.263 NA
ATOM     40  C   UNL     1     -87.242  18.236   1.301  0.00  0.00    +0.111 A 
ENDBRANCH   4   3
ENDBRANCH  10   9
BRANCH  12  13
ATOM     13  N   UNL     1     -84.353  26.938  -6.053  0.00  0.00    -0.281 N 
ATOM     14  C   UNL     1     -83.742  26.533  -7.228  0.00  0.00    +0.248 C 
ATOM     30  O   UNL     1     -84.095  25.572  -7.896  0.00  0.00    -0.270 OA
ATOM     31  H   UNL     1     -83.846  27.627  -5.498  0.00  0.00    +0.155 HD
BRANCH  14  15
ATOM     15  C   UNL     1     -82.558  27.298  -7.727  0.00  0.00    +0.037 A 
ATOM     16  C   UNL     1     -81.200  26.761  -7.605  0.00  0.00    +0.013 A 
ATOM     17  C   UNL     1     -80.075  27.527  -8.078  0.00  0.00    +0.005 A 
ATOM     18  C   UNL     1     -80.303  28.839  -8.680  0.00  0.00    -0.033 A 
ATOM     28  C   UNL     1     -81.661  29.345  -8.794  0.00  0.00    +0.005 A 
ATOM     29  C   UNL     1     -82.767  28.597  -8.330  0.00  0.00    +0.013 A 
BRANCH  18  19
ATOM     19  C   UNL     1     -79.160  29.734  -9.194  0.00  0.00    +0.119 C 
BRANCH  19  20
ATOM     20  N   UNL     1     -78.094  29.081 -10.011  0.00  0.00    -0.302 NA
ATOM     21  C   UNL     1     -76.774  29.854  -9.957  0.00  0.00    +0.066 C 
ATOM     22  C   UNL     1     -75.664  29.145 -10.799  0.00  0.00    -0.064 C 
ATOM     23  N   UNL     1     -76.143  28.992 -12.244  0.00  0.00    +0.379 N 
ATOM     24  C   UNL     1     -75.079  28.378 -13.051  0.00  0.00    -0.096 C 
ATOM     25  H   UNL     1     -76.328  30.015 -12.648  0.00  0.00    -0.082 HD
ATOM     26  C   UNL     1     -77.457  28.227 -12.307  0.00  0.00    -0.064 C 
ATOM     27  C   UNL     1     -78.545  28.924 -11.443  0.00  0.00    +0.066 C 
ENDBRANCH  19  20
ENDBRANCH  18  19
ENDBRANCH  14  15
ENDBRANCH  12  13
TORSDOF 6
ENDMDL
MODEL 4
REMARK VINA RESULT:      -7.8     15.815     18.998
REMARK  Name = C:\Users\Docking\Desktop\test protocol\1iep_ligandH.pdb
REMARK  8 active torsions:
REMARK  status: ('A' for Active; 'I' for Inactive)
REMARK    1  A    between atoms: _5  and  _11
REMARK    2  A    between atoms: _19  and  _21
REMARK    3  A    between atoms: _22  and  _66
REMARK    4  A    between atoms: _27  and  _30
REMARK    5  A    between atoms: _32  and  _33
REMARK    6  A    between atoms: _38  and  _43
REMARK    7  A    between atoms: _43  and  _46
REMARK    8  A    between atoms: _53  and  _55
REMARK                            x       y       z     vdW  Elec       q    Type
REMARK                         _______ _______ _______ _____ _____    ______ ____
ROOT
ATOM     10  C   UNL     1     -81.339  31.667   8.210  0.00  0.00    +0.038 A 
ATOM     11  C   UNL     1     -80.758  32.950   8.046  0.00  0.00    +0.047 A 
ATOM     12  C   UNL     1     -79.447  33.259   8.596  0.00  0.00    +0.035 A 
ATOM     32  C   UNL     1     -78.754  32.235   9.305  0.00  0.00    +0.024 A 
ATOM     33  C   UNL     1     -79.330  30.925   9.482  0.00  0.00    +0.007 A 
ATOM     34  C   UNL     1     -80.624  30.616   8.944  0.00  0.00    -0.029 A 
ATOM     35  C   UNL     1     -81.196  29.197   9.169  0.00  0.00    +0.045 C 
ENDROOT
BRANCH  10   9
ATOM      4  C   UNL     1     -84.200  30.418   4.564  0.00  0.00    +0.077 A 
ATOM      5  C   UNL     1     -83.090  30.259   3.670  0.00  0.00    +0.048 A 
ATOM      6  C   UNL     1     -81.800  30.515   4.185  0.00  0.00    +0.116 A 
ATOM      7  N   UNL     1     -81.643  30.900   5.499  0.00  0.00    -0.223 NA
ATOM      8  C   UNL     1     -82.735  31.046   6.334  0.00  0.00    +0.220 A 
ATOM      9  N   UNL     1     -82.600  31.426   7.661  0.00  0.00    -0.283 N 
ATOM     36  H   UNL     1     -83.431  31.529   8.243  0.00  0.00    +0.155 HD
ATOM     37  N   UNL     1     -83.978  30.809   5.866  0.00  0.00    -0.214 NA
BRANCH   4   3
ATOM      1  C   UNL     1     -87.646  28.701   3.869  0.00  0.00    +0.020 A 
ATOM      2  C   UNL     1     -86.267  28.876   4.264  0.00  0.00    +0.013 A 
ATOM      3  C   UNL     1     -85.625  30.181   4.169  0.00  0.00    +0.019 A 
ATOM     38  C   UNL     1     -86.412  31.298   3.668  0.00  0.00    +0.120 A 
ATOM     39  N   UNL     1     -87.738  31.099   3.294  0.00  0.00    -0.263 NA
ATOM     40  C   UNL     1     -88.365  29.847   3.379  0.00  0.00    +0.111 A 
ENDBRANCH   4   3
ENDBRANCH  10   9
BRANCH  12  13
ATOM     13  N   UNL     1     -78.810  34.546   8.468  0.00  0.00    -0.281 N 
ATOM     14  C   UNL     1     -78.192  35.083   7.351  0.00  0.00    +0.248 C 
ATOM     30  O   UNL     1     -77.904  34.448   6.348  0.00  0.00    -0.270 OA
ATOM     31  H   UNL     1     -78.816  35.132   9.303  0.00  0.00    +0.155 HD
BRANCH  14  15
ATOM     15  C   UNL     1     -77.828  36.533   7.354  0.00  0.00    +0.037 A 
ATOM     16  C   UNL     1     -78.219  37.412   8.459  0.00  0.00    +0.013 A 
ATOM     17  C   UNL     1     -77.869  38.810   8.430  0.00  0.00    +0.005 A 
ATOM     18  C   UNL     1     -77.123  39.338   7.290  0.00  0.00    -0.033 A 
ATOM     28  C   UNL     1     -76.744  38.442   6.209  0.00  0.00    +0.005 A 
ATOM     29  C   UNL     1     -77.085  37.072   6.235  0.00  0.00    +0.013 A 
BRANCH  18  19
ATOM     19  C   UNL     1     -76.727  40.821   7.164  0.00  0.00    +0.119 C 
BRANCH  19  20
ATOM     20  N   UNL     1     -77.824  41.804   6.920  0.00  0.00    -0.302 NA
ATOM     21  C   UNL     1     -78.442  41.642   5.528  0.00  0.00    +0.066 C 
ATOM     22  C   UNL     1     -79.603  42.663   5.299  0.00  0.00    -0.064 C 
ATOM     23  N   UNL     1     -79.075  44.085   5.495  0.00  0.00    +0.379 N 
ATOM     24  C   UNL     1     -80.150  45.050   5.223  0.00  0.00    -0.096 C 
ATOM     25  H   UNL     1     -78.270  44.253   4.741  0.00  0.00    -0.082 HD
ATOM     26  C   UNL     1     -78.456  44.254   6.875  0.00  0.00    -0.064 C 
ATOM     27  C   UNL     1     -77.323  43.215   7.104  0.00  0.00    +0.066 C 
ENDBRANCH  19  20
ENDBRANCH  18  19
ENDBRANCH  14  15
ENDBRANCH  12  13
TORSDOF 6
ENDMDL
MODEL 5
REMARK VINA RESULT:      -7.7      7.143     13.633
REMARK  Name = C:\Users\Docking\Desktop\test protocol\1iep_ligandH.pdb
REMARK  8 active torsions:
REMARK  status: ('A' for Active; 'I' for Inactive)
REMARK    1  A    between atoms: _5  and  _11
REMARK    2  A    between atoms: _19  and  _21
REMARK    3  A    between atoms: _22  and  _66
REMARK    4  A    between atoms: _27  and  _30
REMARK    5  A    between atoms: _32  and  _33
REMARK    6  A    between atoms: _38  and  _43
REMARK    7  A    between atoms: _43  and  _46
REMARK    8  A    between atoms: _53  and  _55
REMARK                            x       y       z     vdW  Elec       q    Type
REMARK                         _______ _______ _______ _____ _____    ______ ____
ROOT
ATOM     10  C   UNL     1     -76.627  31.718  -9.099  0.00  0.00    +0.038 A 
ATOM     11  C   UNL     1     -77.801  31.080  -8.626  0.00  0.00    +0.047 A 
ATOM     12  C   UNL     1     -78.380  29.949  -9.335  0.00  0.00    +0.035 A 
ATOM     32  C   UNL     1     -77.735  29.493 -10.522  0.00  0.00    +0.024 A 
ATOM     33  C   UNL     1     -76.541  30.132 -11.017  0.00  0.00    +0.007 A 
ATOM     34  C   UNL     1     -75.967  31.249 -10.323  0.00  0.00    -0.029 A 
ATOM     35  C   UNL     1     -74.689  31.898 -10.904  0.00  0.00    +0.045 C 
ENDROOT
BRANCH  10   9
ATOM      4  C   UNL     1     -73.439  33.667  -6.086  0.00  0.00    +0.077 A 
ATOM      5  C   UNL     1     -72.753  32.419  -5.910  0.00  0.00    +0.048 A 
ATOM      6  C   UNL     1     -73.257  31.298  -6.608  0.00  0.00    +0.116 A 
ATOM      7  N   UNL     1     -74.365  31.427  -7.418  0.00  0.00    -0.223 NA
ATOM      8  C   UNL     1     -75.003  32.645  -7.564  0.00  0.00    +0.220 A 
ATOM      9  N   UNL     1     -76.114  32.800  -8.379  0.00  0.00    -0.283 N 
ATOM     36  H   UNL     1     -76.561  33.713  -8.454  0.00  0.00    +0.155 HD
ATOM     37  N   UNL     1     -74.542  33.730  -6.907  0.00  0.00    -0.214 NA
BRANCH   4   3
ATOM      1  C   UNL     1     -71.593  37.011  -5.243  0.00  0.00    +0.020 A 
ATOM      2  C   UNL     1     -71.953  35.789  -5.925  0.00  0.00    +0.013 A 
ATOM      3  C   UNL     1     -73.025  34.942  -5.419  0.00  0.00    +0.019 A 
ATOM     38  C   UNL     1     -73.720  35.363  -4.211  0.00  0.00    +0.120 A 
ATOM     39  N   UNL     1     -73.350  36.544  -3.575  0.00  0.00    -0.263 NA
ATOM     40  C   UNL     1     -72.318  37.366  -4.052  0.00  0.00    +0.111 A 
ENDBRANCH   4   3
ENDBRANCH  10   9
BRANCH  12  13
ATOM     13  N   UNL     1     -79.576  29.266  -8.907  0.00  0.00    -0.281 N 
ATOM     14  C   UNL     1     -80.884  29.518  -9.288  0.00  0.00    +0.248 C 
ATOM     30  O   UNL     1     -81.247  30.515  -9.894  0.00  0.00    -0.270 OA
ATOM     31  H   UNL     1     -79.442  28.503  -8.243  0.00  0.00    +0.155 HD
BRANCH  14  15
ATOM     15  C   UNL     1     -81.944  28.527  -8.931  0.00  0.00    +0.037 A 
ATOM     16  C   UNL     1     -81.755  27.094  -9.167  0.00  0.00    +0.013 A 
ATOM     17  C   UNL     1     -82.800  26.161  -8.828  0.00  0.00    +0.005 A 
ATOM     18  C   UNL     1     -84.045  26.660  -8.248  0.00  0.00    -0.033 A 
ATOM     28  C   UNL     1     -84.204  28.086  -8.020  0.00  0.00    +0.005 A 
ATOM     29  C   UNL     1     -83.182  29.004  -8.351  0.00  0.00    +0.013 A 
BRANCH  18  19
ATOM     19  C   UNL     1     -85.222  25.739  -7.877  0.00  0.00    +0.119 C 
BRANCH  19  20
ATOM     20  N   UNL     1     -86.099  26.172  -6.748  0.00  0.00    -0.302 NA
ATOM     21  C   UNL     1     -85.925  25.285  -5.512  0.00  0.00    +0.066 C 
ATOM     22  C   UNL     1     -86.833  25.766  -4.334  0.00  0.00    -0.064 C 
ATOM     23  N   UNL     1     -88.293  25.778  -4.791  0.00  0.00    +0.379 N 
ATOM     24  C   UNL     1     -89.155  26.175  -3.668  0.00  0.00    -0.096 C 
ATOM     25  H   UNL     1     -88.567  24.736  -5.076  0.00  0.00    -0.082 HD
ATOM     26  C   UNL     1     -88.474  26.656  -6.021  0.00  0.00    -0.064 C 
ATOM     27  C   UNL     1     -87.546  26.188  -7.176  0.00  0.00    +0.066 C 
ENDBRANCH  19  20
ENDBRANCH  18  19
ENDBRANCH  14  15
ENDBRANCH  12  13
TORSDOF 6
ENDMDL
