MODEL 1
REMARK VINA RESULT:      -9.0      0.000      0.000
REMARK  Name = C:\Users\Docking\Desktop\test protocol\1iep_ligandH.pdb
REMARK  8 active torsions:
REMARK  status: ('A' for Active; 'I' for Inactive)
REMARK    1  A    between atoms: _5  and  _11
REMARK    2  A    between atoms: _19  and  _21
REMARK    3  A    between atoms: _22  and  _66
REMARK    4  A    between atoms: _27  and  _30
REMARK    5  A    between atoms: _32  and  _33
REMARK    6  A    between atoms: _38  and  _43
REMARK    7  A    between atoms: _43  and  _46
REMARK    8  A    between atoms: _53  and  _55
REMARK                            x       y       z     vdW  Elec       q    Type
REMARK                         _______ _______ _______ _____ _____    ______ ____
ROOT
ATOM     10  C   UNL     1     -88.098  26.031  -4.938  0.00  0.00    +0.038 A 
ATOM     11  C   UNL     1     -87.802  25.296  -3.761  0.00  0.00    +0.047 A 
ATOM     12  C   UNL     1     -88.832  24.535  -3.071  0.00  0.00    +0.035 A 
ATOM     32  C   UNL     1     -90.152  24.543  -3.608  0.00  0.00    +0.024 A 
ATOM     33  C   UNL     1     -90.470  25.286  -4.803  0.00  0.00    +0.007 A 
ATOM     34  C   UNL     1     -89.459  26.040  -5.486  0.00  0.00    -0.029 A 
ATOM     35  C   UNL     1     -89.858  26.823  -6.759  0.00  0.00    +0.045 C 
ENDROOT
BRANCH  10   9
ATOM      4  C   UNL     1     -84.356  26.319  -7.930  0.00  0.00    +0.077 A 
ATOM      5  C   UNL     1     -84.438  24.926  -8.261  0.00  0.00    +0.048 A 
ATOM      6  C   UNL     1     -85.452  24.168  -7.634  0.00  0.00    +0.116 A 
ATOM      7  N   UNL     1     -86.316  24.770  -6.744  0.00  0.00    -0.223 NA
ATOM      8  C   UNL     1     -86.208  26.116  -6.446  0.00  0.00    +0.220 A 
ATOM      9  N   UNL     1     -87.070  26.744  -5.560  0.00  0.00    -0.283 N 
ATOM     36  H   UNL     1     -86.953  27.737  -5.361  0.00  0.00    +0.155 HD
ATOM     37  N   UNL     1     -85.246  26.861  -7.030  0.00  0.00    -0.214 NA
BRANCH   4   3
ATOM      1  C   UNL     1     -81.144  27.735  -9.657  0.00  0.00    +0.020 A 
ATOM      2  C   UNL     1     -82.092  26.792  -9.109  0.00  0.00    +0.013 A 
ATOM      3  C   UNL     1     -83.340  27.252  -8.512  0.00  0.00    +0.019 A 
ATOM     38  C   UNL     1     -83.601  28.683  -8.487  0.00  0.00    +0.120 A 
ATOM     39  N   UNL     1     -82.669  29.568  -9.022  0.00  0.00    -0.263 NA
ATOM     40  C   UNL     1     -81.464  29.137  -9.597  0.00  0.00    +0.111 A 
ENDBRANCH   4   3
ENDBRANCH  10   9
BRANCH  12  13
ATOM     13  N   UNL     1     -88.593  23.777  -1.868  0.00  0.00    -0.281 N 
ATOM     14  C   UNL     1     -89.158  23.963  -0.617  0.00  0.00    +0.248 C 
ATOM     30  O   UNL     1     -89.798  24.951  -0.289  0.00  0.00    -0.270 OA
ATOM     31  H   UNL     1     -87.927  23.009  -1.949  0.00  0.00    +0.155 HD
BRANCH  14  15
ATOM     15  C   UNL     1     -88.973  22.907   0.424  0.00  0.00    +0.037 A 
ATOM     16  C   UNL     1     -87.656  22.635   1.005  0.00  0.00    +0.013 A 
ATOM     17  C   UNL     1     -87.503  21.598   1.995  0.00  0.00    +0.005 A 
ATOM     18  C   UNL     1     -88.671  20.827   2.411  0.00  0.00    -0.033 A 
ATOM     28  C   UNL     1     -89.967  21.121   1.822  0.00  0.00    +0.005 A 
ATOM     29  C   UNL     1     -90.121  22.136   0.851  0.00  0.00    +0.013 A 
BRANCH  18  19
ATOM     19  C   UNL     1     -88.597  19.688   3.446  0.00  0.00    +0.119 C 
BRANCH  19  20
ATOM     20  N   UNL     1     -87.869  19.969   4.720  0.00  0.00    -0.302 NA
ATOM     21  C   UNL     1     -87.252  18.702   5.320  0.00  0.00    +0.066 C 
ATOM     22  C   UNL     1     -86.477  19.017   6.640  0.00  0.00    -0.064 C 
ATOM     23  N   UNL     1     -87.424  19.684   7.639  0.00  0.00    +0.379 N 
ATOM     24  C   UNL     1     -86.713  19.929   8.902  0.00  0.00    -0.096 C 
ATOM     25  H   UNL     1     -88.251  18.967   7.849  0.00  0.00    -0.082 HD
ATOM     26  C   UNL     1     -88.044  20.943   7.049  0.00  0.00    -0.064 C 
ATOM     27  C   UNL     1     -88.788  20.623   5.722  0.00  0.00    +0.066 C 
ENDBRANCH  19  20
ENDBRANCH  18  19
ENDBRANCH  14  15
ENDBRANCH  12  13
TORSDOF 6
ENDMDL
MODEL 2
REMARK VINA RESULT:      -8.6      1.320      1.929
REMARK  Name = C:\Users\Docking\Desktop\test protocol\1iep_ligandH.pdb
REMARK  8 active torsions:
REMARK  status: ('A' for Active; 'I' for Inactive)
REMARK    1  A    between atoms: _5  and  _11
REMARK    2  A    between atoms: _19  and  _21
REMARK    3  A    between atoms: _22  and  _66
REMARK    4  A    between atoms: _27  and  _30
REMARK    5  A    between atoms: _32  and  _33
REMARK    6  A    between atoms: _38  and  _43
REMARK    7  A    between atoms: _43  and  _46
REMARK    8  A    between atoms: _53  and  _55
REMARK                            x       y       z     vdW  Elec       q    Type
REMARK                         _______ _______ _______ _____ _____    ______ ____
ROOT
ATOM     10  C   UNL     1     -88.196  26.170  -4.831  0.00  0.00    +0.038 A 
ATOM     11  C   UNL     1     -87.963  25.592  -3.557  0.00  0.00    +0.047 A 
ATOM     12  C   UNL     1     -89.010  24.862  -2.859  0.00  0.00    +0.035 A 
ATOM     32  C   UNL     1     -90.282  24.736  -3.491  0.00  0.00    +0.024 A 
ATOM     33  C   UNL     1     -90.536  25.318  -4.785  0.00  0.00    +0.007 A 
ATOM     34  C   UNL     1     -89.508  26.042  -5.477  0.00  0.00    -0.029 A 
ATOM     35  C   UNL     1     -89.838  26.650  -6.860  0.00  0.00    +0.045 C 
ENDROOT
BRANCH  10   9
ATOM      4  C   UNL     1     -84.448  26.375  -7.822  0.00  0.00    +0.077 A 
ATOM      5  C   UNL     1     -84.556  24.982  -8.148  0.00  0.00    +0.048 A 
ATOM      6  C   UNL     1     -85.585  24.246  -7.519  0.00  0.00    +0.116 A 
ATOM      7  N   UNL     1     -86.437  24.868  -6.632  0.00  0.00    -0.223 NA
ATOM      8  C   UNL     1     -86.304  26.213  -6.339  0.00  0.00    +0.220 A 
ATOM      9  N   UNL     1     -87.155  26.860  -5.456  0.00  0.00    -0.283 N 
ATOM     36  H   UNL     1     -87.019  27.852  -5.260  0.00  0.00    +0.155 HD
ATOM     37  N   UNL     1     -85.328  26.937  -6.925  0.00  0.00    -0.214 NA
BRANCH   4   3
ATOM      1  C   UNL     1     -81.185  27.726  -9.504  0.00  0.00    +0.020 A 
ATOM      2  C   UNL     1     -82.149  26.804  -8.950  0.00  0.00    +0.013 A 
ATOM      3  C   UNL     1     -83.414  27.286  -8.408  0.00  0.00    +0.019 A 
ATOM     38  C   UNL     1     -83.673  28.717  -8.442  0.00  0.00    +0.120 A 
ATOM     39  N   UNL     1     -82.725  29.581  -8.981  0.00  0.00    -0.263 NA
ATOM     40  C   UNL     1     -81.504  29.129  -9.504  0.00  0.00    +0.111 A 
ENDBRANCH   4   3
ENDBRANCH  10   9
BRANCH  12  13
ATOM     13  N   UNL     1     -88.835  24.261  -1.560  0.00  0.00    -0.281 N 
ATOM     14  C   UNL     1     -89.249  24.751  -0.333  0.00  0.00    +0.248 C 
ATOM     30  O   UNL     1     -89.647  25.891  -0.142  0.00  0.00    -0.270 OA
ATOM     31  H   UNL     1     -88.347  23.366  -1.544  0.00  0.00    +0.155 HD
BRANCH  14  15
ATOM     15  C   UNL     1     -89.200  23.850   0.859  0.00  0.00    +0.037 A 
ATOM     16  C   UNL     1     -88.053  23.858   1.771  0.00  0.00    +0.013 A 
ATOM     17  C   UNL     1     -88.024  22.966   2.903  0.00  0.00    +0.005 A 
ATOM     18  C   UNL     1     -89.146  22.059   3.130  0.00  0.00    -0.033 A 
ATOM     28  C   UNL     1     -90.273  22.075   2.212  0.00  0.00    +0.005 A 
ATOM     29  C   UNL     1     -90.305  22.947   1.100  0.00  0.00    +0.013 A 
BRANCH  18  19
ATOM     19  C   UNL     1     -89.190  21.058   4.300  0.00  0.00    +0.119 C 
BRANCH  19  20
ATOM     20  N   UNL     1     -88.415  19.791   4.145  0.00  0.00    -0.302 NA
ATOM     21  C   UNL     1     -86.954  19.954   4.575  0.00  0.00    +0.066 C 
ATOM     22  C   UNL     1     -86.164  18.613   4.428  0.00  0.00    -0.064 C 
ATOM     23  N   UNL     1     -86.252  18.129   2.979  0.00  0.00    +0.379 N 
ATOM     24  C   UNL     1     -85.461  16.899   2.825  0.00  0.00    -0.096 C 
ATOM     25  H   UNL     1     -85.790  18.912   2.333  0.00  0.00    -0.082 HD
ATOM     26  C   UNL     1     -87.701  17.967   2.543  0.00  0.00    -0.064 C 
ATOM     27  C   UNL     1     -88.484  19.297   2.721  0.00  0.00    +0.066 C 
ENDBRANCH  19  20
ENDBRANCH  18  19
ENDBRANCH  14  15
ENDBRANCH  12  13
TORSDOF 6
ENDMDL
MODEL 3
REMARK VINA RESULT:      -8.4     25.163     28.333
REMARK  Name = C:\Users\Docking\Desktop\test protocol\1iep_ligandH.pdb
REMARK  8 active torsions:
REMARK  status: ('A' for Active; 'I' for Inactive)
REMARK    1  A    between atoms: _5  and  _11
REMARK    2  A    between atoms: _19  and  _21
REMARK    3  A    between atoms: _22  and  _66
REMARK    4  A    between atoms: _27  and  _30
REMARK    5  A    between atoms: _32  and  _33
REMARK    6  A    between atoms: _38  and  _43
REMARK    7  A    between atoms: _43  and  _46
REMARK    8  A    between atoms: _53  and  _55
REMARK                            x       y       z     vdW  Elec       q    Type
REMARK                         _______ _______ _______ _____ _____    ______ ____
ROOT
ATOM     10  C   UNL     1     -86.033  46.259 -18.943  0.00  0.00    +0.038 A 
ATOM     11  C   UNL     1     -87.403  45.897 -19.015  0.00  0.00    +0.047 A 
ATOM     12  C   UNL     1     -88.424  46.880 -19.340  0.00  0.00    +0.035 A 
ATOM     32  C   UNL     1     -88.015  48.223 -19.589  0.00  0.00    +0.024 A 
ATOM     33  C   UNL     1     -86.628  48.608 -19.519  0.00  0.00    +0.007 A 
ATOM     34  C   UNL     1     -85.616  47.643 -19.196  0.00  0.00    -0.029 A 
ATOM     35  C   UNL     1     -84.144  48.114 -19.129  0.00  0.00    +0.045 C 
ENDROOT
BRANCH  10   9
ATOM      4  C   UNL     1     -82.747  42.989 -20.187  0.00  0.00    +0.077 A 
ATOM      5  C   UNL     1     -82.936  43.244 -21.586  0.00  0.00    +0.048 A 
ATOM      6  C   UNL     1     -83.893  44.220 -21.943  0.00  0.00    +0.116 A 
ATOM      7  N   UNL     1     -84.603  44.884 -20.967  0.00  0.00    -0.223 NA
ATOM      8  C   UNL     1     -84.397  44.612 -19.627  0.00  0.00    +0.220 A 
ATOM      9  N   UNL     1     -85.094  45.274 -18.627  0.00  0.00    -0.283 N 
ATOM     36  H   UNL     1     -84.919  45.040 -17.650  0.00  0.00    +0.155 HD
ATOM     37  N   UNL     1     -83.490  43.684 -19.259  0.00  0.00    -0.214 NA
BRANCH   4   3
ATOM      1  C   UNL     1     -80.584  39.764 -19.716  0.00  0.00    +0.020 A 
ATOM      2  C   UNL     1     -81.540  40.692 -20.274  0.00  0.00    +0.013 A 
ATOM      3  C   UNL     1     -81.769  41.989 -19.650  0.00  0.00    +0.019 A 
ATOM     38  C   UNL     1     -81.009  42.319 -18.454  0.00  0.00    +0.120 A 
ATOM     39  N   UNL     1     -80.096  41.404 -17.939  0.00  0.00    -0.263 NA
ATOM     40  C   UNL     1     -79.868  40.152 -18.530  0.00  0.00    +0.111 A 
ENDBRANCH   4   3
ENDBRANCH  10   9
BRANCH  12  13
ATOM     13  N   UNL     1     -89.831  46.573 -19.420  0.00  0.00    -0.281 N 
ATOM     14  C   UNL     1     -90.464  45.698 -20.287  0.00  0.00    +0.248 C 
ATOM     30  O   UNL     1     -89.940  45.203 -21.274  0.00  0.00    -0.270 OA
ATOM     31  H   UNL     1     -90.433  47.061 -18.756  0.00  0.00    +0.155 HD
BRANCH  14  15
ATOM     15  C   UNL     1     -91.890  45.331 -20.029  0.00  0.00    +0.037 A 
ATOM     16  C   UNL     1     -92.912  45.477 -21.068  0.00  0.00    +0.013 A 
ATOM     17  C   UNL     1     -94.283  45.131 -20.788  0.00  0.00    +0.005 A 
ATOM     18  C   UNL     1     -94.639  44.634 -19.461  0.00  0.00    -0.033 A 
ATOM     28  C   UNL     1     -93.604  44.495 -18.450  0.00  0.00    +0.005 A 
ATOM     29  C   UNL     1     -92.259  44.833 -18.721  0.00  0.00    +0.013 A 
BRANCH  18  19
ATOM     19  C   UNL     1     -96.081  44.262 -19.066  0.00  0.00    +0.119 C 
BRANCH  19  20
ATOM     20  N   UNL     1     -96.956  43.692 -20.134  0.00  0.00    -0.302 NA
ATOM     21  C   UNL     1     -98.442  43.836 -19.795  0.00  0.00    +0.066 C 
ATOM     22  C   UNL     1     -99.344  43.256 -20.933  0.00  0.00    -0.064 C 
ATOM     23  N   UNL     1     -98.982  41.788 -21.168  0.00  0.00    +0.379 N 
ATOM     24  C   UNL     1     -99.867  41.223 -22.197  0.00  0.00    -0.096 C 
ATOM     25  H   UNL     1     -99.172  41.237 -20.218  0.00  0.00    -0.082 HD
ATOM     26  C   UNL     1     -97.505  41.636 -21.503  0.00  0.00    -0.064 C 
ATOM     27  C   UNL     1     -96.618  42.242 -20.379  0.00  0.00    +0.066 C 
ENDBRANCH  19  20
ENDBRANCH  18  19
ENDBRANCH  14  15
ENDBRANCH  12  13
TORSDOF 6
ENDMDL
MODEL 4
REMARK VINA RESULT:      -8.1     25.472     28.096
REMARK  Name = C:\Users\Docking\Desktop\test protocol\1iep_ligandH.pdb
REMARK  8 active torsions:
REMARK  status: ('A' for Active; 'I' for Inactive)
REMARK    1  A    between atoms: _5  and  _11
REMARK    2  A    between atoms: _19  and  _21
REMARK    3  A    between atoms: _22  and  _66
REMARK    4  A    between atoms: _27  and  _30
REMARK    5  A    between atoms: _32  and  _33
REMARK    6  A    between atoms: _38  and  _43
REMARK    7  A    between atoms: _43  and  _46
REMARK    8  A    between atoms: _53  and  _55
REMARK                            x       y       z     vdW  Elec       q    Type
REMARK                         _______ _______ _______ _____ _____    ______ ____
ROOT
ATOM     10  C   UNL     1     -86.143  45.852 -18.935  0.00  0.00    +0.038 A 
ATOM     11  C   UNL     1     -87.465  45.337 -18.907  0.00  0.00    +0.047 A 
ATOM     12  C   UNL     1     -88.611  46.192 -19.171  0.00  0.00    +0.035 A 
ATOM     32  C   UNL     1     -88.376  47.567 -19.464  0.00  0.00    +0.024 A 
ATOM     33  C   UNL     1     -87.039  48.107 -19.497  0.00  0.00    +0.007 A 
ATOM     34  C   UNL     1     -85.905  47.269 -19.234  0.00  0.00    -0.029 A 
ATOM     35  C   UNL     1     -84.495  47.904 -19.276  0.00  0.00    +0.045 C 
ENDROOT
BRANCH  10   9
ATOM      4  C   UNL     1     -82.910  42.583 -20.313  0.00  0.00    +0.077 A 
ATOM      5  C   UNL     1     -83.400  42.580 -21.661  0.00  0.00    +0.048 A 
ATOM      6  C   UNL     1     -84.490  43.429 -21.957  0.00  0.00    +0.116 A 
ATOM      7  N   UNL     1     -85.041  44.218 -20.971  0.00  0.00    -0.223 NA
ATOM      8  C   UNL     1     -84.546  44.195 -19.680  0.00  0.00    +0.220 A 
ATOM      9  N   UNL     1     -85.079  44.986 -18.674  0.00  0.00    -0.283 N 
ATOM     36  H   UNL     1     -84.690  44.935 -17.733  0.00  0.00    +0.155 HD
ATOM     37  N   UNL     1     -83.506  43.392 -19.371  0.00  0.00    -0.214 NA
BRANCH   4   3
ATOM      1  C   UNL     1     -79.901  41.200 -18.232  0.00  0.00    +0.020 A 
ATOM      2  C   UNL     1     -81.000  42.044 -18.640  0.00  0.00    +0.013 A 
ATOM      3  C   UNL     1     -81.762  41.743 -19.845  0.00  0.00    +0.019 A 
ATOM     38  C   UNL     1     -81.384  40.572 -20.621  0.00  0.00    +0.120 A 
ATOM     39  N   UNL     1     -80.320  39.778 -20.204  0.00  0.00    -0.263 NA
ATOM     40  C   UNL     1     -79.578  40.059 -19.047  0.00  0.00    +0.111 A 
ENDBRANCH   4   3
ENDBRANCH  10   9
BRANCH  12  13
ATOM     13  N   UNL     1     -89.976  45.727 -19.148  0.00  0.00    -0.281 N 
ATOM     14  C   UNL     1     -90.985  46.090 -18.270  0.00  0.00    +0.248 C 
ATOM     30  O   UNL     1     -90.808  46.713 -17.234  0.00  0.00    -0.270 OA
ATOM     31  H   UNL     1     -90.230  45.048 -19.865  0.00  0.00    +0.155 HD
BRANCH  14  15
ATOM     15  C   UNL     1     -92.391  45.691 -18.581  0.00  0.00    +0.037 A 
ATOM     16  C   UNL     1     -93.443  46.694 -18.765  0.00  0.00    +0.013 A 
ATOM     17  C   UNL     1     -94.794  46.282 -19.048  0.00  0.00    +0.005 A 
ATOM     18  C   UNL     1     -95.102  44.857 -19.150  0.00  0.00    -0.033 A 
ATOM     28  C   UNL     1     -94.038  43.883 -18.968  0.00  0.00    +0.005 A 
ATOM     29  C   UNL     1     -92.712  44.284 -18.690  0.00  0.00    +0.013 A 
BRANCH  18  19
ATOM     19  C   UNL     1     -96.521  44.325 -19.427  0.00  0.00    +0.119 C 
BRANCH  19  20
ATOM     20  N   UNL     1     -96.638  43.097 -20.269  0.00  0.00    -0.302 NA
ATOM     21  C   UNL     1     -95.893  43.239 -21.599  0.00  0.00    +0.066 C 
ATOM     22  C   UNL     1     -96.007  41.937 -22.457  0.00  0.00    -0.064 C 
ATOM     23  N   UNL     1     -97.483  41.615 -22.695  0.00  0.00    +0.379 N 
ATOM     24  C   UNL     1     -97.593  40.424 -23.550  0.00  0.00    -0.096 C 
ATOM     25  H   UNL     1     -97.931  42.472 -23.249  0.00  0.00    -0.082 HD
ATOM     26  C   UNL     1     -98.232  41.475 -21.378  0.00  0.00    -0.064 C 
ATOM     27  C   UNL     1     -98.088  42.763 -20.520  0.00  0.00    +0.066 C 
ENDBRANCH  19  20
ENDBRANCH  18  19
ENDBRANCH  14  15
ENDBRANCH  12  13
TORSDOF 6
ENDMDL
MODEL 5
REMARK VINA RESULT:      -7.9     15.593     18.668
REMARK  Name = C:\Users\Docking\Desktop\test protocol\1iep_ligandH.pdb
REMARK  8 active torsions:
REMARK  status: ('A' for Active; 'I' for Inactive)
REMARK    1  A    between atoms: _5  and  _11
REMARK    2  A    between atoms: _19  and  _21
REMARK    3  A    between atoms: _22  and  _66
REMARK    4  A    between atoms: _27  and  _30
REMARK    5  A    between atoms: _32  and  _33
REMARK    6  A    between atoms: _38  and  _43
REMARK    7  A    between atoms: _43  and  _46
REMARK    8  A    between atoms: _53  and  _55
REMARK                            x       y       z     vdW  Elec       q    Type
REMARK                         _______ _______ _______ _____ _____    ______ ____
ROOT
ATOM     10  C   UNL     1     -81.296  31.749   8.227  0.00  0.00    +0.038 A 
ATOM     11  C   UNL     1     -80.653  32.996   8.021  0.00  0.00    +0.047 A 
ATOM     12  C   UNL     1     -79.344  33.272   8.592  0.00  0.00    +0.035 A 
ATOM     32  C   UNL     1     -78.716  32.252   9.366  0.00  0.00    +0.024 A 
ATOM     33  C   UNL     1     -79.356  30.979   9.586  0.00  0.00    +0.007 A 
ATOM     34  C   UNL     1     -80.648  30.703   9.027  0.00  0.00    -0.029 A 
ATOM     35  C   UNL     1     -81.289  29.322   9.302  0.00  0.00    +0.045 C 
ENDROOT
BRANCH  10   9
ATOM      4  C   UNL     1     -84.118  30.356   4.603  0.00  0.00    +0.077 A 
ATOM      5  C   UNL     1     -82.993  30.047   3.768  0.00  0.00    +0.048 A 
ATOM      6  C   UNL     1     -81.705  30.267   4.306  0.00  0.00    +0.116 A 
ATOM      7  N   UNL     1     -81.565  30.760   5.586  0.00  0.00    -0.223 NA
ATOM      8  C   UNL     1     -82.670  31.049   6.364  0.00  0.00    +0.220 A 
ATOM      9  N   UNL     1     -82.553  31.538   7.656  0.00  0.00    -0.283 N 
ATOM     36  H   UNL     1     -83.393  31.747   8.194  0.00  0.00    +0.155 HD
ATOM     37  N   UNL     1     -83.911  30.849   5.872  0.00  0.00    -0.214 NA
BRANCH   4   3
ATOM      1  C   UNL     1     -87.602  28.766   3.808  0.00  0.00    +0.020 A 
ATOM      2  C   UNL     1     -86.226  28.888   4.230  0.00  0.00    +0.013 A 
ATOM      3  C   UNL     1     -85.541  30.174   4.178  0.00  0.00    +0.019 A 
ATOM     38  C   UNL     1     -86.284  31.326   3.690  0.00  0.00    +0.120 A 
ATOM     39  N   UNL     1     -87.608  31.178   3.289  0.00  0.00    -0.263 NA
ATOM     40  C   UNL     1     -88.277  29.946   3.333  0.00  0.00    +0.111 A 
ENDBRANCH   4   3
ENDBRANCH  10   9
BRANCH  12  13
ATOM     13  N   UNL     1     -78.646  34.523   8.424  0.00  0.00    -0.281 N 
ATOM     14  C   UNL     1     -78.045  35.015   7.277  0.00  0.00    +0.248 C 
ATOM     30  O   UNL     1     -77.830  34.354   6.272  0.00  0.00    -0.270 OA
ATOM     31  H   UNL     1     -78.589  35.117   9.251  0.00  0.00    +0.155 HD
BRANCH  14  15
ATOM     15  C   UNL     1     -77.606  36.443   7.248  0.00  0.00    +0.037 A 
ATOM     16  C   UNL     1     -76.676  36.931   6.227  0.00  0.00    +0.013 A 
ATOM     17  C   UNL     1     -76.255  38.310   6.232  0.00  0.00    +0.005 A 
ATOM     18  C   UNL     1     -76.767  39.211   7.261  0.00  0.00    -0.033 A 
ATOM     28  C   UNL     1     -77.693  38.702   8.259  0.00  0.00    +0.005 A 
ATOM     29  C   UNL     1     -78.107  37.351   8.258  0.00  0.00    +0.013 A 
BRANCH  18  19
ATOM     19  C   UNL     1     -76.356  40.693   7.356  0.00  0.00    +0.119 C 
BRANCH  19  20
ATOM     20  N   UNL     1     -77.313  41.704   6.815  0.00  0.00    -0.302 NA
ATOM     21  C   UNL     1     -78.271  42.221   7.892  0.00  0.00    +0.066 C 
ATOM     22  C   UNL     1     -79.251  43.294   7.315  0.00  0.00    -0.064 C 
ATOM     23  N   UNL     1     -80.028  42.693   6.142  0.00  0.00    +0.379 N 
ATOM     24  C   UNL     1     -80.991  43.680   5.634  0.00  0.00    -0.096 C 
ATOM     25  H   UNL     1     -80.607  41.824   6.531  0.00  0.00    -0.082 HD
ATOM     26  C   UNL     1     -79.082  42.174   5.068  0.00  0.00    -0.064 C 
ATOM     27  C   UNL     1     -78.094  41.130   5.659  0.00  0.00    +0.066 C 
ENDBRANCH  19  20
ENDBRANCH  18  19
ENDBRANCH  14  15
ENDBRANCH  12  13
TORSDOF 6
ENDMDL
