MODEL 1
REMARK VINA RESULT:      -8.9      0.000      0.000
REMARK  Name = C:\Users\Docking\Desktop\test protocol\1iep_ligandH.pdb
REMARK  8 active torsions:
REMARK  status: ('A' for Active; 'I' for Inactive)
REMARK    1  A    between atoms: _5  and  _11
REMARK    2  A    between atoms: _19  and  _21
REMARK    3  A    between atoms: _22  and  _66
REMARK    4  A    between atoms: _27  and  _30
REMARK    5  A    between atoms: _32  and  _33
REMARK    6  A    between atoms: _38  and  _43
REMARK    7  A    between atoms: _43  and  _46
REMARK    8  A    between atoms: _53  and  _55
REMARK                            x       y       z     vdW  Elec       q    Type
REMARK                         _______ _______ _______ _____ _____    ______ ____
ROOT
ATOM     10  C   UNL     1     -88.122  26.179  -4.765  0.00  0.00    +0.038 A 
ATOM     11  C   UNL     1     -87.964  25.582  -3.488  0.00  0.00    +0.047 A 
ATOM     12  C   UNL     1     -89.051  24.847  -2.861  0.00  0.00    +0.035 A 
ATOM     32  C   UNL     1     -90.286  24.736  -3.564  0.00  0.00    +0.024 A 
ATOM     33  C   UNL     1     -90.465  25.337  -4.863  0.00  0.00    +0.007 A 
ATOM     34  C   UNL     1     -89.397  26.066  -5.485  0.00  0.00    -0.029 A 
ATOM     35  C   UNL     1     -89.647  26.695  -6.876  0.00  0.00    +0.045 C 
ENDROOT
BRANCH  10   9
ATOM      4  C   UNL     1     -84.294  26.449  -7.647  0.00  0.00    +0.077 A 
ATOM      5  C   UNL     1     -84.435  25.082  -8.061  0.00  0.00    +0.048 A 
ATOM      6  C   UNL     1     -85.502  24.343  -7.504  0.00  0.00    +0.116 A 
ATOM      7  N   UNL     1     -86.357  24.935  -6.600  0.00  0.00    -0.223 NA
ATOM      8  C   UNL     1     -86.192  26.255  -6.221  0.00  0.00    +0.220 A 
ATOM      9  N   UNL     1     -87.045  26.873  -5.321  0.00  0.00    -0.283 N 
ATOM     36  H   UNL     1     -86.885  27.846  -5.061  0.00  0.00    +0.155 HD
ATOM     37  N   UNL     1     -85.180  26.982  -6.738  0.00  0.00    -0.214 NA
BRANCH   4   3
ATOM      1  C   UNL     1     -80.820  27.881  -8.734  0.00  0.00    +0.020 A 
ATOM      2  C   UNL     1     -81.819  26.962  -8.241  0.00  0.00    +0.013 A 
ATOM      3  C   UNL     1     -83.218  27.361  -8.150  0.00  0.00    +0.019 A 
ATOM     38  C   UNL     1     -83.575  28.708  -8.570  0.00  0.00    +0.120 A 
ATOM     39  N   UNL     1     -82.591  29.572  -9.039  0.00  0.00    -0.263 NA
ATOM     40  C   UNL     1     -81.241  29.199  -9.130  0.00  0.00    +0.111 A 
ENDBRANCH   4   3
ENDBRANCH  10   9
BRANCH  12  13
ATOM     13  N   UNL     1     -88.951  24.227  -1.563  0.00  0.00    -0.281 N 
ATOM     14  C   UNL     1     -88.998  24.838  -0.321  0.00  0.00    +0.248 C 
ATOM     30  O   UNL     1     -88.920  26.045  -0.142  0.00  0.00    -0.270 OA
ATOM     31  H   UNL     1     -88.830  23.214  -1.560  0.00  0.00    +0.155 HD
BRANCH  14  15
ATOM     15  C   UNL     1     -89.139  23.986   0.899  0.00  0.00    +0.037 A 
ATOM     16  C   UNL     1     -88.185  24.081   2.006  0.00  0.00    +0.013 A 
ATOM     17  C   UNL     1     -88.334  23.235   3.164  0.00  0.00    +0.005 A 
ATOM     18  C   UNL     1     -89.444  22.287   3.220  0.00  0.00    -0.033 A 
ATOM     28  C   UNL     1     -90.379  22.218   2.109  0.00  0.00    +0.005 A 
ATOM     29  C   UNL     1     -90.236  23.044   0.973  0.00  0.00    +0.013 A 
BRANCH  18  19
ATOM     19  C   UNL     1     -89.668  21.331   4.406  0.00  0.00    +0.119 C 
BRANCH  19  20
ATOM     20  N   UNL     1     -88.461  20.893   5.169  0.00  0.00    -0.302 NA
ATOM     21  C   UNL     1     -88.157  19.407   4.958  0.00  0.00    +0.066 C 
ATOM     22  C   UNL     1     -86.879  18.970   5.745  0.00  0.00    -0.064 C 
ATOM     23  N   UNL     1     -87.067  19.280   7.231  0.00  0.00    +0.379 N 
ATOM     24  C   UNL     1     -85.890  18.817   7.982  0.00  0.00    -0.096 C 
ATOM     25  H   UNL     1     -87.947  18.696   7.589  0.00  0.00    -0.082 HD
ATOM     26  C   UNL     1     -87.373  20.755   7.449  0.00  0.00    -0.064 C 
ATOM     27  C   UNL     1     -88.628  21.185   6.640  0.00  0.00    +0.066 C 
ENDBRANCH  19  20
ENDBRANCH  18  19
ENDBRANCH  14  15
ENDBRANCH  12  13
TORSDOF 6
ENDMDL
MODEL 2
REMARK VINA RESULT:      -8.4     25.071     28.172
REMARK  Name = C:\Users\Docking\Desktop\test protocol\1iep_ligandH.pdb
REMARK  8 active torsions:
REMARK  status: ('A' for Active; 'I' for Inactive)
REMARK    1  A    between atoms: _5  and  _11
REMARK    2  A    between atoms: _19  and  _21
REMARK    3  A    between atoms: _22  and  _66
REMARK    4  A    between atoms: _27  and  _30
REMARK    5  A    between atoms: _32  and  _33
REMARK    6  A    between atoms: _38  and  _43
REMARK    7  A    between atoms: _43  and  _46
REMARK    8  A    between atoms: _53  and  _55
REMARK                            x       y       z     vdW  Elec       q    Type
REMARK                         _______ _______ _______ _____ _____    ______ ____
ROOT
ATOM     10  C   UNL     1     -86.028  46.306 -18.960  0.00  0.00    +0.038 A 
ATOM     11  C   UNL     1     -87.400  45.953 -19.032  0.00  0.00    +0.047 A 
ATOM     12  C   UNL     1     -88.415  46.942 -19.362  0.00  0.00    +0.035 A 
ATOM     32  C   UNL     1     -87.996  48.281 -19.616  0.00  0.00    +0.024 A 
ATOM     33  C   UNL     1     -86.606  48.656 -19.547  0.00  0.00    +0.007 A 
ATOM     34  C   UNL     1     -85.601  47.686 -19.219  0.00  0.00    -0.029 A 
ATOM     35  C   UNL     1     -84.126  48.147 -19.152  0.00  0.00    +0.045 C 
ENDROOT
BRANCH  10   9
ATOM      4  C   UNL     1     -82.759  43.013 -20.186  0.00  0.00    +0.077 A 
ATOM      5  C   UNL     1     -82.941  43.267 -21.586  0.00  0.00    +0.048 A 
ATOM      6  C   UNL     1     -83.892  44.247 -21.949  0.00  0.00    +0.116 A 
ATOM      7  N   UNL     1     -84.600  44.918 -20.976  0.00  0.00    -0.223 NA
ATOM      8  C   UNL     1     -84.401  44.648 -19.635  0.00  0.00    +0.220 A 
ATOM      9  N   UNL     1     -85.097  45.316 -18.639  0.00  0.00    -0.283 N 
ATOM     36  H   UNL     1     -84.926  45.082 -17.661  0.00  0.00    +0.155 HD
ATOM     37  N   UNL     1     -83.500  43.715 -19.262  0.00  0.00    -0.214 NA
BRANCH   4   3
ATOM      1  C   UNL     1     -80.631  39.768 -19.691  0.00  0.00    +0.020 A 
ATOM      2  C   UNL     1     -81.580  40.701 -20.254  0.00  0.00    +0.013 A 
ATOM      3  C   UNL     1     -81.789  42.009 -19.644  0.00  0.00    +0.019 A 
ATOM     38  C   UNL     1     -81.016  42.344 -18.458  0.00  0.00    +0.120 A 
ATOM     39  N   UNL     1     -80.110  41.424 -17.938  0.00  0.00    -0.263 NA
ATOM     40  C   UNL     1     -79.902  40.163 -18.515  0.00  0.00    +0.111 A 
ENDBRANCH   4   3
ENDBRANCH  10   9
BRANCH  12  13
ATOM     13  N   UNL     1     -89.824  46.645 -19.441  0.00  0.00    -0.281 N 
ATOM     14  C   UNL     1     -90.456  45.729 -20.266  0.00  0.00    +0.248 C 
ATOM     30  O   UNL     1     -89.925  45.175 -21.218  0.00  0.00    -0.270 OA
ATOM     31  H   UNL     1     -90.428  47.174 -18.813  0.00  0.00    +0.155 HD
BRANCH  14  15
ATOM     15  C   UNL     1     -91.888  45.390 -20.006  0.00  0.00    +0.037 A 
ATOM     16  C   UNL     1     -92.931  45.688 -20.991  0.00  0.00    +0.013 A 
ATOM     17  C   UNL     1     -94.307  45.366 -20.707  0.00  0.00    +0.005 A 
ATOM     18  C   UNL     1     -94.648  44.741 -19.431  0.00  0.00    -0.033 A 
ATOM     28  C   UNL     1     -93.593  44.452 -18.474  0.00  0.00    +0.005 A 
ATOM     29  C   UNL     1     -92.243  44.767 -18.748  0.00  0.00    +0.013 A 
BRANCH  18  19
ATOM     19  C   UNL     1     -96.092  44.382 -19.035  0.00  0.00    +0.119 C 
BRANCH  19  20
ATOM     20  N   UNL     1     -96.962  43.783 -20.091  0.00  0.00    -0.302 NA
ATOM     21  C   UNL     1     -98.447  43.866 -19.727  0.00  0.00    +0.066 C 
ATOM     22  C   UNL     1     -99.344  43.255 -20.853  0.00  0.00    -0.064 C 
ATOM     23  N   UNL     1     -98.927  41.804 -21.101  0.00  0.00    +0.379 N 
ATOM     24  C   UNL     1     -99.806  41.208 -22.118  0.00  0.00    -0.096 C 
ATOM     25  H   UNL     1     -99.079  41.241 -20.151  0.00  0.00    -0.082 HD
ATOM     26  C   UNL     1     -97.451  41.712 -21.461  0.00  0.00    -0.064 C 
ATOM     27  C   UNL     1     -96.571  42.349 -20.349  0.00  0.00    +0.066 C 
ENDBRANCH  19  20
ENDBRANCH  18  19
ENDBRANCH  14  15
ENDBRANCH  12  13
TORSDOF 6
ENDMDL
MODEL 3
REMARK VINA RESULT:      -8.1     25.368     28.139
REMARK  Name = C:\Users\Docking\Desktop\test protocol\1iep_ligandH.pdb
REMARK  8 active torsions:
REMARK  status: ('A' for Active; 'I' for Inactive)
REMARK    1  A    between atoms: _5  and  _11
REMARK    2  A    between atoms: _19  and  _21
REMARK    3  A    between atoms: _22  and  _66
REMARK    4  A    between atoms: _27  and  _30
REMARK    5  A    between atoms: _32  and  _33
REMARK    6  A    between atoms: _38  and  _43
REMARK    7  A    between atoms: _43  and  _46
REMARK    8  A    between atoms: _53  and  _55
REMARK                            x       y       z     vdW  Elec       q    Type
REMARK                         _______ _______ _______ _____ _____    ______ ____
ROOT
ATOM     10  C   UNL     1     -86.175  45.812 -18.954  0.00  0.00    +0.038 A 
ATOM     11  C   UNL     1     -87.504  45.322 -19.023  0.00  0.00    +0.047 A 
ATOM     12  C   UNL     1     -88.620  46.210 -19.308  0.00  0.00    +0.035 A 
ATOM     32  C   UNL     1     -88.345  47.593 -19.520  0.00  0.00    +0.024 A 
ATOM     33  C   UNL     1     -87.000  48.108 -19.453  0.00  0.00    +0.007 A 
ATOM     34  C   UNL     1     -85.896  47.237 -19.169  0.00  0.00    -0.029 A 
ATOM     35  C   UNL     1     -84.476  47.845 -19.103  0.00  0.00    +0.045 C 
ENDROOT
BRANCH  10   9
ATOM      4  C   UNL     1     -82.822  42.663 -20.325  0.00  0.00    +0.077 A 
ATOM      5  C   UNL     1     -83.177  42.797 -21.708  0.00  0.00    +0.048 A 
ATOM      6  C   UNL     1     -84.233  43.682 -22.024  0.00  0.00    +0.116 A 
ATOM      7  N   UNL     1     -84.878  44.375 -21.023  0.00  0.00    -0.223 NA
ATOM      8  C   UNL     1     -84.512  44.221 -19.699  0.00  0.00    +0.220 A 
ATOM      9  N   UNL     1     -85.142  44.914 -18.676  0.00  0.00    -0.283 N 
ATOM     36  H   UNL     1     -84.847  44.767 -17.711  0.00  0.00    +0.155 HD
ATOM     37  N   UNL     1     -83.508  43.381 -19.371  0.00  0.00    -0.214 NA
BRANCH   4   3
ATOM      1  C   UNL     1     -79.945  41.125 -18.166  0.00  0.00    +0.020 A 
ATOM      2  C   UNL     1     -80.995  42.020 -18.597  0.00  0.00    +0.013 A 
ATOM      3  C   UNL     1     -81.726  41.769 -19.833  0.00  0.00    +0.019 A 
ATOM     38  C   UNL     1     -81.368  40.596 -20.615  0.00  0.00    +0.120 A 
ATOM     39  N   UNL     1     -80.352  39.753 -20.176  0.00  0.00    -0.263 NA
ATOM     40  C   UNL     1     -79.640  39.985 -18.990  0.00  0.00    +0.111 A 
ENDBRANCH   4   3
ENDBRANCH  10   9
BRANCH  12  13
ATOM     13  N   UNL     1     -89.991  45.772 -19.383  0.00  0.00    -0.281 N 
ATOM     14  C   UNL     1     -90.652  45.223 -20.469  0.00  0.00    +0.248 C 
ATOM     30  O   UNL     1     -90.220  45.223 -21.613  0.00  0.00    -0.270 OA
ATOM     31  H   UNL     1     -90.542  45.879 -18.531  0.00  0.00    +0.155 HD
BRANCH  14  15
ATOM     15  C   UNL     1     -91.992  44.596 -20.258  0.00  0.00    +0.037 A 
ATOM     16  C   UNL     1     -92.698  44.723 -18.981  0.00  0.00    +0.013 A 
ATOM     17  C   UNL     1     -93.982  44.094 -18.798  0.00  0.00    +0.005 A 
ATOM     18  C   UNL     1     -94.569  43.332 -19.898  0.00  0.00    -0.033 A 
ATOM     28  C   UNL     1     -93.850  43.227 -21.157  0.00  0.00    +0.005 A 
ATOM     29  C   UNL     1     -92.591  43.841 -21.339  0.00  0.00    +0.013 A 
BRANCH  18  19
ATOM     19  C   UNL     1     -95.925  42.611 -19.785  0.00  0.00    +0.119 C 
BRANCH  19  20
ATOM     20  N   UNL     1     -97.074  43.190 -20.544  0.00  0.00    -0.302 NA
ATOM     21  C   UNL     1     -97.789  44.289 -19.754  0.00  0.00    +0.066 C 
ATOM     22  C   UNL     1     -98.973  44.900 -20.572  0.00  0.00    -0.064 C 
ATOM     23  N   UNL     1     -99.950  43.787 -20.957  0.00  0.00    +0.379 N 
ATOM     24  C   UNL     1    -101.094  44.366 -21.676  0.00  0.00    -0.096 C 
ATOM     25  H   UNL     1    -100.336  43.335 -20.014  0.00  0.00    -0.082 HD
ATOM     26  C   UNL     1     -99.246  42.688 -21.741  0.00  0.00    -0.064 C 
ATOM     27  C   UNL     1     -98.053  42.109 -20.931  0.00  0.00    +0.066 C 
ENDBRANCH  19  20
ENDBRANCH  18  19
ENDBRANCH  14  15
ENDBRANCH  12  13
TORSDOF 6
ENDMDL
MODEL 4
REMARK VINA RESULT:      -7.9     14.954     18.311
REMARK  Name = C:\Users\Docking\Desktop\test protocol\1iep_ligandH.pdb
REMARK  8 active torsions:
REMARK  status: ('A' for Active; 'I' for Inactive)
REMARK    1  A    between atoms: _5  and  _11
REMARK    2  A    between atoms: _19  and  _21
REMARK    3  A    between atoms: _22  and  _66
REMARK    4  A    between atoms: _27  and  _30
REMARK    5  A    between atoms: _32  and  _33
REMARK    6  A    between atoms: _38  and  _43
REMARK    7  A    between atoms: _43  and  _46
REMARK    8  A    between atoms: _53  and  _55
REMARK                            x       y       z     vdW  Elec       q    Type
REMARK                         _______ _______ _______ _____ _____    ______ ____
ROOT
ATOM     10  C   UNL     1     -81.375  31.637   8.404  0.00  0.00    +0.038 A 
ATOM     11  C   UNL     1     -80.714  32.869   8.167  0.00  0.00    +0.047 A 
ATOM     12  C   UNL     1     -79.415  33.152   8.756  0.00  0.00    +0.035 A 
ATOM     32  C   UNL     1     -78.816  32.155   9.581  0.00  0.00    +0.024 A 
ATOM     33  C   UNL     1     -79.475  30.897   9.834  0.00  0.00    +0.007 A 
ATOM     34  C   UNL     1     -80.758  30.614   9.256  0.00  0.00    -0.029 A 
ATOM     35  C   UNL     1     -81.420  29.252   9.567  0.00  0.00    +0.045 C 
ENDROOT
BRANCH  10   9
ATOM      4  C   UNL     1     -84.130  30.365   4.685  0.00  0.00    +0.077 A 
ATOM      5  C   UNL     1     -82.992  30.143   3.842  0.00  0.00    +0.048 A 
ATOM      6  C   UNL     1     -81.715  30.374   4.401  0.00  0.00    +0.116 A 
ATOM      7  N   UNL     1     -81.597  30.795   5.707  0.00  0.00    -0.223 NA
ATOM      8  C   UNL     1     -82.716  31.002   6.493  0.00  0.00    +0.220 A 
ATOM      9  N   UNL     1     -82.621  31.419   7.812  0.00  0.00    -0.283 N 
ATOM     36  H   UNL     1     -83.471  31.567   8.356  0.00  0.00    +0.155 HD
ATOM     37  N   UNL     1     -83.947  30.790   5.982  0.00  0.00    -0.214 NA
BRANCH   4   3
ATOM      1  C   UNL     1     -87.582  28.725   3.850  0.00  0.00    +0.020 A 
ATOM      2  C   UNL     1     -86.214  28.867   4.292  0.00  0.00    +0.013 A 
ATOM      3  C   UNL     1     -85.545  30.162   4.240  0.00  0.00    +0.019 A 
ATOM     38  C   UNL     1     -86.296  31.300   3.733  0.00  0.00    +0.120 A 
ATOM     39  N   UNL     1     -87.612  31.132   3.313  0.00  0.00    -0.263 NA
ATOM     40  C   UNL     1     -88.264  29.892   3.356  0.00  0.00    +0.111 A 
ENDBRANCH   4   3
ENDBRANCH  10   9
BRANCH  12  13
ATOM     13  N   UNL     1     -78.699  34.388   8.558  0.00  0.00    -0.281 N 
ATOM     14  C   UNL     1     -78.136  34.867   7.387  0.00  0.00    +0.248 C 
ATOM     30  O   UNL     1     -77.976  34.202   6.374  0.00  0.00    -0.270 OA
ATOM     31  H   UNL     1     -78.596  34.981   9.381  0.00  0.00    +0.155 HD
BRANCH  14  15
ATOM     15  C   UNL     1     -77.669  36.286   7.338  0.00  0.00    +0.037 A 
ATOM     16  C   UNL     1     -76.825  36.771   6.243  0.00  0.00    +0.013 A 
ATOM     17  C   UNL     1     -76.375  38.140   6.229  0.00  0.00    +0.005 A 
ATOM     18  C   UNL     1     -76.770  39.035   7.314  0.00  0.00    -0.033 A 
ATOM     28  C   UNL     1     -77.613  38.529   8.385  0.00  0.00    +0.005 A 
ATOM     29  C   UNL     1     -78.055  37.187   8.402  0.00  0.00    +0.013 A 
BRANCH  18  19
ATOM     19  C   UNL     1     -76.319  40.506   7.391  0.00  0.00    +0.119 C 
BRANCH  19  20
ATOM     20  N   UNL     1     -77.253  41.537   6.849  0.00  0.00    -0.302 NA
ATOM     21  C   UNL     1     -78.191  42.087   7.927  0.00  0.00    +0.066 C 
ATOM     22  C   UNL     1     -79.146  43.180   7.347  0.00  0.00    -0.064 C 
ATOM     23  N   UNL     1     -79.945  42.591   6.183  0.00  0.00    +0.379 N 
ATOM     24  C   UNL     1     -80.886  43.599   5.673  0.00  0.00    -0.096 C 
ATOM     25  H   UNL     1     -80.545  41.740   6.582  0.00  0.00    -0.082 HD
ATOM     26  C   UNL     1     -79.020  42.039   5.108  0.00  0.00    -0.064 C 
ATOM     27  C   UNL     1     -78.055  40.975   5.701  0.00  0.00    +0.066 C 
ENDBRANCH  19  20
ENDBRANCH  18  19
ENDBRANCH  14  15
ENDBRANCH  12  13
TORSDOF 6
ENDMDL
MODEL 5
REMARK VINA RESULT:      -7.8      5.057     10.087
REMARK  Name = C:\Users\Docking\Desktop\test protocol\1iep_ligandH.pdb
REMARK  8 active torsions:
REMARK  status: ('A' for Active; 'I' for Inactive)
REMARK    1  A    between atoms: _5  and  _11
REMARK    2  A    between atoms: _19  and  _21
REMARK    3  A    between atoms: _22  and  _66
REMARK    4  A    between atoms: _27  and  _30
REMARK    5  A    between atoms: _32  and  _33
REMARK    6  A    between atoms: _38  and  _43
REMARK    7  A    between atoms: _43  and  _46
REMARK    8  A    between atoms: _53  and  _55
REMARK                            x       y       z     vdW  Elec       q    Type
REMARK                         _______ _______ _______ _____ _____    ______ ____
ROOT
ATOM     10  C   UNL     1     -78.499  25.425  -8.336  0.00  0.00    +0.038 A 
ATOM     11  C   UNL     1     -79.819  25.926  -8.205  0.00  0.00    +0.047 A 
ATOM     12  C   UNL     1     -80.714  25.426  -7.173  0.00  0.00    +0.035 A 
ATOM     32  C   UNL     1     -80.231  24.417  -6.290  0.00  0.00    +0.024 A 
ATOM     33  C   UNL     1     -78.892  23.896  -6.410  0.00  0.00    +0.007 A 
ATOM     34  C   UNL     1     -78.005  24.384  -7.428  0.00  0.00    -0.029 A 
ATOM     35  C   UNL     1     -76.582  23.784  -7.514  0.00  0.00    +0.045 C 
ENDROOT
BRANCH  10   9
ATOM      4  C   UNL     1     -76.693  29.086 -10.862  0.00  0.00    +0.077 A 
ATOM      5  C   UNL     1     -77.463  30.049 -10.128  0.00  0.00    +0.048 A 
ATOM      6  C   UNL     1     -78.317  29.561  -9.114  0.00  0.00    +0.116 A 
ATOM      7  N   UNL     1     -78.387  28.208  -8.860  0.00  0.00    -0.223 NA
ATOM      8  C   UNL     1     -77.632  27.306  -9.588  0.00  0.00    +0.220 A 
ATOM      9  N   UNL     1     -77.682  25.942  -9.345  0.00  0.00    -0.283 N 
ATOM     36  H   UNL     1     -77.115  25.309  -9.908  0.00  0.00    +0.155 HD
ATOM     37  N   UNL     1     -76.811  27.747 -10.563  0.00  0.00    -0.214 NA
BRANCH   4   3
ATOM      1  C   UNL     1     -74.376  31.107 -13.279  0.00  0.00    +0.020 A 
ATOM      2  C   UNL     1     -75.294  30.812 -12.204  0.00  0.00    +0.013 A 
ATOM      3  C   UNL     1     -75.744  29.447 -11.962  0.00  0.00    +0.019 A 
ATOM     38  C   UNL     1     -75.241  28.395 -12.832  0.00  0.00    +0.120 A 
ATOM     39  N   UNL     1     -74.358  28.709 -13.861  0.00  0.00    -0.263 NA
ATOM     40  C   UNL     1     -73.920  30.020 -14.105  0.00  0.00    +0.111 A 
ENDBRANCH   4   3
ENDBRANCH  10   9
BRANCH  12  13
ATOM     13  N   UNL     1     -82.068  25.890  -6.997  0.00  0.00    -0.281 N 
ATOM     14  C   UNL     1     -83.244  25.192  -7.219  0.00  0.00    +0.248 C 
ATOM     30  O   UNL     1     -83.312  24.125  -7.811  0.00  0.00    -0.270 OA
ATOM     31  H   UNL     1     -82.172  26.850  -6.668  0.00  0.00    +0.155 HD
BRANCH  14  15
ATOM     15  C   UNL     1     -84.531  25.770  -6.725  0.00  0.00    +0.037 A 
ATOM     16  C   UNL     1     -85.743  25.738  -7.548  0.00  0.00    +0.013 A 
ATOM     17  C   UNL     1     -86.967  26.318  -7.054  0.00  0.00    +0.005 A 
ATOM     18  C   UNL     1     -86.985  26.932  -5.729  0.00  0.00    -0.033 A 
ATOM     28  C   UNL     1     -85.769  26.945  -4.932  0.00  0.00    +0.005 A 
ATOM     29  C   UNL     1     -84.567  26.379  -5.413  0.00  0.00    +0.013 A 
BRANCH  18  19
ATOM     19  C   UNL     1     -88.241  27.593  -5.131  0.00  0.00    +0.119 C 
BRANCH  19  20
ATOM     20  N   UNL     1     -89.002  26.814  -4.109  0.00  0.00    -0.302 NA
ATOM     21  C   UNL     1     -88.289  26.793  -2.754  0.00  0.00    +0.066 C 
ATOM     22  C   UNL     1     -89.111  25.993  -1.691  0.00  0.00    -0.064 C 
ATOM     23  N   UNL     1     -89.350  24.570  -2.201  0.00  0.00    +0.379 N 
ATOM     24  C   UNL     1     -90.072  23.798  -1.179  0.00  0.00    -0.096 C 
ATOM     25  H   UNL     1     -88.353  24.091  -2.345  0.00  0.00    -0.082 HD
ATOM     26  C   UNL     1     -90.056  24.583  -3.549  0.00  0.00    -0.064 C 
ATOM     27  C   UNL     1     -89.246  25.405  -4.590  0.00  0.00    +0.066 C 
ENDBRANCH  19  20
ENDBRANCH  18  19
ENDBRANCH  14  15
ENDBRANCH  12  13
TORSDOF 6
ENDMDL
