MODEL 1
REMARK VINA RESULT:      -7.9      0.000      0.000
REMARK  Name = C:\Users\Docking\Desktop\test protocol\1iep_ligandH.pdb
REMARK  8 active torsions:
REMARK  status: ('A' for Active; 'I' for Inactive)
REMARK    1  A    between atoms: _5  and  _11
REMARK    2  A    between atoms: _19  and  _21
REMARK    3  A    between atoms: _22  and  _66
REMARK    4  A    between atoms: _27  and  _30
REMARK    5  A    between atoms: _32  and  _33
REMARK    6  A    between atoms: _38  and  _43
REMARK    7  A    between atoms: _43  and  _46
REMARK    8  A    between atoms: _53  and  _55
REMARK                            x       y       z     vdW  Elec       q    Type
REMARK                         _______ _______ _______ _____ _____    ______ ____
ROOT
ATOM     10  C   UNL     1      14.744  78.847 120.007  0.00  0.00    +0.038 A 
ATOM     11  C   UNL     1      15.494  78.040 120.900  0.00  0.00    +0.047 A 
ATOM     12  C   UNL     1      15.614  76.604 120.696  0.00  0.00    +0.035 A 
ATOM     32  C   UNL     1      14.958  76.024 119.571  0.00  0.00    +0.024 A 
ATOM     33  C   UNL     1      14.190  76.830 118.655  0.00  0.00    +0.007 A 
ATOM     34  C   UNL     1      14.066  78.246 118.852  0.00  0.00    -0.029 A 
ATOM     35  C   UNL     1      13.225  79.060 117.841  0.00  0.00    +0.045 C 
ENDROOT
BRANCH  10   9
ATOM      4  C   UNL     1      16.412  83.327 119.581  0.00  0.00    +0.077 A 
ATOM      5  C   UNL     1      17.556  82.893 118.834  0.00  0.00    +0.048 A 
ATOM      6  C   UNL     1      17.683  81.508 118.586  0.00  0.00    +0.116 A 
ATOM      7  N   UNL     1      16.729  80.631 119.056  0.00  0.00    -0.223 NA
ATOM      8  C   UNL     1      15.638  81.083 119.776  0.00  0.00    +0.220 A 
ATOM      9  N   UNL     1      14.662  80.220 120.251  0.00  0.00    -0.283 N 
ATOM     36  H   UNL     1      13.876  80.592 120.784  0.00  0.00    +0.155 HD
ATOM     37  N   UNL     1      15.495  82.401 120.026  0.00  0.00    -0.214 NA
BRANCH   4   3
ATOM      1  C   UNL     1      16.055  86.700 121.531  0.00  0.00    +0.020 A 
ATOM      2  C   UNL     1      16.336  85.309 121.256  0.00  0.00    +0.013 A 
ATOM      3  C   UNL     1      16.137  84.759 119.921  0.00  0.00    +0.019 A 
ATOM     38  C   UNL     1      15.650  85.650 118.878  0.00  0.00    +0.120 A 
ATOM     39  N   UNL     1      15.388  86.984 119.173  0.00  0.00    -0.263 NA
ATOM     40  C   UNL     1      15.574  87.524 120.454  0.00  0.00    +0.111 A 
ENDBRANCH   4   3
ENDBRANCH  10   9
BRANCH  12  13
ATOM     13  N   UNL     1      16.356  75.733 121.573  0.00  0.00    -0.281 N 
ATOM     14  C   UNL     1      17.651  75.267 121.415  0.00  0.00    +0.248 C 
ATOM     30  O   UNL     1      18.297  75.360 120.382  0.00  0.00    -0.270 OA
ATOM     31  H   UNL     1      15.867  75.421 122.412  0.00  0.00    +0.155 HD
BRANCH  14  15
ATOM     15  C   UNL     1      18.320  74.588 122.566  0.00  0.00    +0.037 A 
ATOM     16  C   UNL     1      18.169  73.149 122.792  0.00  0.00    +0.013 A 
ATOM     17  C   UNL     1      18.811  72.522 123.920  0.00  0.00    +0.005 A 
ATOM     18  C   UNL     1      19.612  73.336 124.831  0.00  0.00    -0.033 A 
ATOM     28  C   UNL     1      19.749  74.761 124.581  0.00  0.00    +0.005 A 
ATOM     29  C   UNL     1      19.121  75.379 123.477  0.00  0.00    +0.013 A 
BRANCH  18  19
ATOM     19  C   UNL     1      20.316  72.755 126.072  0.00  0.00    +0.119 C 
BRANCH  19  20
ATOM     20  N   UNL     1      19.448  72.287 127.194  0.00  0.00    -0.302 NA
ATOM     21  C   UNL     1      20.049  72.619 128.562  0.00  0.00    +0.066 C 
ATOM     22  C   UNL     1      19.117  72.142 129.724  0.00  0.00    -0.064 C 
ATOM     23  N   UNL     1      18.870  70.639 129.591  0.00  0.00    +0.379 N 
ATOM     24  C   UNL     1      18.042  70.177 130.715  0.00  0.00    -0.096 C 
ATOM     25  H   UNL     1      19.857  70.126 129.665  0.00  0.00    -0.082 HD
ATOM     26  C   UNL     1      18.275  70.299 128.232  0.00  0.00    -0.064 C 
ATOM     27  C   UNL     1      19.194  70.804 127.085  0.00  0.00    +0.066 C 
ENDBRANCH  19  20
ENDBRANCH  18  19
ENDBRANCH  14  15
ENDBRANCH  12  13
TORSDOF 6
ENDMDL
MODEL 2
REMARK VINA RESULT:      -7.7     33.620     39.898
REMARK  Name = C:\Users\Docking\Desktop\test protocol\1iep_ligandH.pdb
REMARK  8 active torsions:
REMARK  status: ('A' for Active; 'I' for Inactive)
REMARK    1  A    between atoms: _5  and  _11
REMARK    2  A    between atoms: _19  and  _21
REMARK    3  A    between atoms: _22  and  _66
REMARK    4  A    between atoms: _27  and  _30
REMARK    5  A    between atoms: _32  and  _33
REMARK    6  A    between atoms: _38  and  _43
REMARK    7  A    between atoms: _43  and  _46
REMARK    8  A    between atoms: _53  and  _55
REMARK                            x       y       z     vdW  Elec       q    Type
REMARK                         _______ _______ _______ _____ _____    ______ ____
ROOT
ATOM     10  C   UNL     1      -0.093  69.073 156.595  0.00  0.00    +0.038 A 
ATOM     11  C   UNL     1       0.861  69.803 157.350  0.00  0.00    +0.047 A 
ATOM     12  C   UNL     1       0.984  69.619 158.787  0.00  0.00    +0.035 A 
ATOM     32  C   UNL     1       0.121  68.680 159.424  0.00  0.00    +0.024 A 
ATOM     33  C   UNL     1      -0.855  67.930 158.673  0.00  0.00    +0.007 A 
ATOM     34  C   UNL     1      -0.982  68.109 157.255  0.00  0.00    -0.029 A 
ATOM     35  C   UNL     1      -2.050  67.283 156.501  0.00  0.00    +0.045 C 
ENDROOT
BRANCH  10   9
ATOM      4  C   UNL     1      -2.035  71.171 152.740  0.00  0.00    +0.077 A 
ATOM      5  C   UNL     1      -2.999  71.875 153.535  0.00  0.00    +0.048 A 
ATOM      6  C   UNL     1      -2.967  71.663 154.932  0.00  0.00    +0.116 A 
ATOM      7  N   UNL     1      -2.034  70.810 155.481  0.00  0.00    -0.223 NA
ATOM      8  C   UNL     1      -1.119  70.146 154.685  0.00  0.00    +0.220 A 
ATOM      9  N   UNL     1      -0.168  69.289 155.217  0.00  0.00    -0.283 N 
ATOM     36  H   UNL     1       0.485  68.812 154.596  0.00  0.00    +0.155 HD
ATOM     37  N   UNL     1      -1.131  70.329 153.349  0.00  0.00    -0.214 NA
BRANCH   4   3
ATOM      1  C   UNL     1      -2.952  71.658 148.968  0.00  0.00    +0.020 A 
ATOM      2  C   UNL     1      -3.097  71.549 150.402  0.00  0.00    +0.013 A 
ATOM      3  C   UNL     1      -1.941  71.292 151.250  0.00  0.00    +0.019 A 
ATOM     38  C   UNL     1      -0.640  71.150 150.613  0.00  0.00    +0.120 A 
ATOM     39  N   UNL     1      -0.531  71.258 149.230  0.00  0.00    -0.263 NA
ATOM     40  C   UNL     1      -1.637  71.503 148.403  0.00  0.00    +0.111 A 
ENDBRANCH   4   3
ENDBRANCH  10   9
BRANCH  12  13
ATOM     13  N   UNL     1       1.927  70.338 159.607  0.00  0.00    -0.281 N 
ATOM     14  C   UNL     1       3.028  69.833 160.281  0.00  0.00    +0.248 C 
ATOM     30  O   UNL     1       3.245  68.643 160.455  0.00  0.00    -0.270 OA
ATOM     31  H   UNL     1       1.765  71.340 159.701  0.00  0.00    +0.155 HD
BRANCH  14  15
ATOM     15  C   UNL     1       4.022  70.789 160.856  0.00  0.00    +0.037 A 
ATOM     16  C   UNL     1       3.674  72.190 161.104  0.00  0.00    +0.013 A 
ATOM     17  C   UNL     1       4.658  73.095 161.644  0.00  0.00    +0.005 A 
ATOM     18  C   UNL     1       6.000  72.600 161.942  0.00  0.00    -0.033 A 
ATOM     28  C   UNL     1       6.316  71.203 161.691  0.00  0.00    +0.005 A 
ATOM     29  C   UNL     1       5.355  70.314 161.161  0.00  0.00    +0.013 A 
BRANCH  18  19
ATOM     19  C   UNL     1       7.118  73.499 162.500  0.00  0.00    +0.119 C 
BRANCH  19  20
ATOM     20  N   UNL     1       6.720  74.838 163.027  0.00  0.00    -0.302 NA
ATOM     21  C   UNL     1       7.002  75.958 162.021  0.00  0.00    +0.066 C 
ATOM     22  C   UNL     1       6.559  77.350 162.579  0.00  0.00    -0.064 C 
ATOM     23  N   UNL     1       7.277  77.617 163.903  0.00  0.00    +0.379 N 
ATOM     24  C   UNL     1       6.906  78.950 164.401  0.00  0.00    -0.096 C 
ATOM     25  H   UNL     1       8.372  77.625 163.698  0.00  0.00    -0.082 HD
ATOM     26  C   UNL     1       7.004  76.507 164.908  0.00  0.00    -0.064 C 
ATOM     27  C   UNL     1       7.421  75.125 164.332  0.00  0.00    +0.066 C 
ENDBRANCH  19  20
ENDBRANCH  18  19
ENDBRANCH  14  15
ENDBRANCH  12  13
TORSDOF 6
ENDMDL
MODEL 3
REMARK VINA RESULT:      -7.7     26.130     31.630
REMARK  Name = C:\Users\Docking\Desktop\test protocol\1iep_ligandH.pdb
REMARK  8 active torsions:
REMARK  status: ('A' for Active; 'I' for Inactive)
REMARK    1  A    between atoms: _5  and  _11
REMARK    2  A    between atoms: _19  and  _21
REMARK    3  A    between atoms: _22  and  _66
REMARK    4  A    between atoms: _27  and  _30
REMARK    5  A    between atoms: _32  and  _33
REMARK    6  A    between atoms: _38  and  _43
REMARK    7  A    between atoms: _43  and  _46
REMARK    8  A    between atoms: _53  and  _55
REMARK                            x       y       z     vdW  Elec       q    Type
REMARK                         _______ _______ _______ _____ _____    ______ ____
ROOT
ATOM     10  C   UNL     1       3.183  67.595 149.491  0.00  0.00    +0.038 A 
ATOM     11  C   UNL     1       4.516  68.071 149.414  0.00  0.00    +0.047 A 
ATOM     12  C   UNL     1       5.385  67.700 148.308  0.00  0.00    +0.035 A 
ATOM     32  C   UNL     1       4.861  66.844 147.296  0.00  0.00    +0.024 A 
ATOM     33  C   UNL     1       3.509  66.349 147.359  0.00  0.00    +0.007 A 
ATOM     34  C   UNL     1       2.648  66.710 148.449  0.00  0.00    -0.029 A 
ATOM     35  C   UNL     1       1.208  66.145 148.470  0.00  0.00    +0.045 C 
ENDROOT
BRANCH  10   9
ATOM      4  C   UNL     1      -0.210  70.341 151.488  0.00  0.00    +0.077 A 
ATOM      5  C   UNL     1      -0.406  71.083 150.276  0.00  0.00    +0.048 A 
ATOM      6  C   UNL     1       0.391  70.732 149.164  0.00  0.00    +0.116 A 
ATOM      7  N   UNL     1       1.313  69.712 149.267  0.00  0.00    -0.223 NA
ATOM      8  C   UNL     1       1.478  69.018 150.452  0.00  0.00    +0.220 A 
ATOM      9  N   UNL     1       2.393  67.983 150.576  0.00  0.00    -0.283 N 
ATOM     36  H   UNL     1       2.490  67.501 151.469  0.00  0.00    +0.155 HD
ATOM     37  N   UNL     1       0.730  69.335 151.529  0.00  0.00    -0.214 NA
BRANCH   4   3
ATOM      1  C   UNL     1      -1.433  70.221 155.202  0.00  0.00    +0.020 A 
ATOM      2  C   UNL     1      -0.659  69.943 154.014  0.00  0.00    +0.013 A 
ATOM      3  C   UNL     1      -0.978  70.593 152.748  0.00  0.00    +0.019 A 
ATOM     38  C   UNL     1      -2.094  71.526 152.719  0.00  0.00    +0.120 A 
ATOM     39  N   UNL     1      -2.822  71.773 153.879  0.00  0.00    -0.263 NA
ATOM     40  C   UNL     1      -2.525  71.152 155.102  0.00  0.00    +0.111 A 
ENDBRANCH   4   3
ENDBRANCH  10   9
BRANCH  12  13
ATOM     13  N   UNL     1       6.750  68.146 148.180  0.00  0.00    -0.281 N 
ATOM     14  C   UNL     1       7.907  67.441 148.466  0.00  0.00    +0.248 C 
ATOM     30  O   UNL     1       7.938  66.385 149.082  0.00  0.00    -0.270 OA
ATOM     31  H   UNL     1       6.879  69.098 147.837  0.00  0.00    +0.155 HD
BRANCH  14  15
ATOM     15  C   UNL     1       9.221  67.994 148.016  0.00  0.00    +0.037 A 
ATOM     16  C   UNL     1      10.314  68.221 148.964  0.00  0.00    +0.013 A 
ATOM     17  C   UNL     1      11.565  68.772 148.507  0.00  0.00    +0.005 A 
ATOM     18  C   UNL     1      11.729  69.098 147.092  0.00  0.00    -0.033 A 
ATOM     28  C   UNL     1      10.630  68.858 146.173  0.00  0.00    +0.005 A 
ATOM     29  C   UNL     1       9.402  68.319 146.618  0.00  0.00    +0.013 A 
BRANCH  18  19
ATOM     19  C   UNL     1      13.022  69.709 146.519  0.00  0.00    +0.119 C 
BRANCH  19  20
ATOM     20  N   UNL     1      13.650  70.825 147.288  0.00  0.00    -0.302 NA
ATOM     21  C   UNL     1      13.989  72.020 146.392  0.00  0.00    +0.066 C 
ATOM     22  C   UNL     1      14.624  73.187 147.216  0.00  0.00    -0.064 C 
ATOM     23  N   UNL     1      15.874  72.678 147.936  0.00  0.00    +0.379 N 
ATOM     24  C   UNL     1      16.506  73.787 148.665  0.00  0.00    -0.096 C 
ATOM     25  H   UNL     1      16.594  72.330 147.158  0.00  0.00    -0.082 HD
ATOM     26  C   UNL     1      15.546  71.488 148.827  0.00  0.00    -0.064 C 
ATOM     27  C   UNL     1      14.889  70.345 148.003  0.00  0.00    +0.066 C 
ENDBRANCH  19  20
ENDBRANCH  18  19
ENDBRANCH  14  15
ENDBRANCH  12  13
TORSDOF 6
ENDMDL
MODEL 4
REMARK VINA RESULT:      -7.6     37.429     41.920
REMARK  Name = C:\Users\Docking\Desktop\test protocol\1iep_ligandH.pdb
REMARK  8 active torsions:
REMARK  status: ('A' for Active; 'I' for Inactive)
REMARK    1  A    between atoms: _5  and  _11
REMARK    2  A    between atoms: _19  and  _21
REMARK    3  A    between atoms: _22  and  _66
REMARK    4  A    between atoms: _27  and  _30
REMARK    5  A    between atoms: _32  and  _33
REMARK    6  A    between atoms: _38  and  _43
REMARK    7  A    between atoms: _43  and  _46
REMARK    8  A    between atoms: _53  and  _55
REMARK                            x       y       z     vdW  Elec       q    Type
REMARK                         _______ _______ _______ _____ _____    ______ ____
ROOT
ATOM     10  C   UNL     1      -2.868 104.967 143.570  0.00  0.00    +0.038 A 
ATOM     11  C   UNL     1      -2.946 105.601 142.304  0.00  0.00    +0.047 A 
ATOM     12  C   UNL     1      -1.939 106.562 141.881  0.00  0.00    +0.035 A 
ATOM     32  C   UNL     1      -0.864 106.850 142.772  0.00  0.00    +0.024 A 
ATOM     33  C   UNL     1      -0.770 106.215 144.063  0.00  0.00    +0.007 A 
ATOM     34  C   UNL     1      -1.762 105.269 144.486  0.00  0.00    -0.029 A 
ATOM     35  C   UNL     1      -1.615 104.623 145.884  0.00  0.00    +0.045 C 
ENDROOT
BRANCH  10   9
ATOM      4  C   UNL     1      -7.152 103.889 145.449  0.00  0.00    +0.077 A 
ATOM      5  C   UNL     1      -7.419 105.261 145.775  0.00  0.00    +0.048 A 
ATOM      6  C   UNL     1      -6.426 106.211 145.450  0.00  0.00    +0.116 A 
ATOM      7  N   UNL     1      -5.256 105.809 144.842  0.00  0.00    -0.223 NA
ATOM      8  C   UNL     1      -5.029 104.478 144.543  0.00  0.00    +0.220 A 
ATOM      9  N   UNL     1      -3.863 104.052 143.925  0.00  0.00    -0.283 N 
ATOM     36  H   UNL     1      -3.730 103.061 143.728  0.00  0.00    +0.155 HD
ATOM     37  N   UNL     1      -5.961 103.551 144.845  0.00  0.00    -0.214 NA
BRANCH   4   3
ATOM      1  C   UNL     1      -8.711 100.322 145.831  0.00  0.00    +0.020 A 
ATOM      2  C   UNL     1      -7.753 101.366 145.547  0.00  0.00    +0.013 A 
ATOM      3  C   UNL     1      -8.105 102.769 145.728  0.00  0.00    +0.019 A 
ATOM     38  C   UNL     1      -9.444 103.084 146.201  0.00  0.00    +0.120 A 
ATOM     39  N   UNL     1     -10.346 102.058 146.465  0.00  0.00    -0.263 NA
ATOM     40  C   UNL     1     -10.019 100.704 146.293  0.00  0.00    +0.111 A 
ENDBRANCH   4   3
ENDBRANCH  10   9
BRANCH  12  13
ATOM     13  N   UNL     1      -1.969 107.244 140.611  0.00  0.00    -0.281 N 
ATOM     14  C   UNL     1      -2.659 108.399 140.281  0.00  0.00    +0.248 C 
ATOM     30  O   UNL     1      -3.530 108.905 140.973  0.00  0.00    -0.270 OA
ATOM     31  H   UNL     1      -1.415 106.824 139.864  0.00  0.00    +0.155 HD
BRANCH  14  15
ATOM     15  C   UNL     1      -2.347 109.082 138.989  0.00  0.00    +0.037 A 
ATOM     16  C   UNL     1      -0.969 109.405 138.614  0.00  0.00    +0.013 A 
ATOM     17  C   UNL     1      -0.697 110.080 137.369  0.00  0.00    +0.005 A 
ATOM     18  C   UNL     1      -1.808 110.435 136.489  0.00  0.00    -0.033 A 
ATOM     28  C   UNL     1      -3.165 110.097 136.884  0.00  0.00    +0.005 A 
ATOM     29  C   UNL     1      -3.436 109.437 138.103  0.00  0.00    +0.013 A 
BRANCH  18  19
ATOM     19  C   UNL     1      -1.613 111.174 135.153  0.00  0.00    +0.119 C 
BRANCH  19  20
ATOM     20  N   UNL     1      -1.397 110.339 133.934  0.00  0.00    -0.302 NA
ATOM     21  C   UNL     1       0.082 110.002 133.723  0.00  0.00    +0.066 C 
ATOM     22  C   UNL     1       0.287 109.108 132.457  0.00  0.00    -0.064 C 
ATOM     23  N   UNL     1      -0.285 109.825 131.232  0.00  0.00    +0.379 N 
ATOM     24  C   UNL     1      -0.042 109.014 130.031  0.00  0.00    -0.096 C 
ATOM     25  H   UNL     1       0.272 110.784 131.112  0.00  0.00    -0.082 HD
ATOM     26  C   UNL     1      -1.754 110.167 131.434  0.00  0.00    -0.064 C 
ATOM     27  C   UNL     1      -1.950 111.030 132.712  0.00  0.00    +0.066 C 
ENDBRANCH  19  20
ENDBRANCH  18  19
ENDBRANCH  14  15
ENDBRANCH  12  13
TORSDOF 6
ENDMDL
MODEL 5
REMARK VINA RESULT:      -7.6     28.077     35.695
REMARK  Name = C:\Users\Docking\Desktop\test protocol\1iep_ligandH.pdb
REMARK  8 active torsions:
REMARK  status: ('A' for Active; 'I' for Inactive)
REMARK    1  A    between atoms: _5  and  _11
REMARK    2  A    between atoms: _19  and  _21
REMARK    3  A    between atoms: _22  and  _66
REMARK    4  A    between atoms: _27  and  _30
REMARK    5  A    between atoms: _32  and  _33
REMARK    6  A    between atoms: _38  and  _43
REMARK    7  A    between atoms: _43  and  _46
REMARK    8  A    between atoms: _53  and  _55
REMARK                            x       y       z     vdW  Elec       q    Type
REMARK                         _______ _______ _______ _____ _____    ______ ____
ROOT
ATOM     10  C   UNL     1      -1.126  70.702 152.752  0.00  0.00    +0.038 A 
ATOM     11  C   UNL     1       0.105  70.271 152.193  0.00  0.00    +0.047 A 
ATOM     12  C   UNL     1       0.208  69.910 150.788  0.00  0.00    +0.035 A 
ATOM     32  C   UNL     1      -0.962  70.001 149.979  0.00  0.00    +0.024 A 
ATOM     33  C   UNL     1      -2.221  70.436 150.530  0.00  0.00    +0.007 A 
ATOM     34  C   UNL     1      -2.330  70.791 151.917  0.00  0.00    -0.029 A 
ATOM     35  C   UNL     1      -3.707  71.244 152.455  0.00  0.00    +0.045 C 
ENDROOT
BRANCH  10   9
ATOM      4  C   UNL     1      -1.219  69.519 157.402  0.00  0.00    +0.077 A 
ATOM      5  C   UNL     1      -1.210  68.115 157.107  0.00  0.00    +0.048 A 
ATOM      6  C   UNL     1      -1.189  67.740 155.745  0.00  0.00    +0.116 A 
ATOM      7  N   UNL     1      -1.177  68.704 154.761  0.00  0.00    -0.223 NA
ATOM      8  C   UNL     1      -1.188  70.049 155.080  0.00  0.00    +0.220 A 
ATOM      9  N   UNL     1      -1.168  71.036 154.107  0.00  0.00    -0.283 N 
ATOM     36  H   UNL     1      -1.184  72.018 154.384  0.00  0.00    +0.155 HD
ATOM     37  N   UNL     1      -1.210  70.434 156.373  0.00  0.00    -0.214 NA
BRANCH   4   3
ATOM      1  C   UNL     1      -2.334  70.454 161.033  0.00  0.00    +0.020 A 
ATOM      2  C   UNL     1      -2.366  69.899 159.700  0.00  0.00    +0.013 A 
ATOM      3  C   UNL     1      -1.239  70.074 158.793  0.00  0.00    +0.019 A 
ATOM     38  C   UNL     1      -0.085  70.822 159.270  0.00  0.00    +0.120 A 
ATOM     39  N   UNL     1      -0.083  71.346 160.558  0.00  0.00    -0.263 NA
ATOM     40  C   UNL     1      -1.162  71.186 161.440  0.00  0.00    +0.111 A 
ENDBRANCH   4   3
ENDBRANCH  10   9
BRANCH  12  13
ATOM     13  N   UNL     1       1.429  69.458 150.167  0.00  0.00    -0.281 N 
ATOM     14  C   UNL     1       2.125  68.286 150.412  0.00  0.00    +0.248 C 
ATOM     30  O   UNL     1       1.917  67.543 151.360  0.00  0.00    -0.270 OA
ATOM     31  H   UNL     1       1.828  70.078 149.462  0.00  0.00    +0.155 HD
BRANCH  14  15
ATOM     15  C   UNL     1       3.221  67.888 149.476  0.00  0.00    +0.037 A 
ATOM     16  C   UNL     1       4.504  68.595 149.465  0.00  0.00    +0.013 A 
ATOM     17  C   UNL     1       5.538  68.202 148.540  0.00  0.00    +0.005 A 
ATOM     18  C   UNL     1       5.292  67.095 147.619  0.00  0.00    -0.033 A 
ATOM     28  C   UNL     1       4.012  66.408 147.655  0.00  0.00    +0.005 A 
ATOM     29  C   UNL     1       2.996  66.791 148.560  0.00  0.00    +0.013 A 
BRANCH  18  19
ATOM     19  C   UNL     1       6.330  66.622 146.584  0.00  0.00    +0.119 C 
BRANCH  19  20
ATOM     20  N   UNL     1       7.740  67.076 146.773  0.00  0.00    -0.302 NA
ATOM     21  C   UNL     1       8.474  67.242 145.439  0.00  0.00    +0.066 C 
ATOM     22  C   UNL     1       9.940  67.739 145.654  0.00  0.00    -0.064 C 
ATOM     23  N   UNL     1      10.682  66.756 146.561  0.00  0.00    +0.379 N 
ATOM     24  C   UNL     1      12.078  67.190 146.718  0.00  0.00    -0.096 C 
ATOM     25  H   UNL     1      10.691  65.765 146.050  0.00  0.00    -0.082 HD
ATOM     26  C   UNL     1       9.957  66.583 147.889  0.00  0.00    -0.064 C 
ATOM     27  C   UNL     1       8.492  66.117 147.663  0.00  0.00    +0.066 C 
ENDBRANCH  19  20
ENDBRANCH  18  19
ENDBRANCH  14  15
ENDBRANCH  12  13
TORSDOF 6
ENDMDL
