MODEL 1
REMARK VINA RESULT:      -8.0      0.000      0.000
REMARK  Name = C:\Users\Docking\Desktop\test protocol\1iep_ligandH.pdb
REMARK  8 active torsions:
REMARK  status: ('A' for Active; 'I' for Inactive)
REMARK    1  A    between atoms: _5  and  _11
REMARK    2  A    between atoms: _19  and  _21
REMARK    3  A    between atoms: _22  and  _66
REMARK    4  A    between atoms: _27  and  _30
REMARK    5  A    between atoms: _32  and  _33
REMARK    6  A    between atoms: _38  and  _43
REMARK    7  A    between atoms: _43  and  _46
REMARK    8  A    between atoms: _53  and  _55
REMARK                            x       y       z     vdW  Elec       q    Type
REMARK                         _______ _______ _______ _____ _____    ______ ____
ROOT
ATOM     10  C   UNL     1      14.768  78.758 120.036  0.00  0.00    +0.038 A 
ATOM     11  C   UNL     1      15.476  77.940 120.954  0.00  0.00    +0.047 A 
ATOM     12  C   UNL     1      15.593  76.505 120.747  0.00  0.00    +0.035 A 
ATOM     32  C   UNL     1      14.979  75.937 119.593  0.00  0.00    +0.024 A 
ATOM     33  C   UNL     1      14.254  76.753 118.651  0.00  0.00    +0.007 A 
ATOM     34  C   UNL     1      14.133  78.169 118.851  0.00  0.00    -0.029 A 
ATOM     35  C   UNL     1      13.339  78.994 117.812  0.00  0.00    +0.045 C 
ENDROOT
BRANCH  10   9
ATOM      4  C   UNL     1      16.415  83.244 119.590  0.00  0.00    +0.077 A 
ATOM      5  C   UNL     1      17.547  82.815 118.820  0.00  0.00    +0.048 A 
ATOM      6  C   UNL     1      17.673  81.431 118.568  0.00  0.00    +0.116 A 
ATOM      7  N   UNL     1      16.730  80.550 119.053  0.00  0.00    -0.223 NA
ATOM      8  C   UNL     1      15.651  80.997 119.793  0.00  0.00    +0.220 A 
ATOM      9  N   UNL     1      14.687  80.131 120.284  0.00  0.00    -0.283 N 
ATOM     36  H   UNL     1      13.910  80.499 120.832  0.00  0.00    +0.155 HD
ATOM     37  N   UNL     1      15.509  82.314 120.049  0.00  0.00    -0.214 NA
BRANCH   4   3
ATOM      1  C   UNL     1      16.060  86.606 121.559  0.00  0.00    +0.020 A 
ATOM      2  C   UNL     1      16.338  85.216 121.276  0.00  0.00    +0.013 A 
ATOM      3  C   UNL     1      16.142  84.675 119.937  0.00  0.00    +0.019 A 
ATOM     38  C   UNL     1      15.661  85.573 118.898  0.00  0.00    +0.120 A 
ATOM     39  N   UNL     1      15.401  86.906 119.200  0.00  0.00    -0.263 NA
ATOM     40  C   UNL     1      15.584  87.438 120.485  0.00  0.00    +0.111 A 
ENDBRANCH   4   3
ENDBRANCH  10   9
BRANCH  12  13
ATOM     13  N   UNL     1      16.293  75.623 121.648  0.00  0.00    -0.281 N 
ATOM     14  C   UNL     1      17.506  74.987 121.446  0.00  0.00    +0.248 C 
ATOM     30  O   UNL     1      18.076  74.911 120.367  0.00  0.00    -0.270 OA
ATOM     31  H   UNL     1      15.837  75.446 122.544  0.00  0.00    +0.155 HD
BRANCH  14  15
ATOM     15  C   UNL     1      18.178  74.328 122.607  0.00  0.00    +0.037 A 
ATOM     16  C   UNL     1      18.864  75.115 123.635  0.00  0.00    +0.013 A 
ATOM     17  C   UNL     1      19.518  74.453 124.736  0.00  0.00    +0.005 A 
ATOM     18  C   UNL     1      19.489  72.994 124.814  0.00  0.00    -0.033 A 
ATOM     28  C   UNL     1      18.797  72.238 123.783  0.00  0.00    +0.005 A 
ATOM     29  C   UNL     1      18.155  72.884 122.702  0.00  0.00    +0.013 A 
BRANCH  18  19
ATOM     19  C   UNL     1      20.179  72.203 125.941  0.00  0.00    +0.119 C 
BRANCH  19  20
ATOM     20  N   UNL     1      19.344  71.826 127.121  0.00  0.00    -0.302 NA
ATOM     21  C   UNL     1      19.830  72.500 128.407  0.00  0.00    +0.066 C 
ATOM     22  C   UNL     1      18.933  72.113 129.627  0.00  0.00    -0.064 C 
ATOM     23  N   UNL     1      18.921  70.591 129.785  0.00  0.00    +0.379 N 
ATOM     24  C   UNL     1      18.125  70.227 130.966  0.00  0.00    -0.096 C 
ATOM     25  H   UNL     1      19.970  70.262 129.969  0.00  0.00    -0.082 HD
ATOM     26  C   UNL     1      18.441  69.913 128.510  0.00  0.00    -0.064 C 
ATOM     27  C   UNL     1      19.322  70.328 127.298  0.00  0.00    +0.066 C 
ENDBRANCH  19  20
ENDBRANCH  18  19
ENDBRANCH  14  15
ENDBRANCH  12  13
TORSDOF 6
ENDMDL
MODEL 2
REMARK VINA RESULT:      -7.7     40.231     42.221
REMARK  Name = C:\Users\Docking\Desktop\test protocol\1iep_ligandH.pdb
REMARK  8 active torsions:
REMARK  status: ('A' for Active; 'I' for Inactive)
REMARK    1  A    between atoms: _5  and  _11
REMARK    2  A    between atoms: _19  and  _21
REMARK    3  A    between atoms: _22  and  _66
REMARK    4  A    between atoms: _27  and  _30
REMARK    5  A    between atoms: _32  and  _33
REMARK    6  A    between atoms: _38  and  _43
REMARK    7  A    between atoms: _43  and  _46
REMARK    8  A    between atoms: _53  and  _55
REMARK                            x       y       z     vdW  Elec       q    Type
REMARK                         _______ _______ _______ _____ _____    ______ ____
ROOT
ATOM     10  C   UNL     1      -2.374 105.767 142.714  0.00  0.00    +0.038 A 
ATOM     11  C   UNL     1      -3.520 105.026 143.101  0.00  0.00    +0.047 A 
ATOM     12  C   UNL     1      -3.632 104.456 144.435  0.00  0.00    +0.035 A 
ATOM     32  C   UNL     1      -2.559 104.662 145.350  0.00  0.00    +0.024 A 
ATOM     33  C   UNL     1      -1.386 105.412 144.973  0.00  0.00    +0.007 A 
ATOM     34  C   UNL     1      -1.269 105.975 143.658  0.00  0.00    -0.029 A 
ATOM     35  C   UNL     1       0.014 106.764 143.306  0.00  0.00    +0.045 C 
ENDROOT
BRANCH  10   9
ATOM      4  C   UNL     1      -3.237 109.241 139.517  0.00  0.00    +0.077 A 
ATOM      5  C   UNL     1      -3.875 110.069 140.500  0.00  0.00    +0.048 A 
ATOM      6  C   UNL     1      -3.967 109.561 141.815  0.00  0.00    +0.116 A 
ATOM      7  N   UNL     1      -3.455 108.316 142.113  0.00  0.00    -0.223 NA
ATOM      8  C   UNL     1      -2.848 107.543 141.141  0.00  0.00    +0.220 A 
ATOM      9  N   UNL     1      -2.319 106.292 141.421  0.00  0.00    -0.283 N 
ATOM     36  H   UNL     1      -1.885 105.750 140.674  0.00  0.00    +0.155 HD
ATOM     37  N   UNL     1      -2.749 108.005 139.877  0.00  0.00    -0.214 NA
BRANCH   4   3
ATOM      1  C   UNL     1      -3.905 109.940 135.726  0.00  0.00    +0.020 A 
ATOM      2  C   UNL     1      -4.127 109.541 137.097  0.00  0.00    +0.013 A 
ATOM      3  C   UNL     1      -3.060 109.640 138.085  0.00  0.00    +0.019 A 
ATOM     38  C   UNL     1      -1.770 110.153 137.650  0.00  0.00    +0.120 A 
ATOM     39  N   UNL     1      -1.584 110.529 136.323  0.00  0.00    -0.263 NA
ATOM     40  C   UNL     1      -2.603 110.436 135.363  0.00  0.00    +0.111 A 
ENDBRANCH   4   3
ENDBRANCH  10   9
BRANCH  12  13
ATOM     13  N   UNL     1      -4.767 103.688 144.882  0.00  0.00    -0.281 N 
ATOM     14  C   UNL     1      -5.869 104.132 145.594  0.00  0.00    +0.248 C 
ATOM     30  O   UNL     1      -5.943 105.221 146.143  0.00  0.00    -0.270 OA
ATOM     31  H   UNL     1      -4.757 102.696 144.644  0.00  0.00    +0.155 HD
BRANCH  14  15
ATOM     15  C   UNL     1      -7.053 103.230 145.729  0.00  0.00    +0.037 A 
ATOM     16  C   UNL     1      -6.948 101.793 145.464  0.00  0.00    +0.013 A 
ATOM     17  C   UNL     1      -8.110 100.949 145.584  0.00  0.00    +0.005 A 
ATOM     18  C   UNL     1      -9.388 101.540 145.974  0.00  0.00    -0.033 A 
ATOM     28  C   UNL     1      -9.463 102.968 146.235  0.00  0.00    +0.005 A 
ATOM     29  C   UNL     1      -8.326 103.799 146.117  0.00  0.00    +0.013 A 
BRANCH  18  19
ATOM     19  C   UNL     1     -10.684 100.719 146.106  0.00  0.00    +0.119 C 
BRANCH  19  20
ATOM     20  N   UNL     1     -11.924 101.297 145.508  0.00  0.00    -0.302 NA
ATOM     21  C   UNL     1     -13.010 101.541 146.560  0.00  0.00    +0.066 C 
ATOM     22  C   UNL     1     -14.292 102.167 145.920  0.00  0.00    -0.064 C 
ATOM     23  N   UNL     1     -14.808 101.246 144.813  0.00  0.00    +0.379 N 
ATOM     24  C   UNL     1     -16.046 101.803 144.249  0.00  0.00    -0.096 C 
ATOM     25  H   UNL     1     -15.060 100.265 145.280  0.00  0.00    -0.082 HD
ATOM     26  C   UNL     1     -13.734 100.996 143.764  0.00  0.00    -0.064 C 
ATOM     27  C   UNL     1     -12.454 100.401 144.415  0.00  0.00    +0.066 C 
ENDBRANCH  19  20
ENDBRANCH  18  19
ENDBRANCH  14  15
ENDBRANCH  12  13
TORSDOF 6
ENDMDL
MODEL 3
REMARK VINA RESULT:      -7.7      2.570     12.835
REMARK  Name = C:\Users\Docking\Desktop\test protocol\1iep_ligandH.pdb
REMARK  8 active torsions:
REMARK  status: ('A' for Active; 'I' for Inactive)
REMARK    1  A    between atoms: _5  and  _11
REMARK    2  A    between atoms: _19  and  _21
REMARK    3  A    between atoms: _22  and  _66
REMARK    4  A    between atoms: _27  and  _30
REMARK    5  A    between atoms: _32  and  _33
REMARK    6  A    between atoms: _38  and  _43
REMARK    7  A    between atoms: _43  and  _46
REMARK    8  A    between atoms: _53  and  _55
REMARK                            x       y       z     vdW  Elec       q    Type
REMARK                         _______ _______ _______ _____ _____    ______ ____
ROOT
ATOM     10  C   UNL     1      15.338  77.841 120.893  0.00  0.00    +0.038 A 
ATOM     11  C   UNL     1      15.586  79.205 121.191  0.00  0.00    +0.047 A 
ATOM     12  C   UNL     1      15.099  80.266 120.323  0.00  0.00    +0.035 A 
ATOM     32  C   UNL     1      14.359  79.901 119.160  0.00  0.00    +0.024 A 
ATOM     33  C   UNL     1      14.099  78.519 118.841  0.00  0.00    +0.007 A 
ATOM     34  C   UNL     1      14.579  77.468 119.693  0.00  0.00    -0.029 A 
ATOM     35  C   UNL     1      14.275  76.004 119.298  0.00  0.00    +0.045 C 
ENDROOT
BRANCH  10   9
ATOM      4  C   UNL     1      18.828  74.947 122.469  0.00  0.00    +0.077 A 
ATOM      5  C   UNL     1      19.741  75.402 121.461  0.00  0.00    +0.048 A 
ATOM      6  C   UNL     1      19.272  76.376 120.552  0.00  0.00    +0.116 A 
ATOM      7  N   UNL     1      17.983  76.853 120.653  0.00  0.00    -0.223 NA
ATOM      8  C   UNL     1      17.127  76.392 121.636  0.00  0.00    +0.220 A 
ATOM      9  N   UNL     1      15.829  76.863 121.761  0.00  0.00    -0.283 N 
ATOM     36  H   UNL     1      15.226  76.492 122.495  0.00  0.00    +0.155 HD
ATOM     37  N   UNL     1      17.551  75.461 122.515  0.00  0.00    -0.214 NA
BRANCH   4   3
ATOM      1  C   UNL     1      18.994  71.625 124.527  0.00  0.00    +0.020 A 
ATOM      2  C   UNL     1      18.623  72.576 123.504  0.00  0.00    +0.013 A 
ATOM      3  C   UNL     1      19.177  73.924 123.504  0.00  0.00    +0.019 A 
ATOM     38  C   UNL     1      20.112  74.280 124.561  0.00  0.00    +0.120 A 
ATOM     39  N   UNL     1      20.449  73.344 125.534  0.00  0.00    -0.263 NA
ATOM     40  C   UNL     1      19.921  72.045 125.545  0.00  0.00    +0.111 A 
ENDBRANCH   4   3
ENDBRANCH  10   9
BRANCH  12  13
ATOM     13  N   UNL     1      15.327  81.668 120.570  0.00  0.00    -0.281 N 
ATOM     14  C   UNL     1      16.105  82.547 119.835  0.00  0.00    +0.248 C 
ATOM     30  O   UNL     1      16.898  82.209 118.969  0.00  0.00    -0.270 OA
ATOM     31  H   UNL     1      14.858  82.060 121.387  0.00  0.00    +0.155 HD
BRANCH  14  15
ATOM     15  C   UNL     1      15.997  84.012 120.111  0.00  0.00    +0.037 A 
ATOM     16  C   UNL     1      16.123  84.540 121.472  0.00  0.00    +0.013 A 
ATOM     17  C   UNL     1      15.997  85.955 121.712  0.00  0.00    +0.005 A 
ATOM     18  C   UNL     1      15.745  86.854 120.588  0.00  0.00    -0.033 A 
ATOM     28  C   UNL     1      15.630  86.303 119.248  0.00  0.00    +0.005 A 
ATOM     29  C   UNL     1      15.751  84.916 119.008  0.00  0.00    +0.013 A 
BRANCH  18  19
ATOM     19  C   UNL     1      15.576  88.375 120.755  0.00  0.00    +0.119 C 
BRANCH  19  20
ATOM     20  N   UNL     1      16.789  89.224 120.558  0.00  0.00    -0.302 NA
ATOM     21  C   UNL     1      18.065  88.521 121.032  0.00  0.00    +0.066 C 
ATOM     22  C   UNL     1      19.327  89.414 120.798  0.00  0.00    -0.064 C 
ATOM     23  N   UNL     1      19.144  90.750 121.520  0.00  0.00    +0.379 N 
ATOM     24  C   UNL     1      20.353  91.568 121.350  0.00  0.00    -0.096 C 
ATOM     25  H   UNL     1      19.032  90.533 122.608  0.00  0.00    -0.082 HD
ATOM     26  C   UNL     1      17.877  91.454 121.057  0.00  0.00    -0.064 C 
ATOM     27  C   UNL     1      16.632  90.547 121.267  0.00  0.00    +0.066 C 
ENDBRANCH  19  20
ENDBRANCH  18  19
ENDBRANCH  14  15
ENDBRANCH  12  13
TORSDOF 6
ENDMDL
MODEL 4
REMARK VINA RESULT:      -7.7     30.039     37.596
REMARK  Name = C:\Users\Docking\Desktop\test protocol\1iep_ligandH.pdb
REMARK  8 active torsions:
REMARK  status: ('A' for Active; 'I' for Inactive)
REMARK    1  A    between atoms: _5  and  _11
REMARK    2  A    between atoms: _19  and  _21
REMARK    3  A    between atoms: _22  and  _66
REMARK    4  A    between atoms: _27  and  _30
REMARK    5  A    between atoms: _32  and  _33
REMARK    6  A    between atoms: _38  and  _43
REMARK    7  A    between atoms: _43  and  _46
REMARK    8  A    between atoms: _53  and  _55
REMARK                            x       y       z     vdW  Elec       q    Type
REMARK                         _______ _______ _______ _____ _____    ______ ____
ROOT
ATOM     10  C   UNL     1       0.438  69.883 152.458  0.00  0.00    +0.038 A 
ATOM     11  C   UNL     1       1.004  70.001 153.753  0.00  0.00    +0.047 A 
ATOM     12  C   UNL     1       0.173  70.267 154.916  0.00  0.00    +0.035 A 
ATOM     32  C   UNL     1      -1.233  70.404 154.725  0.00  0.00    +0.024 A 
ATOM     33  C   UNL     1      -1.825  70.289 153.416  0.00  0.00    +0.007 A 
ATOM     34  C   UNL     1      -1.010  70.029 152.264  0.00  0.00    -0.029 A 
ATOM     35  C   UNL     1      -1.698  69.922 150.883  0.00  0.00    +0.045 C 
ENDROOT
BRANCH  10   9
ATOM      4  C   UNL     1       2.816  66.886 149.560  0.00  0.00    +0.077 A 
ATOM      5  C   UNL     1       2.358  65.732 150.280  0.00  0.00    +0.048 A 
ATOM      6  C   UNL     1       1.518  65.954 151.394  0.00  0.00    +0.116 A 
ATOM      7  N   UNL     1       1.168  67.238 151.752  0.00  0.00    -0.223 NA
ATOM      8  C   UNL     1       1.629  68.328 151.038  0.00  0.00    +0.220 A 
ATOM      9  N   UNL     1       1.283  69.628 151.375  0.00  0.00    -0.283 N 
ATOM     36  H   UNL     1       1.650  70.406 150.828  0.00  0.00    +0.155 HD
ATOM     37  N   UNL     1       2.433  68.143 149.971  0.00  0.00    -0.214 NA
BRANCH   4   3
ATOM      1  C   UNL     1       5.885  67.247 147.162  0.00  0.00    +0.020 A 
ATOM      2  C   UNL     1       5.066  67.342 148.348  0.00  0.00    +0.013 A 
ATOM      3  C   UNL     1       3.707  66.814 148.359  0.00  0.00    +0.019 A 
ATOM     38  C   UNL     1       3.204  66.192 147.144  0.00  0.00    +0.120 A 
ATOM     39  N   UNL     1       4.016  66.116 146.017  0.00  0.00    -0.263 NA
ATOM     40  C   UNL     1       5.324  66.621 145.994  0.00  0.00    +0.111 A 
ENDBRANCH   4   3
ENDBRANCH  10   9
BRANCH  12  13
ATOM     13  N   UNL     1       0.693  70.404 156.254  0.00  0.00    -0.281 N 
ATOM     14  C   UNL     1       0.743  69.444 157.251  0.00  0.00    +0.248 C 
ATOM     30  O   UNL     1       0.150  68.376 157.213  0.00  0.00    -0.270 OA
ATOM     31  H   UNL     1       1.070  71.321 156.496  0.00  0.00    +0.155 HD
BRANCH  14  15
ATOM     15  C   UNL     1       1.558  69.715 158.475  0.00  0.00    +0.037 A 
ATOM     16  C   UNL     1       1.262  70.853 159.348  0.00  0.00    +0.013 A 
ATOM     17  C   UNL     1       2.074  71.102 160.513  0.00  0.00    +0.005 A 
ATOM     18  C   UNL     1       3.190  70.208 160.811  0.00  0.00    -0.033 A 
ATOM     28  C   UNL     1       3.458  69.083 159.931  0.00  0.00    +0.005 A 
ATOM     29  C   UNL     1       2.665  68.837 158.788  0.00  0.00    +0.013 A 
BRANCH  18  19
ATOM     19  C   UNL     1       4.122  70.410 162.021  0.00  0.00    +0.119 C 
BRANCH  19  20
ATOM     20  N   UNL     1       4.653  71.786 162.253  0.00  0.00    -0.302 NA
ATOM     21  C   UNL     1       5.852  72.099 161.354  0.00  0.00    +0.066 C 
ATOM     22  C   UNL     1       6.380  73.551 161.594  0.00  0.00    -0.064 C 
ATOM     23  N   UNL     1       6.751  73.718 163.069  0.00  0.00    +0.379 N 
ATOM     24  C   UNL     1       7.303  75.063 163.286  0.00  0.00    -0.096 C 
ATOM     25  H   UNL     1       7.555  72.981 163.300  0.00  0.00    -0.082 HD
ATOM     26  C   UNL     1       5.565  73.406 163.970  0.00  0.00    -0.064 C 
ATOM     27  C   UNL     1       5.029  71.972 163.703  0.00  0.00    +0.066 C 
ENDBRANCH  19  20
ENDBRANCH  18  19
ENDBRANCH  14  15
ENDBRANCH  12  13
TORSDOF 6
ENDMDL
MODEL 5
REMARK VINA RESULT:      -7.6     24.541     29.024
REMARK  Name = C:\Users\Docking\Desktop\test protocol\1iep_ligandH.pdb
REMARK  8 active torsions:
REMARK  status: ('A' for Active; 'I' for Inactive)
REMARK    1  A    between atoms: _5  and  _11
REMARK    2  A    between atoms: _19  and  _21
REMARK    3  A    between atoms: _22  and  _66
REMARK    4  A    between atoms: _27  and  _30
REMARK    5  A    between atoms: _32  and  _33
REMARK    6  A    between atoms: _38  and  _43
REMARK    7  A    between atoms: _43  and  _46
REMARK    8  A    between atoms: _53  and  _55
REMARK                            x       y       z     vdW  Elec       q    Type
REMARK                         _______ _______ _______ _____ _____    ______ ____
ROOT
ATOM     10  C   UNL     1      -3.981  93.465 128.834  0.00  0.00    +0.038 A 
ATOM     11  C   UNL     1      -2.910  94.387 128.706  0.00  0.00    +0.047 A 
ATOM     12  C   UNL     1      -3.140  95.748 128.246  0.00  0.00    +0.035 A 
ATOM     32  C   UNL     1      -4.474  96.137 127.927  0.00  0.00    +0.024 A 
ATOM     33  C   UNL     1      -5.573  95.213 128.050  0.00  0.00    +0.007 A 
ATOM     34  C   UNL     1      -5.352  93.868 128.501  0.00  0.00    -0.029 A 
ATOM     35  C   UNL     1      -6.568  92.918 128.609  0.00  0.00    +0.045 C 
ENDROOT
BRANCH  10   9
ATOM      4  C   UNL     1      -3.954  90.074 132.231  0.00  0.00    +0.077 A 
ATOM      5  C   UNL     1      -4.516  90.964 133.206  0.00  0.00    +0.048 A 
ATOM      6  C   UNL     1      -4.791  92.287 132.795  0.00  0.00    +0.116 A 
ATOM      7  N   UNL     1      -4.520  92.681 131.503  0.00  0.00    -0.223 NA
ATOM      8  C   UNL     1      -3.976  91.799 130.587  0.00  0.00    +0.220 A 
ATOM      9  N   UNL     1      -3.703  92.171 129.280  0.00  0.00    -0.283 N 
ATOM     36  H   UNL     1      -3.295  91.493 128.638  0.00  0.00    +0.155 HD
ATOM     37  N   UNL     1      -3.703  90.530 130.956  0.00  0.00    -0.214 NA
BRANCH   4   3
ATOM      1  C   UNL     1      -4.234  86.265 133.074  0.00  0.00    +0.020 A 
ATOM      2  C   UNL     1      -4.618  87.633 132.810  0.00  0.00    +0.013 A 
ATOM      3  C   UNL     1      -3.612  88.644 132.512  0.00  0.00    +0.019 A 
ATOM     38  C   UNL     1      -2.215  88.236 132.487  0.00  0.00    +0.120 A 
ATOM     39  N   UNL     1      -1.876  86.911 132.746  0.00  0.00    -0.263 NA
ATOM     40  C   UNL     1      -2.835  85.930 133.036  0.00  0.00    +0.111 A 
ENDBRANCH   4   3
ENDBRANCH  10   9
BRANCH  12  13
ATOM     13  N   UNL     1      -2.091  96.725 128.088  0.00  0.00    -0.281 N 
ATOM     14  C   UNL     1      -1.001  96.674 127.235  0.00  0.00    +0.248 C 
ATOM     30  O   UNL     1      -0.645  95.676 126.627  0.00  0.00    -0.270 OA
ATOM     31  H   UNL     1      -2.162  97.555 128.677  0.00  0.00    +0.155 HD
BRANCH  14  15
ATOM     15  C   UNL     1      -0.179  97.907 127.040  0.00  0.00    +0.037 A 
ATOM     16  C   UNL     1      -0.182  98.987 128.031  0.00  0.00    +0.013 A 
ATOM     17  C   UNL     1       0.607 100.173 127.810  0.00  0.00    +0.005 A 
ATOM     18  C   UNL     1       1.407 100.285 126.593  0.00  0.00    -0.033 A 
ATOM     28  C   UNL     1       1.395  99.197 125.629  0.00  0.00    +0.005 A 
ATOM     29  C   UNL     1       0.622  98.033 125.841  0.00  0.00    +0.013 A 
BRANCH  18  19
ATOM     19  C   UNL     1       2.262 101.523 126.265  0.00  0.00    +0.119 C 
BRANCH  19  20
ATOM     20  N   UNL     1       3.116 102.074 127.359  0.00  0.00    -0.302 NA
ATOM     21  C   UNL     1       3.668 103.460 127.015  0.00  0.00    +0.066 C 
ATOM     22  C   UNL     1       4.540 104.031 128.180  0.00  0.00    -0.064 C 
ATOM     23  N   UNL     1       5.678 103.056 128.487  0.00  0.00    +0.379 N 
ATOM     24  C   UNL     1       6.533 103.617 129.543  0.00  0.00    -0.096 C 
ATOM     25  H   UNL     1       6.297 102.959 127.565  0.00  0.00    -0.082 HD
ATOM     26  C   UNL     1       5.138 101.674 128.828  0.00  0.00    -0.064 C 
ATOM     27  C   UNL     1       4.249 101.129 127.676  0.00  0.00    +0.066 C 
ENDBRANCH  19  20
ENDBRANCH  18  19
ENDBRANCH  14  15
ENDBRANCH  12  13
TORSDOF 6
ENDMDL
