MODEL 1
REMARK VINA RESULT:      -7.9      0.000      0.000
REMARK  Name = C:\Users\Docking\Desktop\test protocol\1iep_ligandH.pdb
REMARK  8 active torsions:
REMARK  status: ('A' for Active; 'I' for Inactive)
REMARK    1  A    between atoms: _5  and  _11
REMARK    2  A    between atoms: _19  and  _21
REMARK    3  A    between atoms: _22  and  _66
REMARK    4  A    between atoms: _27  and  _30
REMARK    5  A    between atoms: _32  and  _33
REMARK    6  A    between atoms: _38  and  _43
REMARK    7  A    between atoms: _43  and  _46
REMARK    8  A    between atoms: _53  and  _55
REMARK                            x       y       z     vdW  Elec       q    Type
REMARK                         _______ _______ _______ _____ _____    ______ ____
ROOT
ATOM     10  C   UNL     1      14.754  78.778 120.011  0.00  0.00    +0.038 A 
ATOM     11  C   UNL     1      15.454  77.964 120.938  0.00  0.00    +0.047 A 
ATOM     12  C   UNL     1      15.570  76.528 120.741  0.00  0.00    +0.035 A 
ATOM     32  C   UNL     1      14.963  75.953 119.586  0.00  0.00    +0.024 A 
ATOM     33  C   UNL     1      14.247  76.766 118.635  0.00  0.00    +0.007 A 
ATOM     34  C   UNL     1      14.127  78.183 118.825  0.00  0.00    -0.029 A 
ATOM     35  C   UNL     1      13.341  79.003 117.776  0.00  0.00    +0.045 C 
ENDROOT
BRANCH  10   9
ATOM      4  C   UNL     1      16.455  83.249 119.619  0.00  0.00    +0.077 A 
ATOM      5  C   UNL     1      17.615  82.808 118.900  0.00  0.00    +0.048 A 
ATOM      6  C   UNL     1      17.740  81.422 118.658  0.00  0.00    +0.116 A 
ATOM      7  N   UNL     1      16.771  80.551 119.106  0.00  0.00    -0.223 NA
ATOM      8  C   UNL     1      15.665  81.009 119.797  0.00  0.00    +0.220 A 
ATOM      9  N   UNL     1      14.674  80.152 120.250  0.00  0.00    -0.283 N 
ATOM     36  H   UNL     1      13.877  80.529 120.763  0.00  0.00    +0.155 HD
ATOM     37  N   UNL     1      15.523  82.328 120.043  0.00  0.00    -0.214 NA
BRANCH   4   3
ATOM      1  C   UNL     1      16.091  86.633 121.548  0.00  0.00    +0.020 A 
ATOM      2  C   UNL     1      16.371  85.241 121.282  0.00  0.00    +0.013 A 
ATOM      3  C   UNL     1      16.179  84.683 119.949  0.00  0.00    +0.019 A 
ATOM     38  C   UNL     1      15.698  85.569 118.899  0.00  0.00    +0.120 A 
ATOM     39  N   UNL     1      15.435  86.905 119.185  0.00  0.00    -0.263 NA
ATOM     40  C   UNL     1      15.615  87.452 120.464  0.00  0.00    +0.111 A 
ENDBRANCH   4   3
ENDBRANCH  10   9
BRANCH  12  13
ATOM     13  N   UNL     1      16.262  75.650 121.652  0.00  0.00    -0.281 N 
ATOM     14  C   UNL     1      17.493  75.040 121.477  0.00  0.00    +0.248 C 
ATOM     30  O   UNL     1      18.093  74.986 120.414  0.00  0.00    -0.270 OA
ATOM     31  H   UNL     1      15.786  75.455 122.533  0.00  0.00    +0.155 HD
BRANCH  14  15
ATOM     15  C   UNL     1      18.146  74.381 122.649  0.00  0.00    +0.037 A 
ATOM     16  C   UNL     1      18.254  72.923 122.739  0.00  0.00    +0.013 A 
ATOM     17  C   UNL     1      18.873  72.313 123.889  0.00  0.00    +0.005 A 
ATOM     18  C   UNL     1      19.390  73.162 124.959  0.00  0.00    -0.033 A 
ATOM     28  C   UNL     1      19.275  74.607 124.842  0.00  0.00    +0.005 A 
ATOM     29  C   UNL     1      18.668  75.208 123.716  0.00  0.00    +0.013 A 
BRANCH  18  19
ATOM     19  C   UNL     1      20.047  72.597 126.232  0.00  0.00    +0.119 C 
BRANCH  19  20
ATOM     20  N   UNL     1      19.225  71.681 127.077  0.00  0.00    -0.302 NA
ATOM     21  C   UNL     1      18.755  72.358 128.368  0.00  0.00    +0.066 C 
ATOM     22  C   UNL     1      17.877  71.393 129.229  0.00  0.00    -0.064 C 
ATOM     23  N   UNL     1      18.673  70.125 129.541  0.00  0.00    +0.379 N 
ATOM     24  C   UNL     1      17.871  69.240 130.399  0.00  0.00    -0.096 C 
ATOM     25  H   UNL     1      19.578  70.427 130.118  0.00  0.00    -0.082 HD
ATOM     26  C   UNL     1      19.146  69.447 128.263  0.00  0.00    -0.064 C 
ATOM     27  C   UNL     1      19.994  70.424 127.401  0.00  0.00    +0.066 C 
ENDBRANCH  19  20
ENDBRANCH  18  19
ENDBRANCH  14  15
ENDBRANCH  12  13
TORSDOF 6
ENDMDL
MODEL 2
REMARK VINA RESULT:      -7.8      2.600     13.115
REMARK  Name = C:\Users\Docking\Desktop\test protocol\1iep_ligandH.pdb
REMARK  8 active torsions:
REMARK  status: ('A' for Active; 'I' for Inactive)
REMARK    1  A    between atoms: _5  and  _11
REMARK    2  A    between atoms: _19  and  _21
REMARK    3  A    between atoms: _22  and  _66
REMARK    4  A    between atoms: _27  and  _30
REMARK    5  A    between atoms: _32  and  _33
REMARK    6  A    between atoms: _38  and  _43
REMARK    7  A    between atoms: _43  and  _46
REMARK    8  A    between atoms: _53  and  _55
REMARK                            x       y       z     vdW  Elec       q    Type
REMARK                         _______ _______ _______ _____ _____    ______ ____
ROOT
ATOM     10  C   UNL     1      15.498  77.901 120.881  0.00  0.00    +0.038 A 
ATOM     11  C   UNL     1      15.698  79.282 121.130  0.00  0.00    +0.047 A 
ATOM     12  C   UNL     1      15.178  80.294 120.223  0.00  0.00    +0.035 A 
ATOM     32  C   UNL     1      14.456  79.862 119.072  0.00  0.00    +0.024 A 
ATOM     33  C   UNL     1      14.244  78.461 118.803  0.00  0.00    +0.007 A 
ATOM     34  C   UNL     1      14.757  77.459 119.693  0.00  0.00    -0.029 A 
ATOM     35  C   UNL     1      14.505  75.972 119.352  0.00  0.00    +0.045 C 
ENDROOT
BRANCH  10   9
ATOM      4  C   UNL     1      19.038  75.089 122.493  0.00  0.00    +0.077 A 
ATOM      5  C   UNL     1      19.915  75.482 121.428  0.00  0.00    +0.048 A 
ATOM      6  C   UNL     1      19.414  76.404 120.482  0.00  0.00    +0.116 A 
ATOM      7  N   UNL     1      18.131  76.891 120.602  0.00  0.00    -0.223 NA
ATOM      8  C   UNL     1      17.310  76.490 121.641  0.00  0.00    +0.220 A 
ATOM      9  N   UNL     1      16.019  76.973 121.786  0.00  0.00    -0.283 N 
ATOM     36  H   UNL     1      15.443  76.647 122.561  0.00  0.00    +0.155 HD
ATOM     37  N   UNL     1      17.765  75.609 122.556  0.00  0.00    -0.214 NA
BRANCH   4   3
ATOM      1  C   UNL     1      20.786  73.450 125.586  0.00  0.00    +0.020 A 
ATOM      2  C   UNL     1      20.452  74.416 124.564  0.00  0.00    +0.013 A 
ATOM      3  C   UNL     1      19.423  74.125 123.572  0.00  0.00    +0.019 A 
ATOM     38  C   UNL     1      18.746  72.840 123.644  0.00  0.00    +0.120 A 
ATOM     39  N   UNL     1      19.090  71.929 124.638  0.00  0.00    -0.263 NA
ATOM     40  C   UNL     1      20.079  72.197 125.597  0.00  0.00    +0.111 A 
ENDBRANCH   4   3
ENDBRANCH  10   9
BRANCH  12  13
ATOM     13  N   UNL     1      15.357  81.711 120.419  0.00  0.00    -0.281 N 
ATOM     14  C   UNL     1      16.202  82.566 119.731  0.00  0.00    +0.248 C 
ATOM     30  O   UNL     1      17.093  82.200 118.979  0.00  0.00    -0.270 OA
ATOM     31  H   UNL     1      14.793  82.135 121.156  0.00  0.00    +0.155 HD
BRANCH  14  15
ATOM     15  C   UNL     1      16.043  84.041 119.914  0.00  0.00    +0.037 A 
ATOM     16  C   UNL     1      16.296  84.677 121.210  0.00  0.00    +0.013 A 
ATOM     17  C   UNL     1      16.119  86.099 121.364  0.00  0.00    +0.005 A 
ATOM     18  C   UNL     1      15.686  86.895 120.218  0.00  0.00    -0.033 A 
ATOM     28  C   UNL     1      15.447  86.239 118.943  0.00  0.00    +0.005 A 
ATOM     29  C   UNL     1      15.619  84.846 118.789  0.00  0.00    +0.013 A 
BRANCH  18  19
ATOM     19  C   UNL     1      15.451  88.415 120.297  0.00  0.00    +0.119 C 
BRANCH  19  20
ATOM     20  N   UNL     1      16.640  89.279 120.563  0.00  0.00    -0.302 NA
ATOM     21  C   UNL     1      16.590  89.912 121.956  0.00  0.00    +0.066 C 
ATOM     22  C   UNL     1      17.853  90.794 122.225  0.00  0.00    -0.064 C 
ATOM     23  N   UNL     1      17.960  91.871 121.144  0.00  0.00    +0.379 N 
ATOM     24  C   UNL     1      19.114  92.737 121.427  0.00  0.00    -0.096 C 
ATOM     25  H   UNL     1      17.042  92.500 121.202  0.00  0.00    -0.082 HD
ATOM     26  C   UNL     1      18.007  91.249 119.755  0.00  0.00    -0.064 C 
ATOM     27  C   UNL     1      16.763  90.352 119.509  0.00  0.00    +0.066 C 
ENDBRANCH  19  20
ENDBRANCH  18  19
ENDBRANCH  14  15
ENDBRANCH  12  13
TORSDOF 6
ENDMDL
MODEL 3
REMARK VINA RESULT:      -7.7     26.717     31.592
REMARK  Name = C:\Users\Docking\Desktop\test protocol\1iep_ligandH.pdb
REMARK  8 active torsions:
REMARK  status: ('A' for Active; 'I' for Inactive)
REMARK    1  A    between atoms: _5  and  _11
REMARK    2  A    between atoms: _19  and  _21
REMARK    3  A    between atoms: _22  and  _66
REMARK    4  A    between atoms: _27  and  _30
REMARK    5  A    between atoms: _32  and  _33
REMARK    6  A    between atoms: _38  and  _43
REMARK    7  A    between atoms: _43  and  _46
REMARK    8  A    between atoms: _53  and  _55
REMARK                            x       y       z     vdW  Elec       q    Type
REMARK                         _______ _______ _______ _____ _____    ______ ____
ROOT
ATOM     10  C   UNL     1       3.218  67.582 149.459  0.00  0.00    +0.038 A 
ATOM     11  C   UNL     1       4.548  68.068 149.385  0.00  0.00    +0.047 A 
ATOM     12  C   UNL     1       5.425  67.695 148.286  0.00  0.00    +0.035 A 
ATOM     32  C   UNL     1       4.912  66.829 147.277  0.00  0.00    +0.024 A 
ATOM     33  C   UNL     1       3.563  66.325 147.337  0.00  0.00    +0.007 A 
ATOM     34  C   UNL     1       2.694  66.687 148.421  0.00  0.00    -0.029 A 
ATOM     35  C   UNL     1       1.259  66.112 148.437  0.00  0.00    +0.045 C 
ENDROOT
BRANCH  10   9
ATOM      4  C   UNL     1      -0.193  70.328 151.426  0.00  0.00    +0.077 A 
ATOM      5  C   UNL     1      -0.382  71.067 150.211  0.00  0.00    +0.048 A 
ATOM      6  C   UNL     1       0.424  70.714 149.105  0.00  0.00    +0.116 A 
ATOM      7  N   UNL     1       1.346  69.696 149.217  0.00  0.00    -0.223 NA
ATOM      8  C   UNL     1       1.504  69.004 150.404  0.00  0.00    +0.220 A 
ATOM      9  N   UNL     1       2.420  67.972 150.537  0.00  0.00    -0.283 N 
ATOM     36  H   UNL     1       2.511  67.492 151.432  0.00  0.00    +0.155 HD
ATOM     37  N   UNL     1       0.748  69.324 151.475  0.00  0.00    -0.214 NA
BRANCH   4   3
ATOM      1  C   UNL     1      -2.840  71.680 153.969  0.00  0.00    +0.020 A 
ATOM      2  C   UNL     1      -2.124  71.470 152.732  0.00  0.00    +0.013 A 
ATOM      3  C   UNL     1      -0.970  70.581 152.681  0.00  0.00    +0.019 A 
ATOM     38  C   UNL     1      -0.565  69.913 153.908  0.00  0.00    +0.120 A 
ATOM     39  N   UNL     1      -1.273  70.135 155.085  0.00  0.00    -0.263 NA
ATOM     40  C   UNL     1      -2.383  70.990 155.147  0.00  0.00    +0.111 A 
ENDBRANCH   4   3
ENDBRANCH  10   9
BRANCH  12  13
ATOM     13  N   UNL     1       6.787  68.150 148.162  0.00  0.00    -0.281 N 
ATOM     14  C   UNL     1       7.943  67.386 148.151  0.00  0.00    +0.248 C 
ATOM     30  O   UNL     1       7.993  66.206 148.464  0.00  0.00    -0.270 OA
ATOM     31  H   UNL     1       6.916  69.158 148.070  0.00  0.00    +0.155 HD
BRANCH  14  15
ATOM     15  C   UNL     1       9.231  68.030 147.750  0.00  0.00    +0.037 A 
ATOM     16  C   UNL     1       9.585  68.206 146.340  0.00  0.00    +0.013 A 
ATOM     17  C   UNL     1      10.842  68.814 145.980  0.00  0.00    +0.005 A 
ATOM     18  C   UNL     1      11.752  69.253 147.035  0.00  0.00    -0.033 A 
ATOM     28  C   UNL     1      11.373  69.071 148.426  0.00  0.00    +0.005 A 
ATOM     29  C   UNL     1      10.143  68.474 148.782  0.00  0.00    +0.013 A 
BRANCH  18  19
ATOM     19  C   UNL     1      13.123  69.893 146.743  0.00  0.00    +0.119 C 
BRANCH  19  20
ATOM     20  N   UNL     1      13.623  70.911 147.715  0.00  0.00    -0.302 NA
ATOM     21  C   UNL     1      13.039  72.300 147.444  0.00  0.00    +0.066 C 
ATOM     22  C   UNL     1      13.555  73.348 148.483  0.00  0.00    -0.064 C 
ATOM     23  N   UNL     1      15.084  73.386 148.449  0.00  0.00    +0.379 N 
ATOM     24  C   UNL     1      15.570  74.411 149.384  0.00  0.00    -0.096 C 
ATOM     25  H   UNL     1      15.391  73.692 147.422  0.00  0.00    -0.082 HD
ATOM     26  C   UNL     1      15.672  72.008 148.716  0.00  0.00    -0.064 C 
ATOM     27  C   UNL     1      15.130  70.968 147.695  0.00  0.00    +0.066 C 
ENDBRANCH  19  20
ENDBRANCH  18  19
ENDBRANCH  14  15
ENDBRANCH  12  13
TORSDOF 6
ENDMDL
MODEL 4
REMARK VINA RESULT:      -7.7     37.344     42.015
REMARK  Name = C:\Users\Docking\Desktop\test protocol\1iep_ligandH.pdb
REMARK  8 active torsions:
REMARK  status: ('A' for Active; 'I' for Inactive)
REMARK    1  A    between atoms: _5  and  _11
REMARK    2  A    between atoms: _19  and  _21
REMARK    3  A    between atoms: _22  and  _66
REMARK    4  A    between atoms: _27  and  _30
REMARK    5  A    between atoms: _32  and  _33
REMARK    6  A    between atoms: _38  and  _43
REMARK    7  A    between atoms: _43  and  _46
REMARK    8  A    between atoms: _53  and  _55
REMARK                            x       y       z     vdW  Elec       q    Type
REMARK                         _______ _______ _______ _____ _____    ______ ____
ROOT
ATOM     10  C   UNL     1      -2.925 104.987 143.469  0.00  0.00    +0.038 A 
ATOM     11  C   UNL     1      -3.032 105.636 142.212  0.00  0.00    +0.047 A 
ATOM     12  C   UNL     1      -2.033 106.599 141.774  0.00  0.00    +0.035 A 
ATOM     32  C   UNL     1      -0.936 106.876 142.641  0.00  0.00    +0.024 A 
ATOM     33  C   UNL     1      -0.812 106.226 143.923  0.00  0.00    +0.007 A 
ATOM     34  C   UNL     1      -1.796 105.278 144.361  0.00  0.00    -0.029 A 
ATOM     35  C   UNL     1      -1.616 104.617 145.747  0.00  0.00    +0.045 C 
ENDROOT
BRANCH  10   9
ATOM      4  C   UNL     1      -7.168 103.900 145.430  0.00  0.00    +0.077 A 
ATOM      5  C   UNL     1      -7.427 105.269 145.772  0.00  0.00    +0.048 A 
ATOM      6  C   UNL     1      -6.440 106.221 145.432  0.00  0.00    +0.116 A 
ATOM      7  N   UNL     1      -5.284 105.822 144.797  0.00  0.00    -0.223 NA
ATOM      8  C   UNL     1      -5.064 104.493 144.483  0.00  0.00    +0.220 A 
ATOM      9  N   UNL     1      -3.912 104.071 143.838  0.00  0.00    -0.283 N 
ATOM     36  H   UNL     1      -3.784 103.081 143.631  0.00  0.00    +0.155 HD
ATOM     37  N   UNL     1      -5.991 103.565 144.799  0.00  0.00    -0.214 NA
BRANCH   4   3
ATOM      1  C   UNL     1      -8.710 100.330 145.853  0.00  0.00    +0.020 A 
ATOM      2  C   UNL     1      -7.757 101.375 145.558  0.00  0.00    +0.013 A 
ATOM      3  C   UNL     1      -8.116 102.778 145.721  0.00  0.00    +0.019 A 
ATOM     38  C   UNL     1      -9.458 103.092 146.188  0.00  0.00    +0.120 A 
ATOM     39  N   UNL     1     -10.355 102.064 146.463  0.00  0.00    -0.263 NA
ATOM     40  C   UNL     1     -10.021 100.711 146.309  0.00  0.00    +0.111 A 
ENDBRANCH   4   3
ENDBRANCH  10   9
BRANCH  12  13
ATOM     13  N   UNL     1      -2.093 107.294 140.512  0.00  0.00    -0.281 N 
ATOM     14  C   UNL     1      -2.767 108.468 140.218  0.00  0.00    +0.248 C 
ATOM     30  O   UNL     1      -3.601 108.987 140.946  0.00  0.00    -0.270 OA
ATOM     31  H   UNL     1      -1.576 106.869 139.743  0.00  0.00    +0.155 HD
BRANCH  14  15
ATOM     15  C   UNL     1      -2.486 109.157 138.922  0.00  0.00    +0.037 A 
ATOM     16  C   UNL     1      -3.562 109.472 137.980  0.00  0.00    +0.013 A 
ATOM     17  C   UNL     1      -3.261 110.122 136.729  0.00  0.00    +0.005 A 
ATOM     18  C   UNL     1      -1.876 110.462 136.414  0.00  0.00    -0.033 A 
ATOM     28  C   UNL     1      -0.828 110.143 137.370  0.00  0.00    +0.005 A 
ATOM     29  C   UNL     1      -1.119 109.505 138.596  0.00  0.00    +0.013 A 
BRANCH  18  19
ATOM     19  C   UNL     1      -1.459 111.138 135.094  0.00  0.00    +0.119 C 
BRANCH  19  20
ATOM     20  N   UNL     1      -1.236 110.251 133.913  0.00  0.00    -0.302 NA
ATOM     21  C   UNL     1       0.248 109.933 133.707  0.00  0.00    +0.066 C 
ATOM     22  C   UNL     1       0.461 108.986 132.481  0.00  0.00    -0.064 C 
ATOM     23  N   UNL     1      -0.132 109.634 131.229  0.00  0.00    +0.379 N 
ATOM     24  C   UNL     1       0.118 108.773 130.065  0.00  0.00    -0.096 C 
ATOM     25  H   UNL     1       0.404 110.597 131.061  0.00  0.00    -0.082 HD
ATOM     26  C   UNL     1      -1.607 109.957 131.427  0.00  0.00    -0.064 C 
ATOM     27  C   UNL     1      -1.811 110.874 132.665  0.00  0.00    +0.066 C 
ENDBRANCH  19  20
ENDBRANCH  18  19
ENDBRANCH  14  15
ENDBRANCH  12  13
TORSDOF 6
ENDMDL
MODEL 5
REMARK VINA RESULT:      -7.5     33.925     40.006
REMARK  Name = C:\Users\Docking\Desktop\test protocol\1iep_ligandH.pdb
REMARK  8 active torsions:
REMARK  status: ('A' for Active; 'I' for Inactive)
REMARK    1  A    between atoms: _5  and  _11
REMARK    2  A    between atoms: _19  and  _21
REMARK    3  A    between atoms: _22  and  _66
REMARK    4  A    between atoms: _27  and  _30
REMARK    5  A    between atoms: _32  and  _33
REMARK    6  A    between atoms: _38  and  _43
REMARK    7  A    between atoms: _43  and  _46
REMARK    8  A    between atoms: _53  and  _55
REMARK                            x       y       z     vdW  Elec       q    Type
REMARK                         _______ _______ _______ _____ _____    ______ ____
ROOT
ATOM     10  C   UNL     1       2.945  70.622 160.826  0.00  0.00    +0.038 A 
ATOM     11  C   UNL     1       2.379  70.517 159.530  0.00  0.00    +0.047 A 
ATOM     12  C   UNL     1       1.984  69.228 158.984  0.00  0.00    +0.035 A 
ATOM     32  C   UNL     1       2.177  68.066 159.787  0.00  0.00    +0.024 A 
ATOM     33  C   UNL     1       2.752  68.155 161.106  0.00  0.00    +0.007 A 
ATOM     34  C   UNL     1       3.146  69.423 161.649  0.00  0.00    -0.029 A 
ATOM     35  C   UNL     1       3.763  69.458 163.067  0.00  0.00    +0.045 C 
ENDROOT
BRANCH  10   9
ATOM      4  C   UNL     1       6.204  74.019 161.764  0.00  0.00    +0.077 A 
ATOM      5  C   UNL     1       7.282  73.198 161.294  0.00  0.00    +0.048 A 
ATOM      6  C   UNL     1       6.956  71.905 160.825  0.00  0.00    +0.116 A 
ATOM      7  N   UNL     1       5.646  71.476 160.831  0.00  0.00    -0.223 NA
ATOM      8  C   UNL     1       4.631  72.293 161.293  0.00  0.00    +0.220 A 
ATOM      9  N   UNL     1       3.306  71.885 161.301  0.00  0.00    -0.283 N 
ATOM     36  H   UNL     1       2.587  72.515 161.657  0.00  0.00    +0.155 HD
ATOM     37  N   UNL     1       4.916  73.531 161.747  0.00  0.00    -0.214 NA
BRANCH   4   3
ATOM      1  C   UNL     1       7.362  77.733 162.166  0.00  0.00    +0.020 A 
ATOM      2  C   UNL     1       7.218  76.404 161.620  0.00  0.00    +0.013 A 
ATOM      3  C   UNL     1       6.387  75.410 162.287  0.00  0.00    +0.019 A 
ATOM     38  C   UNL     1       5.709  75.796 163.515  0.00  0.00    +0.120 A 
ATOM     39  N   UNL     1       5.867  77.084 164.019  0.00  0.00    -0.263 NA
ATOM     40  C   UNL     1       6.666  78.048 163.386  0.00  0.00    +0.111 A 
ENDBRANCH   4   3
ENDBRANCH  10   9
BRANCH  12  13
ATOM     13  N   UNL     1       1.411  69.058 157.672  0.00  0.00    -0.281 N 
ATOM     14  C   UNL     1       0.258  69.633 157.165  0.00  0.00    +0.248 C 
ATOM     30  O   UNL     1      -0.577  70.218 157.839  0.00  0.00    -0.270 OA
ATOM     31  H   UNL     1       1.918  68.439 157.039  0.00  0.00    +0.155 HD
BRANCH  14  15
ATOM     15  C   UNL     1      -0.015  69.533 155.699  0.00  0.00    +0.037 A 
ATOM     16  C   UNL     1      -1.133  68.736 155.187  0.00  0.00    +0.013 A 
ATOM     17  C   UNL     1      -1.364  68.642 153.767  0.00  0.00    +0.005 A 
ATOM     18  C   UNL     1      -0.475  69.349 152.849  0.00  0.00    -0.033 A 
ATOM     28  C   UNL     1       0.623  70.138 153.384  0.00  0.00    +0.005 A 
ATOM     29  C   UNL     1       0.853  70.231 154.775  0.00  0.00    +0.013 A 
BRANCH  18  19
ATOM     19  C   UNL     1      -0.633  69.289 151.318  0.00  0.00    +0.119 C 
BRANCH  19  20
ATOM     20  N   UNL     1      -1.308  70.444 150.654  0.00  0.00    -0.302 NA
ATOM     21  C   UNL     1      -2.735  70.649 151.169  0.00  0.00    +0.066 C 
ATOM     22  C   UNL     1      -3.418  71.875 150.480  0.00  0.00    -0.064 C 
ATOM     23  N   UNL     1      -3.413  71.673 148.964  0.00  0.00    +0.379 N 
ATOM     24  C   UNL     1      -4.106  72.796 148.317  0.00  0.00    -0.096 C 
ATOM     25  H   UNL     1      -3.993  70.746 148.745  0.00  0.00    -0.082 HD
ATOM     26  C   UNL     1      -1.998  71.465 148.444  0.00  0.00    -0.064 C 
ATOM     27  C   UNL     1      -1.318  70.263 149.156  0.00  0.00    +0.066 C 
ENDBRANCH  19  20
ENDBRANCH  18  19
ENDBRANCH  14  15
ENDBRANCH  12  13
TORSDOF 6
ENDMDL
