MODEL 1
REMARK VINA RESULT:      -9.6      0.000      0.000
REMARK  Name = C:\Users\Docking\Desktop\test protocol\1iep_ligandH.pdb
REMARK  8 active torsions:
REMARK  status: ('A' for Active; 'I' for Inactive)
REMARK    1  A    between atoms: _5  and  _11
REMARK    2  A    between atoms: _19  and  _21
REMARK    3  A    between atoms: _22  and  _66
REMARK    4  A    between atoms: _27  and  _30
REMARK    5  A    between atoms: _32  and  _33
REMARK    6  A    between atoms: _38  and  _43
REMARK    7  A    between atoms: _43  and  _46
REMARK    8  A    between atoms: _53  and  _55
REMARK                            x       y       z     vdW  Elec       q    Type
REMARK                         _______ _______ _______ _____ _____    ______ ____
ROOT
ATOM     10  C   UNL     1      17.674  -1.641  10.714  0.00  0.00    +0.038 A 
ATOM     11  C   UNL     1      18.609  -2.503  11.342  0.00  0.00    +0.047 A 
ATOM     12  C   UNL     1      18.203  -3.402  12.412  0.00  0.00    +0.035 A 
ATOM     32  C   UNL     1      16.836  -3.398  12.815  0.00  0.00    +0.024 A 
ATOM     33  C   UNL     1      15.872  -2.527  12.188  0.00  0.00    +0.007 A 
ATOM     34  C   UNL     1      16.268  -1.637  11.134  0.00  0.00    -0.029 A 
ATOM     35  C   UNL     1      15.194  -0.720  10.503  0.00  0.00    +0.045 C 
ENDROOT
BRANCH  10   9
ATOM      4  C   UNL     1      19.303   2.583   9.118  0.00  0.00    +0.077 A 
ATOM      5  C   UNL     1      19.238   3.169  10.426  0.00  0.00    +0.048 A 
ATOM      6  C   UNL     1      18.773   2.352  11.481  0.00  0.00    +0.116 A 
ATOM      7  N   UNL     1      18.404   1.047  11.235  0.00  0.00    -0.223 NA
ATOM      8  C   UNL     1      18.477   0.513   9.961  0.00  0.00    +0.220 A 
ATOM      9  N   UNL     1      18.118  -0.798   9.692  0.00  0.00    -0.283 N 
ATOM     36  H   UNL     1      18.180  -1.153   8.738  0.00  0.00    +0.155 HD
ATOM     37  N   UNL     1      18.916   1.273   8.937  0.00  0.00    -0.214 NA
BRANCH   4   3
ATOM      1  C   UNL     1      21.309   4.938   6.724  0.00  0.00    +0.020 A 
ATOM      2  C   UNL     1      20.892   4.255   7.927  0.00  0.00    +0.013 A 
ATOM      3  C   UNL     1      19.776   3.317   7.902  0.00  0.00    +0.019 A 
ATOM     38  C   UNL     1      19.100   3.090   6.634  0.00  0.00    +0.120 A 
ATOM     39  N   UNL     1      19.523   3.763   5.492  0.00  0.00    -0.263 NA
ATOM     40  C   UNL     1      20.594   4.669   5.504  0.00  0.00    +0.111 A 
ENDBRANCH   4   3
ENDBRANCH  10   9
BRANCH  12  13
ATOM     13  N   UNL     1      19.108  -4.294  13.092  0.00  0.00    -0.281 N 
ATOM     14  C   UNL     1      19.632  -4.166  14.368  0.00  0.00    +0.248 C 
ATOM     30  O   UNL     1      19.568  -3.149  15.043  0.00  0.00    -0.270 OA
ATOM     31  H   UNL     1      19.399  -5.120  12.569  0.00  0.00    +0.155 HD
BRANCH  14  15
ATOM     15  C   UNL     1      20.342  -5.331  14.978  0.00  0.00    +0.037 A 
ATOM     16  C   UNL     1      20.894  -5.260  16.333  0.00  0.00    +0.013 A 
ATOM     17  C   UNL     1      21.590  -6.393  16.891  0.00  0.00    +0.005 A 
ATOM     18  C   UNL     1      21.735  -7.608  16.092  0.00  0.00    -0.033 A 
ATOM     28  C   UNL     1      21.173  -7.653  14.752  0.00  0.00    +0.005 A 
ATOM     29  C   UNL     1      20.492  -6.544  14.202  0.00  0.00    +0.013 A 
BRANCH  18  19
ATOM     19  C   UNL     1      22.480  -8.857  16.599  0.00  0.00    +0.119 C 
BRANCH  19  20
ATOM     20  N   UNL     1      22.958  -9.831  15.572  0.00  0.00    -0.302 NA
ATOM     21  C   UNL     1      22.267 -11.191  15.704  0.00  0.00    +0.066 C 
ATOM     22  C   UNL     1      22.762 -12.190  14.609  0.00  0.00    -0.064 C 
ATOM     23  N   UNL     1      24.281 -12.343  14.711  0.00  0.00    +0.379 N 
ATOM     24  C   UNL     1      24.743 -13.326  13.721  0.00  0.00    -0.096 C 
ATOM     25  H   UNL     1      24.512 -12.748  15.724  0.00  0.00    -0.082 HD
ATOM     26  C   UNL     1      24.977 -10.995  14.584  0.00  0.00    -0.064 C 
ATOM     27  C   UNL     1      24.455 -10.000  15.658  0.00  0.00    +0.066 C 
ENDBRANCH  19  20
ENDBRANCH  18  19
ENDBRANCH  14  15
ENDBRANCH  12  13
TORSDOF 6
ENDMDL
MODEL 2
REMARK VINA RESULT:      -9.5      1.306      1.664
REMARK  Name = C:\Users\Docking\Desktop\test protocol\1iep_ligandH.pdb
REMARK  8 active torsions:
REMARK  status: ('A' for Active; 'I' for Inactive)
REMARK    1  A    between atoms: _5  and  _11
REMARK    2  A    between atoms: _19  and  _21
REMARK    3  A    between atoms: _22  and  _66
REMARK    4  A    between atoms: _27  and  _30
REMARK    5  A    between atoms: _32  and  _33
REMARK    6  A    between atoms: _38  and  _43
REMARK    7  A    between atoms: _43  and  _46
REMARK    8  A    between atoms: _53  and  _55
REMARK                            x       y       z     vdW  Elec       q    Type
REMARK                         _______ _______ _______ _____ _____    ______ ____
ROOT
ATOM     10  C   UNL     1      17.754  -1.587  11.204  0.00  0.00    +0.038 A 
ATOM     11  C   UNL     1      18.597  -2.635  11.654  0.00  0.00    +0.047 A 
ATOM     12  C   UNL     1      18.543  -3.107  13.029  0.00  0.00    +0.035 A 
ATOM     32  C   UNL     1      17.615  -2.490  13.919  0.00  0.00    +0.024 A 
ATOM     33  C   UNL     1      16.752  -1.423  13.478  0.00  0.00    +0.007 A 
ATOM     34  C   UNL     1      16.803  -0.952  12.124  0.00  0.00    -0.029 A 
ATOM     35  C   UNL     1      15.858   0.200  11.709  0.00  0.00    +0.045 C 
ENDROOT
BRANCH  10   9
ATOM      4  C   UNL     1      19.419   1.350   7.793  0.00  0.00    +0.077 A 
ATOM      5  C   UNL     1      20.140   2.144   8.745  0.00  0.00    +0.048 A 
ATOM      6  C   UNL     1      20.051   1.767  10.104  0.00  0.00    +0.116 A 
ATOM      7  N   UNL     1      19.294   0.676  10.471  0.00  0.00    -0.223 NA
ATOM      8  C   UNL     1      18.610  -0.067   9.528  0.00  0.00    +0.220 A 
ATOM      9  N   UNL     1      17.849  -1.174   9.874  0.00  0.00    -0.283 N 
ATOM     36  H   UNL     1      17.353  -1.691   9.148  0.00  0.00    +0.155 HD
ATOM     37  N   UNL     1      18.678   0.273   8.224  0.00  0.00    -0.214 NA
BRANCH   4   3
ATOM      1  C   UNL     1      19.388   0.873   3.910  0.00  0.00    +0.020 A 
ATOM      2  C   UNL     1      19.389   0.559   5.321  0.00  0.00    +0.013 A 
ATOM      3  C   UNL     1      19.417   1.620   6.320  0.00  0.00    +0.019 A 
ATOM     38  C   UNL     1      19.444   2.998   5.856  0.00  0.00    +0.120 A 
ATOM     39  N   UNL     1      19.444   3.271   4.491  0.00  0.00    -0.263 NA
ATOM     40  C   UNL     1      19.418   2.258   3.520  0.00  0.00    +0.111 A 
ENDBRANCH   4   3
ENDBRANCH  10   9
BRANCH  12  13
ATOM     13  N   UNL     1      19.379  -4.162  13.545  0.00  0.00    -0.281 N 
ATOM     14  C   UNL     1      20.373  -4.068  14.506  0.00  0.00    +0.248 C 
ATOM     30  O   UNL     1      20.841  -3.016  14.916  0.00  0.00    -0.270 OA
ATOM     31  H   UNL     1      19.220  -5.091  13.155  0.00  0.00    +0.155 HD
BRANCH  14  15
ATOM     15  C   UNL     1      20.939  -5.324  15.085  0.00  0.00    +0.037 A 
ATOM     16  C   UNL     1      21.038  -5.516  16.534  0.00  0.00    +0.013 A 
ATOM     17  C   UNL     1      21.604  -6.731  17.066  0.00  0.00    +0.005 A 
ATOM     18  C   UNL     1      22.073  -7.764  16.147  0.00  0.00    -0.033 A 
ATOM     28  C   UNL     1      21.958  -7.550  14.713  0.00  0.00    +0.005 A 
ATOM     29  C   UNL     1      21.405  -6.361  14.189  0.00  0.00    +0.013 A 
BRANCH  18  19
ATOM     19  C   UNL     1      22.710  -9.083  16.625  0.00  0.00    +0.119 C 
BRANCH  19  20
ATOM     20  N   UNL     1      23.196 -10.028  15.576  0.00  0.00    -0.302 NA
ATOM     21  C   UNL     1      22.377 -11.321  15.544  0.00  0.00    +0.066 C 
ATOM     22  C   UNL     1      22.885 -12.289  14.426  0.00  0.00    -0.064 C 
ATOM     23  N   UNL     1      24.368 -12.591  14.652  0.00  0.00    +0.379 N 
ATOM     24  C   UNL     1      24.834 -13.546  13.636  0.00  0.00    -0.096 C 
ATOM     25  H   UNL     1      24.464 -13.083  15.648  0.00  0.00    -0.082 HD
ATOM     26  C   UNL     1      25.189 -11.310  14.688  0.00  0.00    -0.064 C 
ATOM     27  C   UNL     1      24.657 -10.344  15.782  0.00  0.00    +0.066 C 
ENDBRANCH  19  20
ENDBRANCH  18  19
ENDBRANCH  14  15
ENDBRANCH  12  13
TORSDOF 6
ENDMDL
MODEL 3
REMARK VINA RESULT:      -9.4      2.151     13.129
REMARK  Name = C:\Users\Docking\Desktop\test protocol\1iep_ligandH.pdb
REMARK  8 active torsions:
REMARK  status: ('A' for Active; 'I' for Inactive)
REMARK    1  A    between atoms: _5  and  _11
REMARK    2  A    between atoms: _19  and  _21
REMARK    3  A    between atoms: _22  and  _66
REMARK    4  A    between atoms: _27  and  _30
REMARK    5  A    between atoms: _32  and  _33
REMARK    6  A    between atoms: _38  and  _43
REMARK    7  A    between atoms: _43  and  _46
REMARK    8  A    between atoms: _53  and  _55
REMARK                            x       y       z     vdW  Elec       q    Type
REMARK                         _______ _______ _______ _____ _____    ______ ____
ROOT
ATOM     10  C   UNL     1      20.517  -7.037  15.520  0.00  0.00    +0.038 A 
ATOM     11  C   UNL     1      19.760  -6.329  14.553  0.00  0.00    +0.047 A 
ATOM     12  C   UNL     1      19.620  -4.882  14.619  0.00  0.00    +0.035 A 
ATOM     32  C   UNL     1      20.267  -4.189  15.683  0.00  0.00    +0.024 A 
ATOM     33  C   UNL     1      21.040  -4.893  16.675  0.00  0.00    +0.007 A 
ATOM     34  C   UNL     1      21.180  -6.320  16.616  0.00  0.00    -0.029 A 
ATOM     35  C   UNL     1      22.015  -7.024  17.711  0.00  0.00    +0.045 C 
ENDROOT
BRANCH  10   9
ATOM      4  C   UNL     1      22.956 -11.031  14.451  0.00  0.00    +0.077 A 
ATOM      5  C   UNL     1      24.117 -10.287  14.057  0.00  0.00    +0.048 A 
ATOM      6  C   UNL     1      24.044  -8.878  14.137  0.00  0.00    +0.116 A 
ATOM      7  N   UNL     1      22.890  -8.270  14.581  0.00  0.00    -0.223 NA
ATOM      8  C   UNL     1      21.787  -9.017  14.952  0.00  0.00    +0.220 A 
ATOM      9  N   UNL     1      20.619  -8.426  15.408  0.00  0.00    -0.283 N 
ATOM     36  H   UNL     1      19.824  -9.011  15.665  0.00  0.00    +0.155 HD
ATOM     37  N   UNL     1      21.831 -10.363  14.883  0.00  0.00    -0.214 NA
BRANCH   4   3
ATOM      1  C   UNL     1      23.255 -14.765  13.327  0.00  0.00    +0.020 A 
ATOM      2  C   UNL     1      23.351 -13.324  13.301  0.00  0.00    +0.013 A 
ATOM      3  C   UNL     1      22.880 -12.526  14.426  0.00  0.00    +0.019 A 
ATOM     38  C   UNL     1      22.314 -13.223  15.571  0.00  0.00    +0.120 A 
ATOM     39  N   UNL     1      22.233 -14.612  15.567  0.00  0.00    -0.263 NA
ATOM     40  C   UNL     1      22.681 -15.390  14.489  0.00  0.00    +0.111 A 
ENDBRANCH   4   3
ENDBRANCH  10   9
BRANCH  12  13
ATOM     13  N   UNL     1      18.857  -4.110  13.670  0.00  0.00    -0.281 N 
ATOM     14  C   UNL     1      17.500  -3.831  13.694  0.00  0.00    +0.248 C 
ATOM     30  O   UNL     1      16.693  -4.385  14.425  0.00  0.00    -0.270 OA
ATOM     31  H   UNL     1      19.381  -3.721  12.886  0.00  0.00    +0.155 HD
BRANCH  14  15
ATOM     15  C   UNL     1      16.959  -2.796  12.760  0.00  0.00    +0.037 A 
ATOM     16  C   UNL     1      17.224  -1.371  12.970  0.00  0.00    +0.013 A 
ATOM     17  C   UNL     1      16.676  -0.393  12.064  0.00  0.00    +0.005 A 
ATOM     18  C   UNL     1      15.858  -0.838  10.938  0.00  0.00    -0.033 A 
ATOM     28  C   UNL     1      15.616  -2.259  10.751  0.00  0.00    +0.005 A 
ATOM     29  C   UNL     1      16.151  -3.221  11.637  0.00  0.00    +0.013 A 
BRANCH  18  19
ATOM     19  C   UNL     1      15.216   0.136   9.933  0.00  0.00    +0.119 C 
BRANCH  19  20
ATOM     20  N   UNL     1      16.135   1.003   9.138  0.00  0.00    -0.302 NA
ATOM     21  C   UNL     1      15.373   1.913   8.169  0.00  0.00    +0.066 C 
ATOM     22  C   UNL     1      16.350   2.828   7.361  0.00  0.00    -0.064 C 
ATOM     23  N   UNL     1      17.356   1.957   6.608  0.00  0.00    +0.379 N 
ATOM     24  C   UNL     1      18.239   2.813   5.802  0.00  0.00    -0.096 C 
ATOM     25  H   UNL     1      16.782   1.307   5.907  0.00  0.00    -0.082 HD
ATOM     26  C   UNL     1      18.116   1.048   7.563  0.00  0.00    -0.064 C 
ATOM     27  C   UNL     1      17.135   0.163   8.382  0.00  0.00    +0.066 C 
ENDBRANCH  19  20
ENDBRANCH  18  19
ENDBRANCH  14  15
ENDBRANCH  12  13
TORSDOF 6
ENDMDL
MODEL 4
REMARK VINA RESULT:      -9.3      1.867      2.661
REMARK  Name = C:\Users\Docking\Desktop\test protocol\1iep_ligandH.pdb
REMARK  8 active torsions:
REMARK  status: ('A' for Active; 'I' for Inactive)
REMARK    1  A    between atoms: _5  and  _11
REMARK    2  A    between atoms: _19  and  _21
REMARK    3  A    between atoms: _22  and  _66
REMARK    4  A    between atoms: _27  and  _30
REMARK    5  A    between atoms: _32  and  _33
REMARK    6  A    between atoms: _38  and  _43
REMARK    7  A    between atoms: _43  and  _46
REMARK    8  A    between atoms: _53  and  _55
REMARK                            x       y       z     vdW  Elec       q    Type
REMARK                         _______ _______ _______ _____ _____    ______ ____
ROOT
ATOM     10  C   UNL     1      18.781  -1.470  13.219  0.00  0.00    +0.038 A 
ATOM     11  C   UNL     1      19.676  -2.561  13.364  0.00  0.00    +0.047 A 
ATOM     12  C   UNL     1      19.217  -3.852  13.852  0.00  0.00    +0.035 A 
ATOM     32  C   UNL     1      17.838  -3.998  14.181  0.00  0.00    +0.024 A 
ATOM     33  C   UNL     1      16.914  -2.900  14.040  0.00  0.00    +0.007 A 
ATOM     34  C   UNL     1      17.362  -1.623  13.561  0.00  0.00    -0.029 A 
ATOM     35  C   UNL     1      16.329  -0.480  13.436  0.00  0.00    +0.045 C 
ENDROOT
BRANCH  10   9
ATOM      4  C   UNL     1      19.549   1.708   9.705  0.00  0.00    +0.077 A 
ATOM      5  C   UNL     1      18.935   0.860   8.724  0.00  0.00    +0.048 A 
ATOM      6  C   UNL     1      18.441  -0.389   9.163  0.00  0.00    +0.116 A 
ATOM      7  N   UNL     1      18.557  -0.752  10.487  0.00  0.00    -0.223 NA
ATOM      8  C   UNL     1      19.156   0.089  11.407  0.00  0.00    +0.220 A 
ATOM      9  N   UNL     1      19.276  -0.253  12.745  0.00  0.00    -0.283 N 
ATOM     36  H   UNL     1      19.731   0.391  13.391  0.00  0.00    +0.155 HD
ATOM     37  N   UNL     1      19.637   1.286  11.013  0.00  0.00    -0.214 NA
BRANCH   4   3
ATOM      1  C   UNL     1      21.110   4.760   7.821  0.00  0.00    +0.020 A 
ATOM      2  C   UNL     1      20.571   3.442   8.066  0.00  0.00    +0.013 A 
ATOM      3  C   UNL     1      20.115   3.059   9.396  0.00  0.00    +0.019 A 
ATOM     38  C   UNL     1      20.219   4.041  10.465  0.00  0.00    +0.120 A 
ATOM     39  N   UNL     1      20.744   5.302  10.200  0.00  0.00    -0.263 NA
ATOM     40  C   UNL     1      21.187   5.681   8.924  0.00  0.00    +0.111 A 
ENDBRANCH   4   3
ENDBRANCH  10   9
BRANCH  12  13
ATOM     13  N   UNL     1      20.081  -4.992  14.028  0.00  0.00    -0.281 N 
ATOM     14  C   UNL     1      20.529  -5.546  15.216  0.00  0.00    +0.248 C 
ATOM     30  O   UNL     1      20.426  -5.011  16.310  0.00  0.00    -0.270 OA
ATOM     31  H   UNL     1      20.402  -5.447  13.173  0.00  0.00    +0.155 HD
BRANCH  14  15
ATOM     15  C   UNL     1      21.202  -6.880  15.183  0.00  0.00    +0.037 A 
ATOM     16  C   UNL     1      20.576  -8.062  15.780  0.00  0.00    +0.013 A 
ATOM     17  C   UNL     1      21.255  -9.334  15.749  0.00  0.00    +0.005 A 
ATOM     18  C   UNL     1      22.568  -9.429  15.116  0.00  0.00    -0.033 A 
ATOM     28  C   UNL     1      23.164  -8.242  14.526  0.00  0.00    +0.005 A 
ATOM     29  C   UNL     1      22.502  -6.994  14.556  0.00  0.00    +0.013 A 
BRANCH  18  19
ATOM     19  C   UNL     1      23.374 -10.741  15.055  0.00  0.00    +0.119 C 
BRANCH  19  20
ATOM     20  N   UNL     1      22.936 -11.767  14.062  0.00  0.00    -0.302 NA
ATOM     21  C   UNL     1      22.710 -13.135  14.712  0.00  0.00    +0.066 C 
ATOM     22  C   UNL     1      22.230 -14.191  13.663  0.00  0.00    -0.064 C 
ATOM     23  N   UNL     1      23.260 -14.290  12.536  0.00  0.00    +0.379 N 
ATOM     24  C   UNL     1      22.840 -15.323  11.578  0.00  0.00    -0.096 C 
ATOM     25  H   UNL     1      24.225 -14.618  12.988  0.00  0.00    -0.082 HD
ATOM     26  C   UNL     1      23.492 -12.933  11.886  0.00  0.00    -0.064 C 
ATOM     27  C   UNL     1      23.940 -11.884  12.942  0.00  0.00    +0.066 C 
ENDBRANCH  19  20
ENDBRANCH  18  19
ENDBRANCH  14  15
ENDBRANCH  12  13
TORSDOF 6
ENDMDL
MODEL 5
REMARK VINA RESULT:      -9.2      1.889      2.914
REMARK  Name = C:\Users\Docking\Desktop\test protocol\1iep_ligandH.pdb
REMARK  8 active torsions:
REMARK  status: ('A' for Active; 'I' for Inactive)
REMARK    1  A    between atoms: _5  and  _11
REMARK    2  A    between atoms: _19  and  _21
REMARK    3  A    between atoms: _22  and  _66
REMARK    4  A    between atoms: _27  and  _30
REMARK    5  A    between atoms: _32  and  _33
REMARK    6  A    between atoms: _38  and  _43
REMARK    7  A    between atoms: _43  and  _46
REMARK    8  A    between atoms: _53  and  _55
REMARK                            x       y       z     vdW  Elec       q    Type
REMARK                         _______ _______ _______ _____ _____    ______ ____
ROOT
ATOM     10  C   UNL     1      17.431   0.462   9.153  0.00  0.00    +0.038 A 
ATOM     11  C   UNL     1      17.916  -0.491  10.084  0.00  0.00    +0.047 A 
ATOM     12  C   UNL     1      17.017  -1.169  11.005  0.00  0.00    +0.035 A 
ATOM     32  C   UNL     1      15.629  -0.854  10.948  0.00  0.00    +0.024 A 
ATOM     33  C   UNL     1      15.118   0.113  10.009  0.00  0.00    +0.007 A 
ATOM     34  C   UNL     1      16.001   0.787   9.100  0.00  0.00    -0.029 A 
ATOM     35  C   UNL     1      15.399   1.820   8.119  0.00  0.00    +0.045 C 
ENDROOT
BRANCH  10   9
ATOM      4  C   UNL     1      20.628   3.894   8.132  0.00  0.00    +0.077 A 
ATOM      5  C   UNL     1      20.455   4.518   9.412  0.00  0.00    +0.048 A 
ATOM      6  C   UNL     1      19.528   3.929  10.302  0.00  0.00    +0.116 A 
ATOM      7  N   UNL     1      18.833   2.800   9.928  0.00  0.00    -0.223 NA
ATOM      8  C   UNL     1      19.022   2.224   8.686  0.00  0.00    +0.220 A 
ATOM      9  N   UNL     1      18.339   1.083   8.292  0.00  0.00    -0.283 N 
ATOM     36  H   UNL     1      18.501   0.693   7.364  0.00  0.00    +0.155 HD
ATOM     37  N   UNL     1      19.900   2.768   7.818  0.00  0.00    -0.214 NA
BRANCH   4   3
ATOM      1  C   UNL     1      23.690   5.557   6.356  0.00  0.00    +0.020 A 
ATOM      2  C   UNL     1      22.813   5.092   7.405  0.00  0.00    +0.013 A 
ATOM      3  C   UNL     1      21.572   4.396   7.085  0.00  0.00    +0.019 A 
ATOM     38  C   UNL     1      21.247   4.185   5.683  0.00  0.00    +0.120 A 
ATOM     39  N   UNL     1      22.111   4.645   4.694  0.00  0.00    -0.263 NA
ATOM     40  C   UNL     1      23.307   5.317   4.989  0.00  0.00    +0.111 A 
ENDBRANCH   4   3
ENDBRANCH  10   9
BRANCH  12  13
ATOM     13  N   UNL     1      17.454  -2.141  11.977  0.00  0.00    -0.281 N 
ATOM     14  C   UNL     1      17.245  -3.510  11.966  0.00  0.00    +0.248 C 
ATOM     30  O   UNL     1      16.462  -4.084  11.223  0.00  0.00    -0.270 OA
ATOM     31  H   UNL     1      17.981  -1.774  12.770  0.00  0.00    +0.155 HD
BRANCH  14  15
ATOM     15  C   UNL     1      18.004  -4.364  12.930  0.00  0.00    +0.037 A 
ATOM     16  C   UNL     1      18.032  -4.054  14.361  0.00  0.00    +0.013 A 
ATOM     17  C   UNL     1      18.786  -4.885  15.267  0.00  0.00    +0.005 A 
ATOM     18  C   UNL     1      19.518  -6.035  14.742  0.00  0.00    -0.033 A 
ATOM     28  C   UNL     1      19.468  -6.323  13.318  0.00  0.00    +0.005 A 
ATOM     29  C   UNL     1      18.731  -5.510  12.427  0.00  0.00    +0.013 A 
BRANCH  18  19
ATOM     19  C   UNL     1      20.365  -6.964  15.631  0.00  0.00    +0.119 C 
BRANCH  19  20
ATOM     20  N   UNL     1      21.366  -7.838  14.949  0.00  0.00    -0.302 NA
ATOM     21  C   UNL     1      21.644  -9.119  15.741  0.00  0.00    +0.066 C 
ATOM     22  C   UNL     1      22.675 -10.032  15.002  0.00  0.00    -0.064 C 
ATOM     23  N   UNL     1      23.968  -9.249  14.767  0.00  0.00    +0.379 N 
ATOM     24  C   UNL     1      24.961 -10.123  14.124  0.00  0.00    -0.096 C 
ATOM     25  H   UNL     1      24.371  -8.955  15.764  0.00  0.00    -0.082 HD
ATOM     26  C   UNL     1      23.701  -7.972  13.983  0.00  0.00    -0.064 C 
ATOM     27  C   UNL     1      22.652  -7.086  14.711  0.00  0.00    +0.066 C 
ENDBRANCH  19  20
ENDBRANCH  18  19
ENDBRANCH  14  15
ENDBRANCH  12  13
TORSDOF 6
ENDMDL
