MODEL 1
REMARK VINA RESULT:      -9.7      0.000      0.000
REMARK  Name = C:\Users\Docking\Desktop\test protocol\1iep_ligandH.pdb
REMARK  8 active torsions:
REMARK  status: ('A' for Active; 'I' for Inactive)
REMARK    1  A    between atoms: _5  and  _11
REMARK    2  A    between atoms: _19  and  _21
REMARK    3  A    between atoms: _22  and  _66
REMARK    4  A    between atoms: _27  and  _30
REMARK    5  A    between atoms: _32  and  _33
REMARK    6  A    between atoms: _38  and  _43
REMARK    7  A    between atoms: _43  and  _46
REMARK    8  A    between atoms: _53  and  _55
REMARK                            x       y       z     vdW  Elec       q    Type
REMARK                         _______ _______ _______ _____ _____    ______ ____
ROOT
ATOM     10  C   UNL     1      17.657  -1.550  10.676  0.00  0.00    +0.038 A 
ATOM     11  C   UNL     1      18.593  -2.414  11.300  0.00  0.00    +0.047 A 
ATOM     12  C   UNL     1      18.201  -3.280  12.401  0.00  0.00    +0.035 A 
ATOM     32  C   UNL     1      16.846  -3.242  12.840  0.00  0.00    +0.024 A 
ATOM     33  C   UNL     1      15.881  -2.369  12.219  0.00  0.00    +0.007 A 
ATOM     34  C   UNL     1      16.263  -1.511  11.134  0.00  0.00    -0.029 A 
ATOM     35  C   UNL     1      15.188  -0.591  10.510  0.00  0.00    +0.045 C 
ENDROOT
BRANCH  10   9
ATOM      4  C   UNL     1      19.267   2.620   8.929  0.00  0.00    +0.077 A 
ATOM      5  C   UNL     1      19.221   3.246  10.219  0.00  0.00    +0.048 A 
ATOM      6  C   UNL     1      18.770   2.463  11.305  0.00  0.00    +0.116 A 
ATOM      7  N   UNL     1      18.396   1.152  11.104  0.00  0.00    -0.223 NA
ATOM      8  C   UNL     1      18.451   0.579   9.847  0.00  0.00    +0.220 A 
ATOM      9  N   UNL     1      18.088  -0.740   9.623  0.00  0.00    -0.283 N 
ATOM     36  H   UNL     1      18.136  -1.123   8.680  0.00  0.00    +0.155 HD
ATOM     37  N   UNL     1      18.877   1.307   8.793  0.00  0.00    -0.214 NA
BRANCH   4   3
ATOM      1  C   UNL     1      21.237   4.905   6.439  0.00  0.00    +0.020 A 
ATOM      2  C   UNL     1      20.835   4.260   7.667  0.00  0.00    +0.013 A 
ATOM      3  C   UNL     1      19.724   3.316   7.685  0.00  0.00    +0.019 A 
ATOM     38  C   UNL     1      19.036   3.044   6.432  0.00  0.00    +0.120 A 
ATOM     39  N   UNL     1      19.444   3.681   5.264  0.00  0.00    -0.263 NA
ATOM     40  C   UNL     1      20.511   4.593   5.236  0.00  0.00    +0.111 A 
ENDBRANCH   4   3
ENDBRANCH  10   9
BRANCH  12  13
ATOM     13  N   UNL     1      19.109  -4.172  13.078  0.00  0.00    -0.281 N 
ATOM     14  C   UNL     1      19.666  -4.026  14.338  0.00  0.00    +0.248 C 
ATOM     30  O   UNL     1      19.634  -2.994  14.992  0.00  0.00    -0.270 OA
ATOM     31  H   UNL     1      19.374  -5.014  12.566  0.00  0.00    +0.155 HD
BRANCH  14  15
ATOM     15  C   UNL     1      20.373  -5.189  14.954  0.00  0.00    +0.037 A 
ATOM     16  C   UNL     1      21.062  -5.065  16.241  0.00  0.00    +0.013 A 
ATOM     17  C   UNL     1      21.751  -6.199  16.806  0.00  0.00    +0.005 A 
ATOM     18  C   UNL     1      21.752  -7.468  16.083  0.00  0.00    -0.033 A 
ATOM     28  C   UNL     1      21.056  -7.565  14.810  0.00  0.00    +0.005 A 
ATOM     29  C   UNL     1      20.381  -6.456  14.254  0.00  0.00    +0.013 A 
BRANCH  18  19
ATOM     19  C   UNL     1      22.479  -8.724  16.599  0.00  0.00    +0.119 C 
BRANCH  19  20
ATOM     20  N   UNL     1      23.028  -9.665  15.578  0.00  0.00    -0.302 NA
ATOM     21  C   UNL     1      22.139 -10.898  15.395  0.00  0.00    +0.066 C 
ATOM     22  C   UNL     1      22.717 -11.860  14.307  0.00  0.00    -0.064 C 
ATOM     23  N   UNL     1      24.138 -12.271  14.696  0.00  0.00    +0.379 N 
ATOM     24  C   UNL     1      24.663 -13.221  13.705  0.00  0.00    -0.096 C 
ATOM     25  H   UNL     1      24.081 -12.800  15.676  0.00  0.00    -0.082 HD
ATOM     26  C   UNL     1      25.029 -11.050  14.883  0.00  0.00    -0.064 C 
ATOM     27  C   UNL     1      24.430 -10.086  15.945  0.00  0.00    +0.066 C 
ENDBRANCH  19  20
ENDBRANCH  18  19
ENDBRANCH  14  15
ENDBRANCH  12  13
TORSDOF 6
ENDMDL
MODEL 2
REMARK VINA RESULT:      -9.4      2.140     13.147
REMARK  Name = C:\Users\Docking\Desktop\test protocol\1iep_ligandH.pdb
REMARK  8 active torsions:
REMARK  status: ('A' for Active; 'I' for Inactive)
REMARK    1  A    between atoms: _5  and  _11
REMARK    2  A    between atoms: _19  and  _21
REMARK    3  A    between atoms: _22  and  _66
REMARK    4  A    between atoms: _27  and  _30
REMARK    5  A    between atoms: _32  and  _33
REMARK    6  A    between atoms: _38  and  _43
REMARK    7  A    between atoms: _43  and  _46
REMARK    8  A    between atoms: _53  and  _55
REMARK                            x       y       z     vdW  Elec       q    Type
REMARK                         _______ _______ _______ _____ _____    ______ ____
ROOT
ATOM     10  C   UNL     1      20.489  -7.202  15.605  0.00  0.00    +0.038 A 
ATOM     11  C   UNL     1      19.742  -6.476  14.643  0.00  0.00    +0.047 A 
ATOM     12  C   UNL     1      19.601  -5.031  14.734  0.00  0.00    +0.035 A 
ATOM     32  C   UNL     1      20.236  -4.357  15.818  0.00  0.00    +0.024 A 
ATOM     33  C   UNL     1      20.999  -5.080  16.805  0.00  0.00    +0.007 A 
ATOM     34  C   UNL     1      21.140  -6.506  16.722  0.00  0.00    -0.029 A 
ATOM     35  C   UNL     1      21.964  -7.230  17.812  0.00  0.00    +0.045 C 
ENDROOT
BRANCH  10   9
ATOM      4  C   UNL     1      22.950 -11.177  14.517  0.00  0.00    +0.077 A 
ATOM      5  C   UNL     1      24.121 -10.427  14.165  0.00  0.00    +0.048 A 
ATOM      6  C   UNL     1      24.046  -9.020  14.271  0.00  0.00    +0.116 A 
ATOM      7  N   UNL     1      22.882  -8.419  14.699  0.00  0.00    -0.223 NA
ATOM      8  C   UNL     1      21.770  -9.172  15.029  0.00  0.00    +0.220 A 
ATOM      9  N   UNL     1      20.592  -8.589  15.469  0.00  0.00    -0.283 N 
ATOM     36  H   UNL     1      19.792  -9.178  15.695  0.00  0.00    +0.155 HD
ATOM     37  N   UNL     1      21.816 -10.517  14.935  0.00  0.00    -0.214 NA
BRANCH   4   3
ATOM      1  C   UNL     1      23.219 -14.886  13.303  0.00  0.00    +0.020 A 
ATOM      2  C   UNL     1      23.314 -13.444  13.306  0.00  0.00    +0.013 A 
ATOM      3  C   UNL     1      22.873 -12.672  14.461  0.00  0.00    +0.019 A 
ATOM     38  C   UNL     1      22.338 -13.394  15.605  0.00  0.00    +0.120 A 
ATOM     39  N   UNL     1      22.258 -14.783  15.573  0.00  0.00    -0.263 NA
ATOM     40  C   UNL     1      22.677 -15.537  14.466  0.00  0.00    +0.111 A 
ENDBRANCH   4   3
ENDBRANCH  10   9
BRANCH  12  13
ATOM     13  N   UNL     1      18.848  -4.241  13.792  0.00  0.00    -0.281 N 
ATOM     14  C   UNL     1      17.474  -4.075  13.726  0.00  0.00    +0.248 C 
ATOM     30  O   UNL     1      16.665  -4.754  14.341  0.00  0.00    -0.270 OA
ATOM     31  H   UNL     1      19.394  -3.745  13.088  0.00  0.00    +0.155 HD
BRANCH  14  15
ATOM     15  C   UNL     1      16.918  -3.009  12.838  0.00  0.00    +0.037 A 
ATOM     16  C   UNL     1      17.077  -1.589  13.164  0.00  0.00    +0.013 A 
ATOM     17  C   UNL     1      16.515  -0.582  12.299  0.00  0.00    +0.005 A 
ATOM     18  C   UNL     1      15.790  -0.991  11.099  0.00  0.00    -0.033 A 
ATOM     28  C   UNL     1      15.652  -2.406  10.797  0.00  0.00    +0.005 A 
ATOM     29  C   UNL     1      16.200  -3.397  11.643  0.00  0.00    +0.013 A 
BRANCH  18  19
ATOM     19  C   UNL     1      15.140   0.015  10.131  0.00  0.00    +0.119 C 
BRANCH  19  20
ATOM     20  N   UNL     1      16.055   0.874   9.321  0.00  0.00    -0.302 NA
ATOM     21  C   UNL     1      15.296   1.697   8.277  0.00  0.00    +0.066 C 
ATOM     22  C   UNL     1      16.266   2.607   7.454  0.00  0.00    -0.064 C 
ATOM     23  N   UNL     1      17.333   1.737   6.787  0.00  0.00    +0.379 N 
ATOM     24  C   UNL     1      18.212   2.583   5.966  0.00  0.00    -0.096 C 
ATOM     25  H   UNL     1      16.812   1.027   6.104  0.00  0.00    -0.082 HD
ATOM     26  C   UNL     1      18.091   0.913   7.818  0.00  0.00    -0.064 C 
ATOM     27  C   UNL     1      17.115   0.035   8.650  0.00  0.00    +0.066 C 
ENDBRANCH  19  20
ENDBRANCH  18  19
ENDBRANCH  14  15
ENDBRANCH  12  13
TORSDOF 6
ENDMDL
MODEL 3
REMARK VINA RESULT:      -9.4      1.826      2.667
REMARK  Name = C:\Users\Docking\Desktop\test protocol\1iep_ligandH.pdb
REMARK  8 active torsions:
REMARK  status: ('A' for Active; 'I' for Inactive)
REMARK    1  A    between atoms: _5  and  _11
REMARK    2  A    between atoms: _19  and  _21
REMARK    3  A    between atoms: _22  and  _66
REMARK    4  A    between atoms: _27  and  _30
REMARK    5  A    between atoms: _32  and  _33
REMARK    6  A    between atoms: _38  and  _43
REMARK    7  A    between atoms: _43  and  _46
REMARK    8  A    between atoms: _53  and  _55
REMARK                            x       y       z     vdW  Elec       q    Type
REMARK                         _______ _______ _______ _____ _____    ______ ____
ROOT
ATOM     10  C   UNL     1      18.809  -1.396  13.222  0.00  0.00    +0.038 A 
ATOM     11  C   UNL     1      19.713  -2.476  13.386  0.00  0.00    +0.047 A 
ATOM     12  C   UNL     1      19.264  -3.762  13.897  0.00  0.00    +0.035 A 
ATOM     32  C   UNL     1      17.886  -3.914  14.227  0.00  0.00    +0.024 A 
ATOM     33  C   UNL     1      16.953  -2.826  14.067  0.00  0.00    +0.007 A 
ATOM     34  C   UNL     1      17.391  -1.555  13.567  0.00  0.00    -0.029 A 
ATOM     35  C   UNL     1      16.348  -0.422  13.422  0.00  0.00    +0.045 C 
ENDROOT
BRANCH  10   9
ATOM      4  C   UNL     1      19.542   1.733   9.656  0.00  0.00    +0.077 A 
ATOM      5  C   UNL     1      18.931   0.866   8.691  0.00  0.00    +0.048 A 
ATOM      6  C   UNL     1      18.447  -0.379   9.151  0.00  0.00    +0.116 A 
ATOM      7  N   UNL     1      18.570  -0.721  10.480  0.00  0.00    -0.223 NA
ATOM      8  C   UNL     1      19.166   0.137  11.385  0.00  0.00    +0.220 A 
ATOM      9  N   UNL     1      19.294  -0.183  12.728  0.00  0.00    -0.283 N 
ATOM     36  H   UNL     1      19.747   0.475  13.362  0.00  0.00    +0.155 HD
ATOM     37  N   UNL     1      19.638   1.331  10.970  0.00  0.00    -0.214 NA
BRANCH   4   3
ATOM      1  C   UNL     1      20.825   5.416   9.949  0.00  0.00    +0.020 A 
ATOM      2  C   UNL     1      20.282   4.130  10.321  0.00  0.00    +0.013 A 
ATOM      3  C   UNL     1      20.099   3.082   9.325  0.00  0.00    +0.019 A 
ATOM     38  C   UNL     1      20.477   3.370   7.950  0.00  0.00    +0.120 A 
ATOM     39  N   UNL     1      20.996   4.619   7.620  0.00  0.00    -0.263 NA
ATOM     40  C   UNL     1      21.175   5.635   8.570  0.00  0.00    +0.111 A 
ENDBRANCH   4   3
ENDBRANCH  10   9
BRANCH  12  13
ATOM     13  N   UNL     1      20.138  -4.892  14.092  0.00  0.00    -0.281 N 
ATOM     14  C   UNL     1      20.369  -5.598  15.262  0.00  0.00    +0.248 C 
ATOM     30  O   UNL     1      20.019  -5.227  16.373  0.00  0.00    -0.270 OA
ATOM     31  H   UNL     1      20.648  -5.211  13.268  0.00  0.00    +0.155 HD
BRANCH  14  15
ATOM     15  C   UNL     1      21.108  -6.894  15.189  0.00  0.00    +0.037 A 
ATOM     16  C   UNL     1      20.566  -8.113  15.795  0.00  0.00    +0.013 A 
ATOM     17  C   UNL     1      21.308  -9.347  15.725  0.00  0.00    +0.005 A 
ATOM     18  C   UNL     1      22.600  -9.369  15.045  0.00  0.00    -0.033 A 
ATOM     28  C   UNL     1      23.112  -8.146  14.448  0.00  0.00    +0.005 A 
ATOM     29  C   UNL     1      22.388  -6.934  14.515  0.00  0.00    +0.013 A 
BRANCH  18  19
ATOM     19  C   UNL     1      23.470 -10.635  14.940  0.00  0.00    +0.119 C 
BRANCH  19  20
ATOM     20  N   UNL     1      23.037 -11.683  13.968  0.00  0.00    -0.302 NA
ATOM     21  C   UNL     1      22.743 -13.019  14.656  0.00  0.00    +0.066 C 
ATOM     22  C   UNL     1      22.270 -14.097  13.627  0.00  0.00    -0.064 C 
ATOM     23  N   UNL     1      23.339 -14.269  12.545  0.00  0.00    +0.379 N 
ATOM     24  C   UNL     1      22.923 -15.323  11.609  0.00  0.00    -0.096 C 
ATOM     25  H   UNL     1      24.274 -14.610  13.046  0.00  0.00    -0.082 HD
ATOM     26  C   UNL     1      23.639 -12.945  11.858  0.00  0.00    -0.064 C 
ATOM     27  C   UNL     1      24.080 -11.872  12.893  0.00  0.00    +0.066 C 
ENDBRANCH  19  20
ENDBRANCH  18  19
ENDBRANCH  14  15
ENDBRANCH  12  13
TORSDOF 6
ENDMDL
MODEL 4
REMARK VINA RESULT:      -9.3      1.193      1.732
REMARK  Name = C:\Users\Docking\Desktop\test protocol\1iep_ligandH.pdb
REMARK  8 active torsions:
REMARK  status: ('A' for Active; 'I' for Inactive)
REMARK    1  A    between atoms: _5  and  _11
REMARK    2  A    between atoms: _19  and  _21
REMARK    3  A    between atoms: _22  and  _66
REMARK    4  A    between atoms: _27  and  _30
REMARK    5  A    between atoms: _32  and  _33
REMARK    6  A    between atoms: _38  and  _43
REMARK    7  A    between atoms: _43  and  _46
REMARK    8  A    between atoms: _53  and  _55
REMARK                            x       y       z     vdW  Elec       q    Type
REMARK                         _______ _______ _______ _____ _____    ______ ____
ROOT
ATOM     10  C   UNL     1      17.648  -1.532  11.199  0.00  0.00    +0.038 A 
ATOM     11  C   UNL     1      18.538  -2.549  11.631  0.00  0.00    +0.047 A 
ATOM     12  C   UNL     1      18.507  -3.046  12.997  0.00  0.00    +0.035 A 
ATOM     32  C   UNL     1      17.555  -2.486  13.898  0.00  0.00    +0.024 A 
ATOM     33  C   UNL     1      16.644  -1.451  13.477  0.00  0.00    +0.007 A 
ATOM     34  C   UNL     1      16.671  -0.955  12.131  0.00  0.00    -0.029 A 
ATOM     35  C   UNL     1      15.675   0.160  11.736  0.00  0.00    +0.045 C 
ENDROOT
BRANCH  10   9
ATOM      4  C   UNL     1      19.311   1.431   7.809  0.00  0.00    +0.077 A 
ATOM      5  C   UNL     1      20.077   2.184   8.760  0.00  0.00    +0.048 A 
ATOM      6  C   UNL     1      20.011   1.781  10.112  0.00  0.00    +0.116 A 
ATOM      7  N   UNL     1      19.233   0.703  10.475  0.00  0.00    -0.223 NA
ATOM      8  C   UNL     1      18.504  -0.000   9.534  0.00  0.00    +0.220 A 
ATOM      9  N   UNL     1      17.722  -1.092   9.876  0.00  0.00    -0.283 N 
ATOM     36  H   UNL     1      17.193  -1.580   9.152  0.00  0.00    +0.155 HD
ATOM     37  N   UNL     1      18.550   0.366   8.236  0.00  0.00    -0.214 NA
BRANCH   4   3
ATOM      1  C   UNL     1      19.533   1.078   3.920  0.00  0.00    +0.020 A 
ATOM      2  C   UNL     1      19.577   0.735   5.323  0.00  0.00    +0.013 A 
ATOM      3  C   UNL     1      19.280   1.733   6.343  0.00  0.00    +0.019 A 
ATOM     38  C   UNL     1      18.939   3.078   5.907  0.00  0.00    +0.120 A 
ATOM     39  N   UNL     1      18.906   3.380   4.549  0.00  0.00    -0.263 NA
ATOM     40  C   UNL     1      19.191   2.428   3.558  0.00  0.00    +0.111 A 
ENDBRANCH   4   3
ENDBRANCH  10   9
BRANCH  12  13
ATOM     13  N   UNL     1      19.391  -4.070  13.494  0.00  0.00    -0.281 N 
ATOM     14  C   UNL     1      20.000  -4.141  14.737  0.00  0.00    +0.248 C 
ATOM     30  O   UNL     1      20.046  -3.219  15.537  0.00  0.00    -0.270 OA
ATOM     31  H   UNL     1      19.593  -4.837  12.852  0.00  0.00    +0.155 HD
BRANCH  14  15
ATOM     15  C   UNL     1      20.666  -5.416  15.143  0.00  0.00    +0.037 A 
ATOM     16  C   UNL     1      20.718  -6.568  14.240  0.00  0.00    +0.013 A 
ATOM     17  C   UNL     1      21.352  -7.791  14.663  0.00  0.00    +0.005 A 
ATOM     18  C   UNL     1      21.941  -7.868  15.997  0.00  0.00    -0.033 A 
ATOM     28  C   UNL     1      21.881  -6.708  16.871  0.00  0.00    +0.005 A 
ATOM     29  C   UNL     1      21.259  -5.508  16.460  0.00  0.00    +0.013 A 
BRANCH  18  19
ATOM     19  C   UNL     1      22.619  -9.140  16.540  0.00  0.00    +0.119 C 
BRANCH  19  20
ATOM     20  N   UNL     1      23.147 -10.114  15.539  0.00  0.00    -0.302 NA
ATOM     21  C   UNL     1      22.381 -11.440  15.569  0.00  0.00    +0.066 C 
ATOM     22  C   UNL     1      22.932 -12.439  14.500  0.00  0.00    -0.064 C 
ATOM     23  N   UNL     1      24.424 -12.670  14.742  0.00  0.00    +0.379 N 
ATOM     24  C   UNL     1      24.932 -13.653  13.775  0.00  0.00    -0.096 C 
ATOM     25  H   UNL     1      24.537 -13.108  15.761  0.00  0.00    -0.082 HD
ATOM     26  C   UNL     1      25.193 -11.356  14.717  0.00  0.00    -0.064 C 
ATOM     27  C   UNL     1      24.619 -10.360  15.763  0.00  0.00    +0.066 C 
ENDBRANCH  19  20
ENDBRANCH  18  19
ENDBRANCH  14  15
ENDBRANCH  12  13
TORSDOF 6
ENDMDL
MODEL 5
REMARK VINA RESULT:      -9.2      2.277      4.600
REMARK  Name = C:\Users\Docking\Desktop\test protocol\1iep_ligandH.pdb
REMARK  8 active torsions:
REMARK  status: ('A' for Active; 'I' for Inactive)
REMARK    1  A    between atoms: _5  and  _11
REMARK    2  A    between atoms: _19  and  _21
REMARK    3  A    between atoms: _22  and  _66
REMARK    4  A    between atoms: _27  and  _30
REMARK    5  A    between atoms: _32  and  _33
REMARK    6  A    between atoms: _38  and  _43
REMARK    7  A    between atoms: _43  and  _46
REMARK    8  A    between atoms: _53  and  _55
REMARK                            x       y       z     vdW  Elec       q    Type
REMARK                         _______ _______ _______ _____ _____    ______ ____
ROOT
ATOM     10  C   UNL     1      17.976   1.844   7.694  0.00  0.00    +0.038 A 
ATOM     11  C   UNL     1      18.397   0.870   8.635  0.00  0.00    +0.047 A 
ATOM     12  C   UNL     1      17.443   0.211   9.513  0.00  0.00    +0.035 A 
ATOM     32  C   UNL     1      16.067   0.565   9.403  0.00  0.00    +0.024 A 
ATOM     33  C   UNL     1      15.622   1.554   8.452  0.00  0.00    +0.007 A 
ATOM     34  C   UNL     1      16.559   2.209   7.585  0.00  0.00    -0.029 A 
ATOM     35  C   UNL     1      16.026   3.266   6.589  0.00  0.00    +0.045 C 
ENDROOT
BRANCH  10   9
ATOM      4  C   UNL     1      21.712   4.778   7.004  0.00  0.00    +0.077 A 
ATOM      5  C   UNL     1      21.738   5.166   8.385  0.00  0.00    +0.048 A 
ATOM      6  C   UNL     1      20.768   4.593   9.238  0.00  0.00    +0.116 A 
ATOM      7  N   UNL     1      19.847   3.699   8.737  0.00  0.00    -0.223 NA
ATOM      8  C   UNL     1      19.848   3.348   7.399  0.00  0.00    +0.220 A 
ATOM      9  N   UNL     1      18.935   2.446   6.876  0.00  0.00    -0.283 N 
ATOM     36  H   UNL     1      18.965   2.218   5.882  0.00  0.00    +0.155 HD
ATOM     37  N   UNL     1      20.763   3.883   6.564  0.00  0.00    -0.214 NA
BRANCH   4   3
ATOM      1  C   UNL     1      24.907   6.236   5.282  0.00  0.00    +0.020 A 
ATOM      2  C   UNL     1      24.018   5.747   6.310  0.00  0.00    +0.013 A 
ATOM      3  C   UNL     1      22.673   5.295   5.978  0.00  0.00    +0.019 A 
ATOM     38  C   UNL     1      22.255   5.351   4.586  0.00  0.00    +0.120 A 
ATOM     39  N   UNL     1      23.133   5.829   3.617  0.00  0.00    -0.263 NA
ATOM     40  C   UNL     1      24.429   6.268   3.925  0.00  0.00    +0.111 A 
ENDBRANCH   4   3
ENDBRANCH  10   9
BRANCH  12  13
ATOM     13  N   UNL     1      17.812  -0.779  10.494  0.00  0.00    -0.281 N 
ATOM     14  C   UNL     1      18.903  -0.766  11.348  0.00  0.00    +0.248 C 
ATOM     30  O   UNL     1      19.850   0.000  11.248  0.00  0.00    -0.270 OA
ATOM     31  H   UNL     1      17.195  -1.588  10.568  0.00  0.00    +0.155 HD
BRANCH  14  15
ATOM     15  C   UNL     1      18.957  -1.758  12.465  0.00  0.00    +0.037 A 
ATOM     16  C   UNL     1      19.915  -1.613  13.564  0.00  0.00    +0.013 A 
ATOM     17  C   UNL     1      19.958  -2.593  14.620  0.00  0.00    +0.005 A 
ATOM     18  C   UNL     1      19.038  -3.727  14.583  0.00  0.00    -0.033 A 
ATOM     28  C   UNL     1      18.094  -3.843  13.483  0.00  0.00    +0.005 A 
ATOM     29  C   UNL     1      18.050  -2.885  12.446  0.00  0.00    +0.013 A 
BRANCH  18  19
ATOM     19  C   UNL     1      19.027  -4.831  15.656  0.00  0.00    +0.119 C 
BRANCH  19  20
ATOM     20  N   UNL     1      20.201  -5.754  15.699  0.00  0.00    -0.302 NA
ATOM     21  C   UNL     1      19.969  -7.018  14.865  0.00  0.00    +0.066 C 
ATOM     22  C   UNL     1      21.215  -7.961  14.903  0.00  0.00    -0.064 C 
ATOM     23  N   UNL     1      21.534  -8.321  16.355  0.00  0.00    +0.379 N 
ATOM     24  C   UNL     1      22.670  -9.255  16.390  0.00  0.00    -0.096 C 
ATOM     25  H   UNL     1      20.648  -8.851  16.775  0.00  0.00    -0.082 HD
ATOM     26  C   UNL     1      21.764  -7.071  17.192  0.00  0.00    -0.064 C 
ATOM     27  C   UNL     1      20.531  -6.126  17.123  0.00  0.00    +0.066 C 
ENDBRANCH  19  20
ENDBRANCH  18  19
ENDBRANCH  14  15
ENDBRANCH  12  13
TORSDOF 6
ENDMDL
