MODEL 1
REMARK VINA RESULT:      -9.6      0.000      0.000
REMARK  Name = C:\Users\Docking\Desktop\test protocol\1iep_ligandH.pdb
REMARK  8 active torsions:
REMARK  status: ('A' for Active; 'I' for Inactive)
REMARK    1  A    between atoms: _5  and  _11
REMARK    2  A    between atoms: _19  and  _21
REMARK    3  A    between atoms: _22  and  _66
REMARK    4  A    between atoms: _27  and  _30
REMARK    5  A    between atoms: _32  and  _33
REMARK    6  A    between atoms: _38  and  _43
REMARK    7  A    between atoms: _43  and  _46
REMARK    8  A    between atoms: _53  and  _55
REMARK                            x       y       z     vdW  Elec       q    Type
REMARK                         _______ _______ _______ _____ _____    ______ ____
ROOT
ATOM     10  C   UNL     1      17.726  -1.680  10.772  0.00  0.00    +0.038 A 
ATOM     11  C   UNL     1      18.665  -2.539  11.399  0.00  0.00    +0.047 A 
ATOM     12  C   UNL     1      18.265  -3.434  12.474  0.00  0.00    +0.035 A 
ATOM     32  C   UNL     1      16.900  -3.429  12.885  0.00  0.00    +0.024 A 
ATOM     33  C   UNL     1      15.933  -2.561  12.260  0.00  0.00    +0.007 A 
ATOM     34  C   UNL     1      16.322  -1.675  11.200  0.00  0.00    -0.029 A 
ATOM     35  C   UNL     1      15.244  -0.763  10.571  0.00  0.00    +0.045 C 
ENDROOT
BRANCH  10   9
ATOM      4  C   UNL     1      19.351   2.535   9.150  0.00  0.00    +0.077 A 
ATOM      5  C   UNL     1      19.296   3.125  10.456  0.00  0.00    +0.048 A 
ATOM      6  C   UNL     1      18.838   2.313  11.517  0.00  0.00    +0.116 A 
ATOM      7  N   UNL     1      18.465   1.008  11.278  0.00  0.00    -0.223 NA
ATOM      8  C   UNL     1      18.527   0.470  10.006  0.00  0.00    +0.220 A 
ATOM      9  N   UNL     1      18.164  -0.842   9.744  0.00  0.00    -0.283 N 
ATOM     36  H   UNL     1      18.218  -1.199   8.791  0.00  0.00    +0.155 HD
ATOM     37  N   UNL     1      18.960   1.226   8.976  0.00  0.00    -0.214 NA
BRANCH   4   3
ATOM      1  C   UNL     1      21.291   4.937   6.749  0.00  0.00    +0.020 A 
ATOM      2  C   UNL     1      20.878   4.262   7.957  0.00  0.00    +0.013 A 
ATOM      3  C   UNL     1      19.816   3.264   7.928  0.00  0.00    +0.019 A 
ATOM     38  C   UNL     1      19.187   2.971   6.649  0.00  0.00    +0.120 A 
ATOM     39  N   UNL     1      19.603   3.638   5.502  0.00  0.00    -0.263 NA
ATOM     40  C   UNL     1      20.624   4.601   5.518  0.00  0.00    +0.111 A 
ENDBRANCH   4   3
ENDBRANCH  10   9
BRANCH  12  13
ATOM     13  N   UNL     1      19.175  -4.322  13.153  0.00  0.00    -0.281 N 
ATOM     14  C   UNL     1      19.694  -4.196  14.431  0.00  0.00    +0.248 C 
ATOM     30  O   UNL     1      19.620  -3.183  15.110  0.00  0.00    -0.270 OA
ATOM     31  H   UNL     1      19.474  -5.144  12.627  0.00  0.00    +0.155 HD
BRANCH  14  15
ATOM     15  C   UNL     1      20.411  -5.359  15.038  0.00  0.00    +0.037 A 
ATOM     16  C   UNL     1      20.944  -5.297  16.401  0.00  0.00    +0.013 A 
ATOM     17  C   UNL     1      21.646  -6.427  16.956  0.00  0.00    +0.005 A 
ATOM     18  C   UNL     1      21.818  -7.631  16.146  0.00  0.00    -0.033 A 
ATOM     28  C   UNL     1      21.274  -7.668  14.798  0.00  0.00    +0.005 A 
ATOM     29  C   UNL     1      20.586  -6.562  14.251  0.00  0.00    +0.013 A 
BRANCH  18  19
ATOM     19  C   UNL     1      22.572  -8.876  16.649  0.00  0.00    +0.119 C 
BRANCH  19  20
ATOM     20  N   UNL     1      23.061  -9.841  15.619  0.00  0.00    -0.302 NA
ATOM     21  C   UNL     1      22.268 -11.151  15.637  0.00  0.00    +0.066 C 
ATOM     22  C   UNL     1      22.778 -12.140  14.539  0.00  0.00    -0.064 C 
ATOM     23  N   UNL     1      24.269 -12.407  14.750  0.00  0.00    +0.379 N 
ATOM     24  C   UNL     1      24.739 -13.382  13.755  0.00  0.00    -0.096 C 
ATOM     25  H   UNL     1      24.390 -12.868  15.758  0.00  0.00    -0.082 HD
ATOM     26  C   UNL     1      25.065 -11.110  14.737  0.00  0.00    -0.064 C 
ATOM     27  C   UNL     1      24.531 -10.123  15.812  0.00  0.00    +0.066 C 
ENDBRANCH  19  20
ENDBRANCH  18  19
ENDBRANCH  14  15
ENDBRANCH  12  13
TORSDOF 6
ENDMDL
MODEL 2
REMARK VINA RESULT:      -9.5      1.269      1.631
REMARK  Name = C:\Users\Docking\Desktop\test protocol\1iep_ligandH.pdb
REMARK  8 active torsions:
REMARK  status: ('A' for Active; 'I' for Inactive)
REMARK    1  A    between atoms: _5  and  _11
REMARK    2  A    between atoms: _19  and  _21
REMARK    3  A    between atoms: _22  and  _66
REMARK    4  A    between atoms: _27  and  _30
REMARK    5  A    between atoms: _32  and  _33
REMARK    6  A    between atoms: _38  and  _43
REMARK    7  A    between atoms: _43  and  _46
REMARK    8  A    between atoms: _53  and  _55
REMARK                            x       y       z     vdW  Elec       q    Type
REMARK                         _______ _______ _______ _____ _____    ______ ____
ROOT
ATOM     10  C   UNL     1      17.727  -1.529  11.261  0.00  0.00    +0.038 A 
ATOM     11  C   UNL     1      18.560  -2.595  11.689  0.00  0.00    +0.047 A 
ATOM     12  C   UNL     1      18.515  -3.081  13.059  0.00  0.00    +0.035 A 
ATOM     32  C   UNL     1      17.609  -2.460  13.967  0.00  0.00    +0.024 A 
ATOM     33  C   UNL     1      16.757  -1.375  13.549  0.00  0.00    +0.007 A 
ATOM     34  C   UNL     1      16.798  -0.889  12.200  0.00  0.00    -0.029 A 
ATOM     35  C   UNL     1      15.866   0.281  11.809  0.00  0.00    +0.045 C 
ENDROOT
BRANCH  10   9
ATOM      4  C   UNL     1      19.453   1.372   7.849  0.00  0.00    +0.077 A 
ATOM      5  C   UNL     1      20.232   2.118   8.794  0.00  0.00    +0.048 A 
ATOM      6  C   UNL     1      20.156   1.728  10.150  0.00  0.00    +0.116 A 
ATOM      7  N   UNL     1      19.356   0.668  10.521  0.00  0.00    -0.223 NA
ATOM      8  C   UNL     1      18.616  -0.029   9.584  0.00  0.00    +0.220 A 
ATOM      9  N   UNL     1      17.811  -1.102   9.934  0.00  0.00    -0.283 N 
ATOM     36  H   UNL     1      17.275  -1.586   9.214  0.00  0.00    +0.155 HD
ATOM     37  N   UNL     1      18.671   0.325   8.283  0.00  0.00    -0.214 NA
BRANCH   4   3
ATOM      1  C   UNL     1      19.519   0.954   3.960  0.00  0.00    +0.020 A 
ATOM      2  C   UNL     1      19.547   0.621   5.366  0.00  0.00    +0.013 A 
ATOM      3  C   UNL     1      19.430   1.662   6.380  0.00  0.00    +0.019 A 
ATOM     38  C   UNL     1      19.285   3.039   5.935  0.00  0.00    +0.120 A 
ATOM     39  N   UNL     1      19.263   3.330   4.574  0.00  0.00    -0.263 NA
ATOM     40  C   UNL     1      19.376   2.337   3.589  0.00  0.00    +0.111 A 
ENDBRANCH   4   3
ENDBRANCH  10   9
BRANCH  12  13
ATOM     13  N   UNL     1      19.342  -4.154  13.553  0.00  0.00    -0.281 N 
ATOM     14  C   UNL     1      20.464  -4.063  14.360  0.00  0.00    +0.248 C 
ATOM     30  O   UNL     1      21.055  -3.022  14.607  0.00  0.00    -0.270 OA
ATOM     31  H   UNL     1      19.067  -5.096  13.273  0.00  0.00    +0.155 HD
BRANCH  14  15
ATOM     15  C   UNL     1      21.018  -5.310  14.970  0.00  0.00    +0.037 A 
ATOM     16  C   UNL     1      21.164  -5.446  16.421  0.00  0.00    +0.013 A 
ATOM     17  C   UNL     1      21.717  -6.653  16.983  0.00  0.00    +0.005 A 
ATOM     18  C   UNL     1      22.128  -7.735  16.091  0.00  0.00    -0.033 A 
ATOM     28  C   UNL     1      21.967  -7.575  14.655  0.00  0.00    +0.005 A 
ATOM     29  C   UNL     1      21.426  -6.393  14.101  0.00  0.00    +0.013 A 
BRANCH  18  19
ATOM     19  C   UNL     1      22.747  -9.049  16.601  0.00  0.00    +0.119 C 
BRANCH  19  20
ATOM     20  N   UNL     1      23.191 -10.039  15.575  0.00  0.00    -0.302 NA
ATOM     21  C   UNL     1      22.366 -11.328  15.625  0.00  0.00    +0.066 C 
ATOM     22  C   UNL     1      22.829 -12.343  14.530  0.00  0.00    -0.064 C 
ATOM     23  N   UNL     1      24.318 -12.645  14.715  0.00  0.00    +0.379 N 
ATOM     24  C   UNL     1      24.743 -13.644  13.724  0.00  0.00    -0.096 C 
ATOM     25  H   UNL     1      24.447 -13.096  15.727  0.00  0.00    -0.082 HD
ATOM     26  C   UNL     1      25.145 -11.369  14.670  0.00  0.00    -0.064 C 
ATOM     27  C   UNL     1      24.657 -10.355  15.742  0.00  0.00    +0.066 C 
ENDBRANCH  19  20
ENDBRANCH  18  19
ENDBRANCH  14  15
ENDBRANCH  12  13
TORSDOF 6
ENDMDL
MODEL 3
REMARK VINA RESULT:      -9.4      2.315      4.845
REMARK  Name = C:\Users\Docking\Desktop\test protocol\1iep_ligandH.pdb
REMARK  8 active torsions:
REMARK  status: ('A' for Active; 'I' for Inactive)
REMARK    1  A    between atoms: _5  and  _11
REMARK    2  A    between atoms: _19  and  _21
REMARK    3  A    between atoms: _22  and  _66
REMARK    4  A    between atoms: _27  and  _30
REMARK    5  A    between atoms: _32  and  _33
REMARK    6  A    between atoms: _38  and  _43
REMARK    7  A    between atoms: _43  and  _46
REMARK    8  A    between atoms: _53  and  _55
REMARK                            x       y       z     vdW  Elec       q    Type
REMARK                         _______ _______ _______ _____ _____    ______ ____
ROOT
ATOM     10  C   UNL     1      18.304   1.748   7.661  0.00  0.00    +0.038 A 
ATOM     11  C   UNL     1      18.699   0.800   8.640  0.00  0.00    +0.047 A 
ATOM     12  C   UNL     1      17.720   0.155   9.501  0.00  0.00    +0.035 A 
ATOM     32  C   UNL     1      16.346   0.496   9.335  0.00  0.00    +0.024 A 
ATOM     33  C   UNL     1      15.927   1.458   8.346  0.00  0.00    +0.007 A 
ATOM     34  C   UNL     1      16.889   2.100   7.496  0.00  0.00    -0.029 A 
ATOM     35  C   UNL     1      16.384   3.128   6.457  0.00  0.00    +0.045 C 
ENDROOT
BRANCH  10   9
ATOM      4  C   UNL     1      21.893   4.859   6.968  0.00  0.00    +0.077 A 
ATOM      5  C   UNL     1      21.784   5.373   8.303  0.00  0.00    +0.048 A 
ATOM      6  C   UNL     1      20.787   4.814   9.134  0.00  0.00    +0.116 A 
ATOM      7  N   UNL     1      19.966   3.817   8.655  0.00  0.00    -0.223 NA
ATOM      8  C   UNL     1      20.096   3.345   7.362  0.00  0.00    +0.220 A 
ATOM      9  N   UNL     1      19.287   2.337   6.862  0.00  0.00    -0.283 N 
ATOM     36  H   UNL     1      19.410   2.022   5.900  0.00  0.00    +0.155 HD
ATOM     37  N   UNL     1      21.040   3.863   6.548  0.00  0.00    -0.214 NA
BRANCH   4   3
ATOM      1  C   UNL     1      25.154   6.290   5.351  0.00  0.00    +0.020 A 
ATOM      2  C   UNL     1      24.219   5.833   6.352  0.00  0.00    +0.013 A 
ATOM      3  C   UNL     1      22.899   5.344   5.972  0.00  0.00    +0.019 A 
ATOM     38  C   UNL     1      22.555   5.330   4.558  0.00  0.00    +0.120 A 
ATOM     39  N   UNL     1      23.476   5.778   3.616  0.00  0.00    -0.263 NA
ATOM     40  C   UNL     1      24.748   6.253   3.970  0.00  0.00    +0.111 A 
ENDBRANCH   4   3
ENDBRANCH  10   9
BRANCH  12  13
ATOM     13  N   UNL     1      18.062  -0.808  10.517  0.00  0.00    -0.281 N 
ATOM     14  C   UNL     1      18.666  -0.576  11.742  0.00  0.00    +0.248 C 
ATOM     30  O   UNL     1      19.200   0.476  12.060  0.00  0.00    -0.270 OA
ATOM     31  H   UNL     1      17.831  -1.780  10.309  0.00  0.00    +0.155 HD
BRANCH  14  15
ATOM     15  C   UNL     1      18.693  -1.675  12.754  0.00  0.00    +0.037 A 
ATOM     16  C   UNL     1      17.506  -2.491  13.022  0.00  0.00    +0.013 A 
ATOM     17  C   UNL     1      17.554  -3.534  14.015  0.00  0.00    +0.005 A 
ATOM     18  C   UNL     1      18.796  -3.768  14.748  0.00  0.00    -0.033 A 
ATOM     28  C   UNL     1      19.960  -2.948  14.459  0.00  0.00    +0.005 A 
ATOM     29  C   UNL     1      19.916  -1.924  13.487  0.00  0.00    +0.013 A 
BRANCH  18  19
ATOM     19  C   UNL     1      18.932  -4.846  15.841  0.00  0.00    +0.119 C 
BRANCH  19  20
ATOM     20  N   UNL     1      20.141  -5.721  15.791  0.00  0.00    -0.302 NA
ATOM     21  C   UNL     1      19.917  -6.962  14.922  0.00  0.00    +0.066 C 
ATOM     22  C   UNL     1      21.199  -7.855  14.863  0.00  0.00    -0.064 C 
ATOM     23  N   UNL     1      21.605  -8.253  16.283  0.00  0.00    +0.379 N 
ATOM     24  C   UNL     1      22.776  -9.140  16.227  0.00  0.00    -0.096 C 
ATOM     25  H   UNL     1      20.762  -8.833  16.725  0.00  0.00    -0.082 HD
ATOM     26  C   UNL     1      21.828  -7.025  17.154  0.00  0.00    -0.064 C 
ATOM     27  C   UNL     1      20.557  -6.130  17.182  0.00  0.00    +0.066 C 
ENDBRANCH  19  20
ENDBRANCH  18  19
ENDBRANCH  14  15
ENDBRANCH  12  13
TORSDOF 6
ENDMDL
MODEL 4
REMARK VINA RESULT:      -9.3      1.851      2.554
REMARK  Name = C:\Users\Docking\Desktop\test protocol\1iep_ligandH.pdb
REMARK  8 active torsions:
REMARK  status: ('A' for Active; 'I' for Inactive)
REMARK    1  A    between atoms: _5  and  _11
REMARK    2  A    between atoms: _19  and  _21
REMARK    3  A    between atoms: _22  and  _66
REMARK    4  A    between atoms: _27  and  _30
REMARK    5  A    between atoms: _32  and  _33
REMARK    6  A    between atoms: _38  and  _43
REMARK    7  A    between atoms: _43  and  _46
REMARK    8  A    between atoms: _53  and  _55
REMARK                            x       y       z     vdW  Elec       q    Type
REMARK                         _______ _______ _______ _____ _____    ______ ____
ROOT
ATOM     10  C   UNL     1      18.632  -1.520  13.140  0.00  0.00    +0.038 A 
ATOM     11  C   UNL     1      19.492  -2.641  13.265  0.00  0.00    +0.047 A 
ATOM     12  C   UNL     1      18.992  -3.923  13.736  0.00  0.00    +0.035 A 
ATOM     32  C   UNL     1      17.609  -4.029  14.067  0.00  0.00    +0.024 A 
ATOM     33  C   UNL     1      16.722  -2.899  13.946  0.00  0.00    +0.007 A 
ATOM     34  C   UNL     1      17.210  -1.631  13.485  0.00  0.00    -0.029 A 
ATOM     35  C   UNL     1      16.215  -0.452  13.381  0.00  0.00    +0.045 C 
ENDROOT
BRANCH  10   9
ATOM      4  C   UNL     1      19.464   1.700   9.678  0.00  0.00    +0.077 A 
ATOM      5  C   UNL     1      18.804   0.896   8.690  0.00  0.00    +0.048 A 
ATOM      6  C   UNL     1      18.270  -0.342   9.112  0.00  0.00    +0.116 A 
ATOM      7  N   UNL     1      18.393  -0.737  10.427  0.00  0.00    -0.223 NA
ATOM      8  C   UNL     1      19.037   0.061  11.354  0.00  0.00    +0.220 A 
ATOM      9  N   UNL     1      19.166  -0.312  12.683  0.00  0.00    -0.283 N 
ATOM     36  H   UNL     1      19.655   0.301  13.334  0.00  0.00    +0.155 HD
ATOM     37  N   UNL     1      19.557   1.248  10.976  0.00  0.00    -0.214 NA
BRANCH   4   3
ATOM      1  C   UNL     1      21.121   4.725   7.833  0.00  0.00    +0.020 A 
ATOM      2  C   UNL     1      20.536   3.423   8.060  0.00  0.00    +0.013 A 
ATOM      3  C   UNL     1      20.077   3.034   9.388  0.00  0.00    +0.019 A 
ATOM     38  C   UNL     1      20.224   3.994  10.472  0.00  0.00    +0.120 A 
ATOM     39  N   UNL     1      20.792   5.239  10.223  0.00  0.00    -0.263 NA
ATOM     40  C   UNL     1      21.239   5.624   8.950  0.00  0.00    +0.111 A 
ENDBRANCH   4   3
ENDBRANCH  10   9
BRANCH  12  13
ATOM     13  N   UNL     1      19.818  -5.094  13.891  0.00  0.00    -0.281 N 
ATOM     14  C   UNL     1      20.876  -5.280  14.767  0.00  0.00    +0.248 C 
ATOM     30  O   UNL     1      21.411  -4.385  15.404  0.00  0.00    -0.270 OA
ATOM     31  H   UNL     1      19.597  -5.882  13.282  0.00  0.00    +0.155 HD
BRANCH  14  15
ATOM     15  C   UNL     1      21.429  -6.657  14.949  0.00  0.00    +0.037 A 
ATOM     16  C   UNL     1      22.763  -7.011  14.459  0.00  0.00    +0.013 A 
ATOM     17  C   UNL     1      23.265  -8.351  14.633  0.00  0.00    +0.005 A 
ATOM     18  C   UNL     1      22.432  -9.347  15.303  0.00  0.00    -0.033 A 
ATOM     28  C   UNL     1      21.114  -8.967  15.784  0.00  0.00    +0.005 A 
ATOM     29  C   UNL     1      20.618  -7.655  15.614  0.00  0.00    +0.013 A 
BRANCH  18  19
ATOM     19  C   UNL     1      22.879 -10.806  15.513  0.00  0.00    +0.119 C 
BRANCH  19  20
ATOM     20  N   UNL     1      22.582 -11.776  14.418  0.00  0.00    -0.302 NA
ATOM     21  C   UNL     1      22.501 -13.216  14.933  0.00  0.00    +0.066 C 
ATOM     22  C   UNL     1      22.167 -14.216  13.778  0.00  0.00    -0.064 C 
ATOM     23  N   UNL     1      23.224 -14.092  12.679  0.00  0.00    +0.379 N 
ATOM     24  C   UNL     1      22.946 -15.071  11.618  0.00  0.00    -0.096 C 
ATOM     25  H   UNL     1      24.211 -14.351  13.128  0.00  0.00    -0.082 HD
ATOM     26  C   UNL     1      23.313 -12.663  12.163  0.00  0.00    -0.064 C 
ATOM     27  C   UNL     1      23.615 -11.674  13.324  0.00  0.00    +0.066 C 
ENDBRANCH  19  20
ENDBRANCH  18  19
ENDBRANCH  14  15
ENDBRANCH  12  13
TORSDOF 6
ENDMDL
MODEL 5
REMARK VINA RESULT:      -9.3      2.044     13.132
REMARK  Name = C:\Users\Docking\Desktop\test protocol\1iep_ligandH.pdb
REMARK  8 active torsions:
REMARK  status: ('A' for Active; 'I' for Inactive)
REMARK    1  A    between atoms: _5  and  _11
REMARK    2  A    between atoms: _19  and  _21
REMARK    3  A    between atoms: _22  and  _66
REMARK    4  A    between atoms: _27  and  _30
REMARK    5  A    between atoms: _32  and  _33
REMARK    6  A    between atoms: _38  and  _43
REMARK    7  A    between atoms: _43  and  _46
REMARK    8  A    between atoms: _53  and  _55
REMARK                            x       y       z     vdW  Elec       q    Type
REMARK                         _______ _______ _______ _____ _____    ______ ____
ROOT
ATOM     10  C   UNL     1      20.583  -7.229  15.571  0.00  0.00    +0.038 A 
ATOM     11  C   UNL     1      19.839  -6.470  14.632  0.00  0.00    +0.047 A 
ATOM     12  C   UNL     1      19.670  -5.034  14.788  0.00  0.00    +0.035 A 
ATOM     32  C   UNL     1      20.274  -4.402  15.914  0.00  0.00    +0.024 A 
ATOM     33  C   UNL     1      21.033  -5.157  16.879  0.00  0.00    +0.007 A 
ATOM     34  C   UNL     1      21.201  -6.574  16.731  0.00  0.00    -0.029 A 
ATOM     35  C   UNL     1      22.019  -7.335  17.801  0.00  0.00    +0.045 C 
ENDROOT
BRANCH  10   9
ATOM      4  C   UNL     1      23.109 -11.095  14.267  0.00  0.00    +0.077 A 
ATOM      5  C   UNL     1      24.258 -10.304  13.929  0.00  0.00    +0.048 A 
ATOM      6  C   UNL     1      24.155  -8.905  14.099  0.00  0.00    +0.116 A 
ATOM      7  N   UNL     1      22.986  -8.350  14.572  0.00  0.00    -0.223 NA
ATOM      8  C   UNL     1      21.896  -9.141  14.887  0.00  0.00    +0.220 A 
ATOM      9  N   UNL     1      20.713  -8.605  15.372  0.00  0.00    -0.283 N 
ATOM     36  H   UNL     1      19.930  -9.222  15.585  0.00  0.00    +0.155 HD
ATOM     37  N   UNL     1      21.969 -10.480  14.732  0.00  0.00    -0.214 NA
BRANCH   4   3
ATOM      1  C   UNL     1      22.306 -14.870  14.903  0.00  0.00    +0.020 A 
ATOM      2  C   UNL     1      22.317 -13.435  15.065  0.00  0.00    +0.013 A 
ATOM      3  C   UNL     1      23.065 -12.587  14.145  0.00  0.00    +0.019 A 
ATOM     38  C   UNL     1      23.795 -13.228  13.062  0.00  0.00    +0.120 A 
ATOM     39  N   UNL     1      23.768 -14.613  12.932  0.00  0.00    -0.263 NA
ATOM     40  C   UNL     1      23.053 -15.439  13.812  0.00  0.00    +0.111 A 
ENDBRANCH   4   3
ENDBRANCH  10   9
BRANCH  12  13
ATOM     13  N   UNL     1      18.919  -4.214  13.871  0.00  0.00    -0.281 N 
ATOM     14  C   UNL     1      17.543  -4.074  13.783  0.00  0.00    +0.248 C 
ATOM     30  O   UNL     1      16.738  -4.801  14.345  0.00  0.00    -0.270 OA
ATOM     31  H   UNL     1      19.468  -3.670  13.205  0.00  0.00    +0.155 HD
BRANCH  14  15
ATOM     15  C   UNL     1      16.981  -2.976  12.939  0.00  0.00    +0.037 A 
ATOM     16  C   UNL     1      16.275  -3.265  11.688  0.00  0.00    +0.013 A 
ATOM     17  C   UNL     1      15.758  -2.187  10.884  0.00  0.00    +0.005 A 
ATOM     18  C   UNL     1      15.944  -0.808  11.330  0.00  0.00    -0.033 A 
ATOM     28  C   UNL     1      16.643  -0.550  12.577  0.00  0.00    +0.005 A 
ATOM     29  C   UNL     1      17.153  -1.604  13.368  0.00  0.00    +0.013 A 
BRANCH  18  19
ATOM     19  C   UNL     1      15.444   0.406  10.524  0.00  0.00    +0.119 C 
BRANCH  19  20
ATOM     20  N   UNL     1      16.145   0.712   9.242  0.00  0.00    -0.302 NA
ATOM     21  C   UNL     1      17.510   1.366   9.476  0.00  0.00    +0.066 C 
ATOM     22  C   UNL     1      18.240   1.658   8.124  0.00  0.00    -0.064 C 
ATOM     23  N   UNL     1      17.355   2.551   7.253  0.00  0.00    +0.379 N 
ATOM     24  C   UNL     1      18.062   2.875   6.006  0.00  0.00    -0.096 C 
ATOM     25  H   UNL     1      17.188   3.504   7.805  0.00  0.00    -0.082 HD
ATOM     26  C   UNL     1      15.994   1.910   7.018  0.00  0.00    -0.064 C 
ATOM     27  C   UNL     1      15.290   1.596   8.367  0.00  0.00    +0.066 C 
ENDBRANCH  19  20
ENDBRANCH  18  19
ENDBRANCH  14  15
ENDBRANCH  12  13
TORSDOF 6
ENDMDL
