MODEL 1
REMARK VINA RESULT:      -8.2      0.000      0.000
REMARK  Name = C:\Users\Docking\Desktop\test protocol\1iep_ligandH.pdb
REMARK  8 active torsions:
REMARK  status: ('A' for Active; 'I' for Inactive)
REMARK    1  A    between atoms: _5  and  _11
REMARK    2  A    between atoms: _19  and  _21
REMARK    3  A    between atoms: _22  and  _66
REMARK    4  A    between atoms: _27  and  _30
REMARK    5  A    between atoms: _32  and  _33
REMARK    6  A    between atoms: _38  and  _43
REMARK    7  A    between atoms: _43  and  _46
REMARK    8  A    between atoms: _53  and  _55
REMARK                            x       y       z     vdW  Elec       q    Type
REMARK                         _______ _______ _______ _____ _____    ______ ____
ROOT
ATOM     10  C   UNL     1      -0.342   2.522  14.474  0.00  0.00    +0.038 A 
ATOM     11  C   UNL     1       0.687   1.709  13.934  0.00  0.00    +0.047 A 
ATOM     12  C   UNL     1       0.522   1.038  12.653  0.00  0.00    +0.035 A 
ATOM     32  C   UNL     1      -0.703   1.220  11.948  0.00  0.00    +0.024 A 
ATOM     33  C   UNL     1      -1.760   2.042  12.483  0.00  0.00    +0.007 A 
ATOM     34  C   UNL     1      -1.605   2.704  13.747  0.00  0.00    -0.029 A 
ATOM     35  C   UNL     1      -2.774   3.568  14.275  0.00  0.00    +0.045 C 
ENDROOT
BRANCH  10   9
ATOM      4  C   UNL     1      -0.532   2.583  19.269  0.00  0.00    +0.077 A 
ATOM      5  C   UNL     1      -1.128   1.279  19.321  0.00  0.00    +0.048 A 
ATOM      6  C   UNL     1      -1.376   0.630  18.091  0.00  0.00    +0.116 A 
ATOM      7  N   UNL     1      -1.048   1.247  16.904  0.00  0.00    -0.223 NA
ATOM      8  C   UNL     1      -0.476   2.506  16.889  0.00  0.00    +0.220 A 
ATOM      9  N   UNL     1      -0.131   3.143  15.707  0.00  0.00    -0.283 N 
ATOM     36  H   UNL     1       0.283   4.074  15.738  0.00  0.00    +0.155 HD
ATOM     37  N   UNL     1      -0.230   3.148  18.050  0.00  0.00    -0.214 NA
BRANCH   4   3
ATOM      1  C   UNL     1       0.661   5.477  21.615  0.00  0.00    +0.020 A 
ATOM      2  C   UNL     1       0.365   4.735  20.412  0.00  0.00    +0.013 A 
ATOM      3  C   UNL     1      -0.206   3.395  20.484  0.00  0.00    +0.019 A 
ATOM     38  C   UNL     1      -0.467   2.832  21.800  0.00  0.00    +0.120 A 
ATOM     39  N   UNL     1      -0.170   3.570  22.942  0.00  0.00    -0.263 NA
ATOM     40  C   UNL     1       0.381   4.859  22.884  0.00  0.00    +0.111 A 
ENDBRANCH   4   3
ENDBRANCH  10   9
BRANCH  12  13
ATOM     13  N   UNL     1       1.528   0.194  12.059  0.00  0.00    -0.281 N 
ATOM     14  C   UNL     1       2.010   0.228  10.761  0.00  0.00    +0.248 C 
ATOM     30  O   UNL     1       1.492   0.854   9.848  0.00  0.00    -0.270 OA
ATOM     31  H   UNL     1       1.935  -0.514  12.670  0.00  0.00    +0.155 HD
BRANCH  14  15
ATOM     15  C   UNL     1       3.236  -0.558  10.424  0.00  0.00    +0.037 A 
ATOM     16  C   UNL     1       3.921  -0.386   9.141  0.00  0.00    +0.013 A 
ATOM     17  C   UNL     1       5.092  -1.169   8.835  0.00  0.00    +0.005 A 
ATOM     18  C   UNL     1       5.585  -2.133   9.816  0.00  0.00    -0.033 A 
ATOM     28  C   UNL     1       4.889  -2.280  11.083  0.00  0.00    +0.005 A 
ATOM     29  C   UNL     1       3.741  -1.515  11.386  0.00  0.00    +0.013 A 
BRANCH  18  19
ATOM     19  C   UNL     1       6.814  -3.026   9.566  0.00  0.00    +0.119 C 
BRANCH  19  20
ATOM     20  N   UNL     1       6.851  -4.349  10.258  0.00  0.00    -0.302 NA
ATOM     21  C   UNL     1       7.863  -4.368  11.407  0.00  0.00    +0.066 C 
ATOM     22  C   UNL     1       7.872  -5.752  12.135  0.00  0.00    -0.064 C 
ATOM     23  N   UNL     1       8.181  -6.856  11.123  0.00  0.00    +0.379 N 
ATOM     24  C   UNL     1       8.247  -8.151  11.814  0.00  0.00    -0.096 C 
ATOM     25  H   UNL     1       9.189  -6.648  10.694  0.00  0.00    -0.082 HD
ATOM     26  C   UNL     1       7.181  -6.842   9.975  0.00  0.00    -0.064 C 
ATOM     27  C   UNL     1       7.159  -5.453   9.278  0.00  0.00    +0.066 C 
ENDBRANCH  19  20
ENDBRANCH  18  19
ENDBRANCH  14  15
ENDBRANCH  12  13
TORSDOF 6
ENDMDL
MODEL 2
REMARK VINA RESULT:      -8.1      4.997     12.659
REMARK  Name = C:\Users\Docking\Desktop\test protocol\1iep_ligandH.pdb
REMARK  8 active torsions:
REMARK  status: ('A' for Active; 'I' for Inactive)
REMARK    1  A    between atoms: _5  and  _11
REMARK    2  A    between atoms: _19  and  _21
REMARK    3  A    between atoms: _22  and  _66
REMARK    4  A    between atoms: _27  and  _30
REMARK    5  A    between atoms: _32  and  _33
REMARK    6  A    between atoms: _38  and  _43
REMARK    7  A    between atoms: _43  and  _46
REMARK    8  A    between atoms: _53  and  _55
REMARK                            x       y       z     vdW  Elec       q    Type
REMARK                         _______ _______ _______ _____ _____    ______ ____
ROOT
ATOM     10  C   UNL     1      -0.080   1.081  13.769  0.00  0.00    +0.038 A 
ATOM     11  C   UNL     1       0.084   2.450  14.101  0.00  0.00    +0.047 A 
ATOM     12  C   UNL     1      -0.992   3.210  14.718  0.00  0.00    +0.035 A 
ATOM     32  C   UNL     1      -2.223   2.542  14.985  0.00  0.00    +0.024 A 
ATOM     33  C   UNL     1      -2.407   1.151  14.653  0.00  0.00    +0.007 A 
ATOM     34  C   UNL     1      -1.349   0.397  14.042  0.00  0.00    -0.029 A 
ATOM     35  C   UNL     1      -1.605  -1.089  13.702  0.00  0.00    +0.045 C 
ENDROOT
BRANCH  10   9
ATOM      4  C   UNL     1       2.623  -0.073   9.974  0.00  0.00    +0.077 A 
ATOM      5  C   UNL     1       1.826   0.726   9.089  0.00  0.00    +0.048 A 
ATOM      6  C   UNL     1       0.725   1.413   9.648  0.00  0.00    +0.116 A 
ATOM      7  N   UNL     1       0.452   1.301  10.994  0.00  0.00    -0.223 NA
ATOM      8  C   UNL     1       1.239   0.521  11.820  0.00  0.00    +0.220 A 
ATOM      9  N   UNL     1       0.987   0.401  13.178  0.00  0.00    -0.283 N 
ATOM     36  H   UNL     1       1.588  -0.191  13.752  0.00  0.00    +0.155 HD
ATOM     37  N   UNL     1       2.296  -0.146  11.310  0.00  0.00    -0.214 NA
BRANCH   4   3
ATOM      1  C   UNL     1       6.203  -1.641   9.807  0.00  0.00    +0.020 A 
ATOM      2  C   UNL     1       5.076  -0.868  10.275  0.00  0.00    +0.013 A 
ATOM      3  C   UNL     1       3.821  -0.856   9.534  0.00  0.00    +0.019 A 
ATOM     38  C   UNL     1       3.739  -1.643   8.313  0.00  0.00    +0.120 A 
ATOM     39  N   UNL     1       4.841  -2.376   7.885  0.00  0.00    -0.263 NA
ATOM     40  C   UNL     1       6.054  -2.395   8.590  0.00  0.00    +0.111 A 
ENDBRANCH   4   3
ENDBRANCH  10   9
BRANCH  12  13
ATOM     13  N   UNL     1      -0.886   4.604  15.069  0.00  0.00    -0.281 N 
ATOM     14  C   UNL     1      -0.313   5.155  16.204  0.00  0.00    +0.248 C 
ATOM     30  O   UNL     1       0.007   4.517  17.196  0.00  0.00    -0.270 OA
ATOM     31  H   UNL     1      -1.281   5.265  14.401  0.00  0.00    +0.155 HD
BRANCH  14  15
ATOM     15  C   UNL     1      -0.075   6.630  16.249  0.00  0.00    +0.037 A 
ATOM     16  C   UNL     1       0.427   7.355  15.079  0.00  0.00    +0.013 A 
ATOM     17  C   UNL     1       0.664   8.774  15.155  0.00  0.00    +0.005 A 
ATOM     18  C   UNL     1       0.398   9.479  16.407  0.00  0.00    -0.033 A 
ATOM     28  C   UNL     1      -0.105   8.736  17.551  0.00  0.00    +0.005 A 
ATOM     29  C   UNL     1      -0.338   7.344  17.480  0.00  0.00    +0.013 A 
BRANCH  18  19
ATOM     19  C   UNL     1       0.642  10.989  16.585  0.00  0.00    +0.119 C 
BRANCH  19  20
ATOM     20  N   UNL     1       2.061  11.454  16.609  0.00  0.00    -0.302 NA
ATOM     21  C   UNL     1       2.900  10.685  17.632  0.00  0.00    +0.066 C 
ATOM     22  C   UNL     1       4.387  11.169  17.628  0.00  0.00    -0.064 C 
ATOM     23  N   UNL     1       4.432  12.671  17.910  0.00  0.00    +0.379 N 
ATOM     24  C   UNL     1       5.832  13.118  17.965  0.00  0.00    -0.096 C 
ATOM     25  H   UNL     1       3.984  12.840  18.917  0.00  0.00    -0.082 HD
ATOM     26  C   UNL     1       3.598  13.444  16.899  0.00  0.00    -0.064 C 
ATOM     27  C   UNL     1       2.129  12.935  16.890  0.00  0.00    +0.066 C 
ENDBRANCH  19  20
ENDBRANCH  18  19
ENDBRANCH  14  15
ENDBRANCH  12  13
TORSDOF 6
ENDMDL
MODEL 3
REMARK VINA RESULT:      -8.0     11.398     13.757
REMARK  Name = C:\Users\Docking\Desktop\test protocol\1iep_ligandH.pdb
REMARK  8 active torsions:
REMARK  status: ('A' for Active; 'I' for Inactive)
REMARK    1  A    between atoms: _5  and  _11
REMARK    2  A    between atoms: _19  and  _21
REMARK    3  A    between atoms: _22  and  _66
REMARK    4  A    between atoms: _27  and  _30
REMARK    5  A    between atoms: _32  and  _33
REMARK    6  A    between atoms: _38  and  _43
REMARK    7  A    between atoms: _43  and  _46
REMARK    8  A    between atoms: _53  and  _55
REMARK                            x       y       z     vdW  Elec       q    Type
REMARK                         _______ _______ _______ _____ _____    ______ ____
ROOT
ATOM     10  C   UNL     1      -0.804  10.239   2.187  0.00  0.00    +0.038 A 
ATOM     11  C   UNL     1      -0.403   8.902   1.937  0.00  0.00    +0.047 A 
ATOM     12  C   UNL     1      -0.306   8.387   0.580  0.00  0.00    +0.035 A 
ATOM     32  C   UNL     1      -0.621   9.262  -0.500  0.00  0.00    +0.024 A 
ATOM     33  C   UNL     1      -1.032  10.624  -0.264  0.00  0.00    +0.007 A 
ATOM     34  C   UNL     1      -1.132  11.137   1.073  0.00  0.00    -0.029 A 
ATOM     35  C   UNL     1      -1.583  12.604   1.267  0.00  0.00    +0.045 C 
ENDROOT
BRANCH  10   9
ATOM      4  C   UNL     1      -3.161  10.815   6.328  0.00  0.00    +0.077 A 
ATOM      5  C   UNL     1      -4.350  10.207   5.804  0.00  0.00    +0.048 A 
ATOM      6  C   UNL     1      -4.316   9.766   4.462  0.00  0.00    +0.116 A 
ATOM      7  N   UNL     1      -3.173   9.926   3.709  0.00  0.00    -0.223 NA
ATOM      8  C   UNL     1      -2.043  10.518   4.245  0.00  0.00    +0.220 A 
ATOM      9  N   UNL     1      -0.880  10.681   3.509  0.00  0.00    -0.283 N 
ATOM     36  H   UNL     1      -0.071  11.129   3.938  0.00  0.00    +0.155 HD
ATOM     37  N   UNL     1      -2.051  10.948   5.524  0.00  0.00    -0.214 NA
BRANCH   4   3
ATOM      1  C   UNL     1      -3.173  13.160   9.459  0.00  0.00    +0.020 A 
ATOM      2  C   UNL     1      -3.304  12.715   8.090  0.00  0.00    +0.013 A 
ATOM      3  C   UNL     1      -3.040  11.328   7.729  0.00  0.00    +0.019 A 
ATOM     38  C   UNL     1      -2.643  10.409   8.785  0.00  0.00    +0.120 A 
ATOM     39  N   UNL     1      -2.524  10.865  10.094  0.00  0.00    -0.263 NA
ATOM     40  C   UNL     1      -2.773  12.198  10.453  0.00  0.00    +0.111 A 
ENDBRANCH   4   3
ENDBRANCH  10   9
BRANCH  12  13
ATOM     13  N   UNL     1       0.088   7.036   0.265  0.00  0.00    -0.281 N 
ATOM     14  C   UNL     1       0.665   6.099   1.107  0.00  0.00    +0.248 C 
ATOM     30  O   UNL     1       1.129   6.352   2.208  0.00  0.00    -0.270 OA
ATOM     31  H   UNL     1      -0.079   6.733  -0.695  0.00  0.00    +0.155 HD
BRANCH  14  15
ATOM     15  C   UNL     1       0.753   4.677   0.653  0.00  0.00    +0.037 A 
ATOM     16  C   UNL     1       0.882   4.340  -0.767  0.00  0.00    +0.013 A 
ATOM     17  C   UNL     1       0.947   2.960  -1.179  0.00  0.00    +0.005 A 
ATOM     18  C   UNL     1       0.885   1.907  -0.169  0.00  0.00    -0.033 A 
ATOM     28  C   UNL     1       0.762   2.270   1.233  0.00  0.00    +0.005 A 
ATOM     29  C   UNL     1       0.697   3.621   1.641  0.00  0.00    +0.013 A 
BRANCH  18  19
ATOM     19  C   UNL     1       0.926   0.408  -0.519  0.00  0.00    +0.119 C 
BRANCH  19  20
ATOM     20  N   UNL     1       2.015  -0.409   0.096  0.00  0.00    -0.302 NA
ATOM     21  C   UNL     1       3.031  -0.889  -0.944  0.00  0.00    +0.066 C 
ATOM     22  C   UNL     1       4.175  -1.722  -0.280  0.00  0.00    -0.064 C 
ATOM     23  N   UNL     1       3.568  -2.908   0.472  0.00  0.00    +0.379 N 
ATOM     24  C   UNL     1       4.644  -3.726   1.049  0.00  0.00    -0.096 C 
ATOM     25  H   UNL     1       3.026  -3.538  -0.271  0.00  0.00    -0.082 HD
ATOM     26  C   UNL     1       2.554  -2.440   1.507  0.00  0.00    -0.064 C 
ATOM     27  C   UNL     1       1.438  -1.588   0.840  0.00  0.00    +0.066 C 
ENDBRANCH  19  20
ENDBRANCH  18  19
ENDBRANCH  14  15
ENDBRANCH  12  13
TORSDOF 6
ENDMDL
MODEL 4
REMARK VINA RESULT:      -7.9      5.261     12.791
REMARK  Name = C:\Users\Docking\Desktop\test protocol\1iep_ligandH.pdb
REMARK  8 active torsions:
REMARK  status: ('A' for Active; 'I' for Inactive)
REMARK    1  A    between atoms: _5  and  _11
REMARK    2  A    between atoms: _19  and  _21
REMARK    3  A    between atoms: _22  and  _66
REMARK    4  A    between atoms: _27  and  _30
REMARK    5  A    between atoms: _32  and  _33
REMARK    6  A    between atoms: _38  and  _43
REMARK    7  A    between atoms: _43  and  _46
REMARK    8  A    between atoms: _53  and  _55
REMARK                            x       y       z     vdW  Elec       q    Type
REMARK                         _______ _______ _______ _____ _____    ______ ____
ROOT
ATOM     10  C   UNL     1      -0.161   0.649  13.920  0.00  0.00    +0.038 A 
ATOM     11  C   UNL     1      -0.199   2.067  13.905  0.00  0.00    +0.047 A 
ATOM     12  C   UNL     1      -1.318   2.796  14.481  0.00  0.00    +0.035 A 
ATOM     32  C   UNL     1      -2.381   2.049  15.067  0.00  0.00    +0.024 A 
ATOM     33  C   UNL     1      -2.359   0.608  15.091  0.00  0.00    +0.007 A 
ATOM     34  C   UNL     1      -1.259  -0.117  14.522  0.00  0.00    -0.029 A 
ATOM     35  C   UNL     1      -1.291  -1.663  14.570  0.00  0.00    +0.045 C 
ENDROOT
BRANCH  10   9
ATOM      4  C   UNL     1       2.739  -0.314  10.219  0.00  0.00    +0.077 A 
ATOM      5  C   UNL     1       1.985   0.526   9.333  0.00  0.00    +0.048 A 
ATOM      6  C   UNL     1       0.854   1.182   9.868  0.00  0.00    +0.116 A 
ATOM      7  N   UNL     1       0.512   1.005  11.191  0.00  0.00    -0.223 NA
ATOM      8  C   UNL     1       1.260   0.187  12.017  0.00  0.00    +0.220 A 
ATOM      9  N   UNL     1       0.938   0.000  13.353  0.00  0.00    -0.283 N 
ATOM     36  H   UNL     1       1.511  -0.617  13.928  0.00  0.00    +0.155 HD
ATOM     37  N   UNL     1       2.344  -0.452  11.531  0.00  0.00    -0.214 NA
BRANCH   4   3
ATOM      1  C   UNL     1       6.427  -1.587   9.942  0.00  0.00    +0.020 A 
ATOM      2  C   UNL     1       5.279  -0.827  10.378  0.00  0.00    +0.013 A 
ATOM      3  C   UNL     1       3.962  -1.072   9.803  0.00  0.00    +0.019 A 
ATOM     38  C   UNL     1       3.840  -2.101   8.782  0.00  0.00    +0.120 A 
ATOM     39  N   UNL     1       4.964  -2.816   8.381  0.00  0.00    -0.263 NA
ATOM     40  C   UNL     1       6.237  -2.588   8.926  0.00  0.00    +0.111 A 
ENDBRANCH   4   3
ENDBRANCH  10   9
BRANCH  12  13
ATOM     13  N   UNL     1      -1.415   4.235  14.487  0.00  0.00    -0.281 N 
ATOM     14  C   UNL     1      -0.686   5.134  15.247  0.00  0.00    +0.248 C 
ATOM     30  O   UNL     1       0.017   4.825  16.198  0.00  0.00    -0.270 OA
ATOM     31  H   UNL     1      -2.105   4.639  13.854  0.00  0.00    +0.155 HD
BRANCH  14  15
ATOM     15  C   UNL     1      -0.758   6.589  14.911  0.00  0.00    +0.037 A 
ATOM     16  C   UNL     1      -2.009   7.203  14.458  0.00  0.00    +0.013 A 
ATOM     17  C   UNL     1      -2.048   8.604  14.124  0.00  0.00    +0.005 A 
ATOM     18  C   UNL     1      -0.830   9.403  14.243  0.00  0.00    -0.033 A 
ATOM     28  C   UNL     1       0.396   8.769  14.700  0.00  0.00    +0.005 A 
ATOM     29  C   UNL     1       0.438   7.395  15.027  0.00  0.00    +0.013 A 
BRANCH  18  19
ATOM     19  C   UNL     1      -0.774  10.900  13.888  0.00  0.00    +0.119 C 
BRANCH  19  20
ATOM     20  N   UNL     1      -0.993  11.273  12.459  0.00  0.00    -0.302 NA
ATOM     21  C   UNL     1      -0.288  12.581  12.091  0.00  0.00    +0.066 C 
ATOM     22  C   UNL     1      -0.509  12.944  10.587  0.00  0.00    -0.064 C 
ATOM     23  N   UNL     1      -2.010  13.039  10.304  0.00  0.00    +0.379 N 
ATOM     24  C   UNL     1      -2.220  13.437   8.904  0.00  0.00    -0.096 C 
ATOM     25  H   UNL     1      -2.425  13.846  10.951  0.00  0.00    -0.082 HD
ATOM     26  C   UNL     1      -2.719  11.743  10.669  0.00  0.00    -0.064 C 
ATOM     27  C   UNL     1      -2.468  11.376  12.158  0.00  0.00    +0.066 C 
ENDBRANCH  19  20
ENDBRANCH  18  19
ENDBRANCH  14  15
ENDBRANCH  12  13
TORSDOF 6
ENDMDL
MODEL 5
REMARK VINA RESULT:      -7.8      9.957     13.509
REMARK  Name = C:\Users\Docking\Desktop\test protocol\1iep_ligandH.pdb
REMARK  8 active torsions:
REMARK  status: ('A' for Active; 'I' for Inactive)
REMARK    1  A    between atoms: _5  and  _11
REMARK    2  A    between atoms: _19  and  _21
REMARK    3  A    between atoms: _22  and  _66
REMARK    4  A    between atoms: _27  and  _30
REMARK    5  A    between atoms: _32  and  _33
REMARK    6  A    between atoms: _38  and  _43
REMARK    7  A    between atoms: _43  and  _46
REMARK    8  A    between atoms: _53  and  _55
REMARK                            x       y       z     vdW  Elec       q    Type
REMARK                         _______ _______ _______ _____ _____    ______ ____
ROOT
ATOM     10  C   UNL     1      -1.603   1.880   6.948  0.00  0.00    +0.038 A 
ATOM     11  C   UNL     1      -1.403   3.196   6.459  0.00  0.00    +0.047 A 
ATOM     12  C   UNL     1      -1.335   3.466   5.032  0.00  0.00    +0.035 A 
ATOM     32  C   UNL     1      -1.477   2.372   4.130  0.00  0.00    +0.024 A 
ATOM     33  C   UNL     1      -1.679   1.027   4.609  0.00  0.00    +0.007 A 
ATOM     34  C   UNL     1      -1.745   0.754   6.017  0.00  0.00    -0.029 A 
ATOM     35  C   UNL     1      -1.958  -0.707   6.474  0.00  0.00    +0.045 C 
ENDROOT
BRANCH  10   9
ATOM      4  C   UNL     1       0.441   0.819  11.160  0.00  0.00    +0.077 A 
ATOM      5  C   UNL     1       1.727   0.625  10.554  0.00  0.00    +0.048 A 
ATOM      6  C   UNL     1       1.818   0.801   9.155  0.00  0.00    +0.116 A 
ATOM      7  N   UNL     1       0.700   1.145   8.426  0.00  0.00    -0.223 NA
ATOM      8  C   UNL     1      -0.525   1.323   9.041  0.00  0.00    +0.220 A 
ATOM      9  N   UNL     1      -1.661   1.678   8.329  0.00  0.00    -0.283 N 
ATOM     36  H   UNL     1      -2.548   1.792   8.819  0.00  0.00    +0.155 HD
ATOM     37  N   UNL     1      -0.639   1.160  10.376  0.00  0.00    -0.214 NA
BRANCH   4   3
ATOM      1  C   UNL     1       0.943   0.587  15.032  0.00  0.00    +0.020 A 
ATOM      2  C   UNL     1       1.244   0.734  13.627  0.00  0.00    +0.013 A 
ATOM      3  C   UNL     1       0.185   0.673  12.627  0.00  0.00    +0.019 A 
ATOM     38  C   UNL     1      -1.180   0.461  13.087  0.00  0.00    +0.120 A 
ATOM     39  N   UNL     1      -1.439   0.321  14.447  0.00  0.00    -0.263 NA
ATOM     40  C   UNL     1      -0.428   0.377  15.418  0.00  0.00    +0.111 A 
ENDBRANCH   4   3
ENDBRANCH  10   9
BRANCH  12  13
ATOM     13  N   UNL     1      -1.126   4.781   4.477  0.00  0.00    -0.281 N 
ATOM     14  C   UNL     1      -0.069   5.217   3.695  0.00  0.00    +0.248 C 
ATOM     30  O   UNL     1       0.971   4.596   3.531  0.00  0.00    -0.270 OA
ATOM     31  H   UNL     1      -1.845   5.474   4.686  0.00  0.00    +0.155 HD
BRANCH  14  15
ATOM     15  C   UNL     1      -0.177   6.540   3.008  0.00  0.00    +0.037 A 
ATOM     16  C   UNL     1       0.900   7.040   2.150  0.00  0.00    +0.013 A 
ATOM     17  C   UNL     1       0.778   8.327   1.512  0.00  0.00    +0.005 A 
ATOM     18  C   UNL     1      -0.428   9.123   1.730  0.00  0.00    -0.033 A 
ATOM     28  C   UNL     1      -1.483   8.600   2.582  0.00  0.00    +0.005 A 
ATOM     29  C   UNL     1      -1.366   7.339   3.210  0.00  0.00    +0.013 A 
BRANCH  18  19
ATOM     19  C   UNL     1      -0.635  10.516   1.107  0.00  0.00    +0.119 C 
BRANCH  19  20
ATOM     20  N   UNL     1      -0.612  10.609  -0.383  0.00  0.00    -0.302 NA
ATOM     21  C   UNL     1       0.784  10.941  -0.917  0.00  0.00    +0.066 C 
ATOM     22  C   UNL     1       0.794  11.012  -2.479  0.00  0.00    -0.064 C 
ATOM     23  N   UNL     1      -0.227  12.052  -2.946  0.00  0.00    +0.379 N 
ATOM     24  C   UNL     1      -0.179  12.163  -4.411  0.00  0.00    -0.096 C 
ATOM     25  H   UNL     1       0.077  13.038  -2.522  0.00  0.00    -0.082 HD
ATOM     26  C   UNL     1      -1.617  11.731  -2.417  0.00  0.00    -0.064 C 
ATOM     27  C   UNL     1      -1.610  11.634  -0.866  0.00  0.00    +0.066 C 
ENDBRANCH  19  20
ENDBRANCH  18  19
ENDBRANCH  14  15
ENDBRANCH  12  13
TORSDOF 6
ENDMDL
