MODEL 1
REMARK VINA RESULT:      -8.2      0.000      0.000
REMARK  Name = C:\Users\Docking\Desktop\test protocol\1iep_ligandH.pdb
REMARK  8 active torsions:
REMARK  status: ('A' for Active; 'I' for Inactive)
REMARK    1  A    between atoms: _5  and  _11
REMARK    2  A    between atoms: _19  and  _21
REMARK    3  A    between atoms: _22  and  _66
REMARK    4  A    between atoms: _27  and  _30
REMARK    5  A    between atoms: _32  and  _33
REMARK    6  A    between atoms: _38  and  _43
REMARK    7  A    between atoms: _43  and  _46
REMARK    8  A    between atoms: _53  and  _55
REMARK                            x       y       z     vdW  Elec       q    Type
REMARK                         _______ _______ _______ _____ _____    ______ ____
ROOT
ATOM     10  C   UNL     1      -0.342   2.481  14.426  0.00  0.00    +0.038 A 
ATOM     11  C   UNL     1       0.687   1.671  13.881  0.00  0.00    +0.047 A 
ATOM     12  C   UNL     1       0.524   1.011  12.596  0.00  0.00    +0.035 A 
ATOM     32  C   UNL     1      -0.699   1.199  11.890  0.00  0.00    +0.024 A 
ATOM     33  C   UNL     1      -1.757   2.018  12.429  0.00  0.00    +0.007 A 
ATOM     34  C   UNL     1      -1.603   2.670  13.698  0.00  0.00    -0.029 A 
ATOM     35  C   UNL     1      -2.772   3.532  14.230  0.00  0.00    +0.045 C 
ENDROOT
BRANCH  10   9
ATOM      4  C   UNL     1      -0.558   2.513  19.220  0.00  0.00    +0.077 A 
ATOM      5  C   UNL     1      -1.165   1.214  19.261  0.00  0.00    +0.048 A 
ATOM      6  C   UNL     1      -1.412   0.574  18.025  0.00  0.00    +0.116 A 
ATOM      7  N   UNL     1      -1.072   1.197  16.844  0.00  0.00    -0.223 NA
ATOM      8  C   UNL     1      -0.489   2.451  16.840  0.00  0.00    +0.220 A 
ATOM      9  N   UNL     1      -0.132   3.092  15.664  0.00  0.00    -0.283 N 
ATOM     36  H   UNL     1       0.289   4.020  15.704  0.00  0.00    +0.155 HD
ATOM     37  N   UNL     1      -0.245   3.083  18.007  0.00  0.00    -0.214 NA
BRANCH   4   3
ATOM      1  C   UNL     1       0.599   5.401  21.592  0.00  0.00    +0.020 A 
ATOM      2  C   UNL     1       0.301   4.670  20.382  0.00  0.00    +0.013 A 
ATOM      3  C   UNL     1      -0.232   3.315  20.442  0.00  0.00    +0.019 A 
ATOM     38  C   UNL     1      -0.455   2.724  21.753  0.00  0.00    +0.120 A 
ATOM     39  N   UNL     1      -0.157   3.451  22.901  0.00  0.00    -0.263 NA
ATOM     40  C   UNL     1       0.358   4.755  22.855  0.00  0.00    +0.111 A 
ENDBRANCH   4   3
ENDBRANCH  10   9
BRANCH  12  13
ATOM     13  N   UNL     1       1.531   0.170  11.997  0.00  0.00    -0.281 N 
ATOM     14  C   UNL     1       2.049   0.243  10.714  0.00  0.00    +0.248 C 
ATOM     30  O   UNL     1       1.569   0.913   9.812  0.00  0.00    -0.270 OA
ATOM     31  H   UNL     1       1.908  -0.569  12.591  0.00  0.00    +0.155 HD
BRANCH  14  15
ATOM     15  C   UNL     1       3.269  -0.554  10.381  0.00  0.00    +0.037 A 
ATOM     16  C   UNL     1       3.935  -0.417   9.084  0.00  0.00    +0.013 A 
ATOM     17  C   UNL     1       5.100  -1.211   8.782  0.00  0.00    +0.005 A 
ATOM     18  C   UNL     1       5.607  -2.148   9.781  0.00  0.00    -0.033 A 
ATOM     28  C   UNL     1       4.929  -2.260  11.062  0.00  0.00    +0.005 A 
ATOM     29  C   UNL     1       3.786  -1.485  11.361  0.00  0.00    +0.013 A 
BRANCH  18  19
ATOM     19  C   UNL     1       6.831  -3.050   9.537  0.00  0.00    +0.119 C 
BRANCH  19  20
ATOM     20  N   UNL     1       6.839  -4.387  10.203  0.00  0.00    -0.302 NA
ATOM     21  C   UNL     1       7.820  -4.438  11.378  0.00  0.00    +0.066 C 
ATOM     22  C   UNL     1       7.799  -5.836  12.077  0.00  0.00    -0.064 C 
ATOM     23  N   UNL     1       8.127  -6.921  11.050  0.00  0.00    +0.379 N 
ATOM     24  C   UNL     1       8.165  -8.232  11.716  0.00  0.00    -0.096 C 
ATOM     25  H   UNL     1       9.148  -6.714  10.653  0.00  0.00    -0.082 HD
ATOM     26  C   UNL     1       7.158  -6.876   9.877  0.00  0.00    -0.064 C 
ATOM     27  C   UNL     1       7.165  -5.473   9.208  0.00  0.00    +0.066 C 
ENDBRANCH  19  20
ENDBRANCH  18  19
ENDBRANCH  14  15
ENDBRANCH  12  13
TORSDOF 6
ENDMDL
MODEL 2
REMARK VINA RESULT:      -8.1      4.954     12.595
REMARK  Name = C:\Users\Docking\Desktop\test protocol\1iep_ligandH.pdb
REMARK  8 active torsions:
REMARK  status: ('A' for Active; 'I' for Inactive)
REMARK    1  A    between atoms: _5  and  _11
REMARK    2  A    between atoms: _19  and  _21
REMARK    3  A    between atoms: _22  and  _66
REMARK    4  A    between atoms: _27  and  _30
REMARK    5  A    between atoms: _32  and  _33
REMARK    6  A    between atoms: _38  and  _43
REMARK    7  A    between atoms: _43  and  _46
REMARK    8  A    between atoms: _53  and  _55
REMARK                            x       y       z     vdW  Elec       q    Type
REMARK                         _______ _______ _______ _____ _____    ______ ____
ROOT
ATOM     10  C   UNL     1      -0.108   0.987  13.698  0.00  0.00    +0.038 A 
ATOM     11  C   UNL     1       0.077   2.344  14.064  0.00  0.00    +0.047 A 
ATOM     12  C   UNL     1      -1.019   3.134  14.603  0.00  0.00    +0.035 A 
ATOM     32  C   UNL     1      -2.290   2.508  14.759  0.00  0.00    +0.024 A 
ATOM     33  C   UNL     1      -2.496   1.129  14.391  0.00  0.00    +0.007 A 
ATOM     34  C   UNL     1      -1.419   0.346  13.856  0.00  0.00    -0.029 A 
ATOM     35  C   UNL     1      -1.698  -1.126  13.473  0.00  0.00    +0.045 C 
ENDROOT
BRANCH  10   9
ATOM      4  C   UNL     1       2.805  -0.277  10.098  0.00  0.00    +0.077 A 
ATOM      5  C   UNL     1       2.083   0.526   9.154  0.00  0.00    +0.048 A 
ATOM      6  C   UNL     1       0.964   1.243   9.633  0.00  0.00    +0.116 A 
ATOM      7  N   UNL     1       0.603   1.156  10.960  0.00  0.00    -0.223 NA
ATOM      8  C   UNL     1       1.320   0.371  11.844  0.00  0.00    +0.220 A 
ATOM      9  N   UNL     1       0.980   0.276  13.185  0.00  0.00    -0.283 N 
ATOM     36  H   UNL     1       1.529  -0.320  13.803  0.00  0.00    +0.155 HD
ATOM     37  N   UNL     1       2.392  -0.325  11.411  0.00  0.00    -0.214 NA
BRANCH   4   3
ATOM      1  C   UNL     1       6.455  -1.679   9.966  0.00  0.00    +0.020 A 
ATOM      2  C   UNL     1       5.322  -0.865  10.342  0.00  0.00    +0.013 A 
ATOM      3  C   UNL     1       4.011  -1.091   9.745  0.00  0.00    +0.019 A 
ATOM     38  C   UNL     1       3.880  -2.158   8.765  0.00  0.00    +0.120 A 
ATOM     39  N   UNL     1       4.989  -2.925   8.422  0.00  0.00    -0.263 NA
ATOM     40  C   UNL     1       6.255  -2.716   8.988  0.00  0.00    +0.111 A 
ENDBRANCH   4   3
ENDBRANCH  10   9
BRANCH  12  13
ATOM     13  N   UNL     1      -0.894   4.519  14.985  0.00  0.00    -0.281 N 
ATOM     14  C   UNL     1      -0.314   5.037  16.131  0.00  0.00    +0.248 C 
ATOM     30  O   UNL     1      -0.004   4.374  17.109  0.00  0.00    -0.270 OA
ATOM     31  H   UNL     1      -1.279   5.200  14.330  0.00  0.00    +0.155 HD
BRANCH  14  15
ATOM     15  C   UNL     1      -0.055   6.507  16.208  0.00  0.00    +0.037 A 
ATOM     16  C   UNL     1       0.455   7.250  15.053  0.00  0.00    +0.013 A 
ATOM     17  C   UNL     1       0.713   8.664  15.159  0.00  0.00    +0.005 A 
ATOM     18  C   UNL     1       0.458   9.346  16.426  0.00  0.00    -0.033 A 
ATOM     28  C   UNL     1      -0.053   8.585  17.555  0.00  0.00    +0.005 A 
ATOM     29  C   UNL     1      -0.306   7.199  17.454  0.00  0.00    +0.013 A 
BRANCH  18  19
ATOM     19  C   UNL     1       0.724  10.848  16.636  0.00  0.00    +0.119 C 
BRANCH  19  20
ATOM     20  N   UNL     1       2.150  11.292  16.668  0.00  0.00    -0.302 NA
ATOM     21  C   UNL     1       2.930  10.636  17.811  0.00  0.00    +0.066 C 
ATOM     22  C   UNL     1       4.425  11.095  17.816  0.00  0.00    -0.064 C 
ATOM     23  N   UNL     1       4.488  12.619  17.922  0.00  0.00    +0.379 N 
ATOM     24  C   UNL     1       5.892  13.050  17.985  0.00  0.00    -0.096 C 
ATOM     25  H   UNL     1       4.001  12.911  18.882  0.00  0.00    -0.082 HD
ATOM     26  C   UNL     1       3.712  13.280  16.791  0.00  0.00    -0.064 C 
ATOM     27  C   UNL     1       2.235  12.795  16.777  0.00  0.00    +0.066 C 
ENDBRANCH  19  20
ENDBRANCH  18  19
ENDBRANCH  14  15
ENDBRANCH  12  13
TORSDOF 6
ENDMDL
MODEL 3
REMARK VINA RESULT:      -8.0     10.035     13.548
REMARK  Name = C:\Users\Docking\Desktop\test protocol\1iep_ligandH.pdb
REMARK  8 active torsions:
REMARK  status: ('A' for Active; 'I' for Inactive)
REMARK    1  A    between atoms: _5  and  _11
REMARK    2  A    between atoms: _19  and  _21
REMARK    3  A    between atoms: _22  and  _66
REMARK    4  A    between atoms: _27  and  _30
REMARK    5  A    between atoms: _32  and  _33
REMARK    6  A    between atoms: _38  and  _43
REMARK    7  A    between atoms: _43  and  _46
REMARK    8  A    between atoms: _53  and  _55
REMARK                            x       y       z     vdW  Elec       q    Type
REMARK                         _______ _______ _______ _____ _____    ______ ____
ROOT
ATOM     10  C   UNL     1      -1.468   2.179   7.025  0.00  0.00    +0.038 A 
ATOM     11  C   UNL     1      -1.250   3.474   6.491  0.00  0.00    +0.047 A 
ATOM     12  C   UNL     1      -1.267   3.710   5.055  0.00  0.00    +0.035 A 
ATOM     32  C   UNL     1      -1.513   2.602   4.192  0.00  0.00    +0.024 A 
ATOM     33  C   UNL     1      -1.736   1.278   4.718  0.00  0.00    +0.007 A 
ATOM     34  C   UNL     1      -1.718   1.040   6.133  0.00  0.00    -0.029 A 
ATOM     35  C   UNL     1      -1.957  -0.401   6.640  0.00  0.00    +0.045 C 
ENDROOT
BRANCH  10   9
ATOM      4  C   UNL     1       0.733   0.879  11.087  0.00  0.00    +0.077 A 
ATOM      5  C   UNL     1       1.918   0.477  10.386  0.00  0.00    +0.048 A 
ATOM      6  C   UNL     1       1.918   0.614   8.980  0.00  0.00    +0.116 A 
ATOM      7  N   UNL     1       0.810   1.117   8.333  0.00  0.00    -0.223 NA
ATOM      8  C   UNL     1      -0.318   1.494   9.039  0.00  0.00    +0.220 A 
ATOM      9  N   UNL     1      -1.441   2.010   8.411  0.00  0.00    -0.283 N 
ATOM     36  H   UNL     1      -2.255   2.269   8.966  0.00  0.00    +0.155 HD
ATOM     37  N   UNL     1      -0.343   1.371  10.383  0.00  0.00    -0.214 NA
BRANCH   4   3
ATOM      1  C   UNL     1       1.313   0.013  14.857  0.00  0.00    +0.020 A 
ATOM      2  C   UNL     1       1.505   0.059  13.426  0.00  0.00    +0.013 A 
ATOM      3  C   UNL     1       0.580   0.797  12.574  0.00  0.00    +0.019 A 
ATOM     38  C   UNL     1      -0.536   1.483  13.207  0.00  0.00    +0.120 A 
ATOM     39  N   UNL     1      -0.696   1.420  14.588  0.00  0.00    -0.263 NA
ATOM     40  C   UNL     1       0.186   0.711  15.418  0.00  0.00    +0.111 A 
ENDBRANCH   4   3
ENDBRANCH  10   9
BRANCH  12  13
ATOM     13  N   UNL     1      -1.043   5.002   4.455  0.00  0.00    -0.281 N 
ATOM     14  C   UNL     1      -0.011   5.382   3.613  0.00  0.00    +0.248 C 
ATOM     30  O   UNL     1       1.000   4.724   3.418  0.00  0.00    -0.270 OA
ATOM     31  H   UNL     1      -1.729   5.723   4.678  0.00  0.00    +0.155 HD
BRANCH  14  15
ATOM     15  C   UNL     1      -0.110   6.690   2.896  0.00  0.00    +0.037 A 
ATOM     16  C   UNL     1       0.890   7.089   1.902  0.00  0.00    +0.013 A 
ATOM     17  C   UNL     1       0.780   8.363   1.237  0.00  0.00    +0.005 A 
ATOM     18  C   UNL     1      -0.336   9.247   1.563  0.00  0.00    -0.033 A 
ATOM     28  C   UNL     1      -1.317   8.824   2.548  0.00  0.00    +0.005 A 
ATOM     29  C   UNL     1      -1.212   7.577   3.203  0.00  0.00    +0.013 A 
BRANCH  18  19
ATOM     19  C   UNL     1      -0.521  10.633   0.917  0.00  0.00    +0.119 C 
BRANCH  19  20
ATOM     20  N   UNL     1      -0.358  10.725  -0.564  0.00  0.00    -0.302 NA
ATOM     21  C   UNL     1       0.997  11.322  -0.957  0.00  0.00    +0.066 C 
ATOM     22  C   UNL     1       1.159  11.389  -2.511  0.00  0.00    -0.064 C 
ATOM     23  N   UNL     1       0.014  12.210  -3.105  0.00  0.00    +0.379 N 
ATOM     24  C   UNL     1       0.195  12.325  -4.560  0.00  0.00    -0.096 C 
ATOM     25  H   UNL     1       0.074  13.236  -2.675  0.00  0.00    -0.082 HD
ATOM     26  C   UNL     1      -1.337  11.626  -2.717  0.00  0.00    -0.064 C 
ATOM     27  C   UNL     1      -1.477  11.535  -1.172  0.00  0.00    +0.066 C 
ENDBRANCH  19  20
ENDBRANCH  18  19
ENDBRANCH  14  15
ENDBRANCH  12  13
TORSDOF 6
ENDMDL
MODEL 4
REMARK VINA RESULT:      -8.0     11.390     13.771
REMARK  Name = C:\Users\Docking\Desktop\test protocol\1iep_ligandH.pdb
REMARK  8 active torsions:
REMARK  status: ('A' for Active; 'I' for Inactive)
REMARK    1  A    between atoms: _5  and  _11
REMARK    2  A    between atoms: _19  and  _21
REMARK    3  A    between atoms: _22  and  _66
REMARK    4  A    between atoms: _27  and  _30
REMARK    5  A    between atoms: _32  and  _33
REMARK    6  A    between atoms: _38  and  _43
REMARK    7  A    between atoms: _43  and  _46
REMARK    8  A    between atoms: _53  and  _55
REMARK                            x       y       z     vdW  Elec       q    Type
REMARK                         _______ _______ _______ _____ _____    ______ ____
ROOT
ATOM     10  C   UNL     1      -0.711  10.243   2.183  0.00  0.00    +0.038 A 
ATOM     11  C   UNL     1      -0.290   8.911   1.938  0.00  0.00    +0.047 A 
ATOM     12  C   UNL     1      -0.151   8.403   0.582  0.00  0.00    +0.035 A 
ATOM     32  C   UNL     1      -0.446   9.280  -0.502  0.00  0.00    +0.024 A 
ATOM     33  C   UNL     1      -0.877  10.637  -0.271  0.00  0.00    +0.007 A 
ATOM     34  C   UNL     1      -1.018  11.143   1.064  0.00  0.00    -0.029 A 
ATOM     35  C   UNL     1      -1.489  12.604   1.253  0.00  0.00    +0.045 C 
ENDROOT
BRANCH  10   9
ATOM      4  C   UNL     1      -3.158  10.708   6.286  0.00  0.00    +0.077 A 
ATOM      5  C   UNL     1      -4.312  10.052   5.741  0.00  0.00    +0.048 A 
ATOM      6  C   UNL     1      -4.237   9.616   4.399  0.00  0.00    +0.116 A 
ATOM      7  N   UNL     1      -3.089   9.826   3.666  0.00  0.00    -0.223 NA
ATOM      8  C   UNL     1      -1.995  10.463   4.221  0.00  0.00    +0.220 A 
ATOM      9  N   UNL     1      -0.828  10.678   3.505  0.00  0.00    -0.283 N 
ATOM     36  H   UNL     1      -0.045  11.158   3.948  0.00  0.00    +0.155 HD
ATOM     37  N   UNL     1      -2.042  10.890   5.500  0.00  0.00    -0.214 NA
BRANCH   4   3
ATOM      1  C   UNL     1      -2.428  11.007  10.117  0.00  0.00    +0.020 A 
ATOM      2  C   UNL     1      -2.477  10.465   8.779  0.00  0.00    +0.013 A 
ATOM      3  C   UNL     1      -3.082  11.222   7.690  0.00  0.00    +0.019 A 
ATOM     38  C   UNL     1      -3.631  12.535   7.990  0.00  0.00    +0.120 A 
ATOM     39  N   UNL     1      -3.572  13.031   9.289  0.00  0.00    -0.263 NA
ATOM     40  C   UNL     1      -2.994  12.311  10.345  0.00  0.00    +0.111 A 
ENDBRANCH   4   3
ENDBRANCH  10   9
BRANCH  12  13
ATOM     13  N   UNL     1       0.264   7.057   0.272  0.00  0.00    -0.281 N 
ATOM     14  C   UNL     1       0.566   6.034   1.155  0.00  0.00    +0.248 C 
ATOM     30  O   UNL     1       0.731   6.185   2.357  0.00  0.00    -0.270 OA
ATOM     31  H   UNL     1       0.346   6.832  -0.720  0.00  0.00    +0.155 HD
BRANCH  14  15
ATOM     15  C   UNL     1       0.721   4.645   0.626  0.00  0.00    +0.037 A 
ATOM     16  C   UNL     1       0.858   4.390  -0.810  0.00  0.00    +0.013 A 
ATOM     17  C   UNL     1       0.989   3.039  -1.296  0.00  0.00    +0.005 A 
ATOM     18  C   UNL     1       0.984   1.932  -0.343  0.00  0.00    -0.033 A 
ATOM     28  C   UNL     1       0.852   2.214   1.077  0.00  0.00    +0.005 A 
ATOM     29  C   UNL     1       0.722   3.536   1.557  0.00  0.00    +0.013 A 
BRANCH  18  19
ATOM     19  C   UNL     1       1.098   0.457  -0.773  0.00  0.00    +0.119 C 
BRANCH  19  20
ATOM     20  N   UNL     1       2.085  -0.394  -0.044  0.00  0.00    -0.302 NA
ATOM     21  C   UNL     1       3.148  -0.972  -0.983  0.00  0.00    +0.066 C 
ATOM     22  C   UNL     1       4.186  -1.841  -0.200  0.00  0.00    -0.064 C 
ATOM     23  N   UNL     1       3.453  -2.960   0.542  0.00  0.00    +0.379 N 
ATOM     24  C   UNL     1       4.431  -3.813   1.232  0.00  0.00    -0.096 C 
ATOM     25  H   UNL     1       2.934  -3.587  -0.219  0.00  0.00    -0.082 HD
ATOM     26  C   UNL     1       2.392  -2.394   1.476  0.00  0.00    -0.064 C 
ATOM     27  C   UNL     1       1.383  -1.508   0.693  0.00  0.00    +0.066 C 
ENDBRANCH  19  20
ENDBRANCH  18  19
ENDBRANCH  14  15
ENDBRANCH  12  13
TORSDOF 6
ENDMDL
MODEL 5
REMARK VINA RESULT:      -7.9      5.239     12.910
REMARK  Name = C:\Users\Docking\Desktop\test protocol\1iep_ligandH.pdb
REMARK  8 active torsions:
REMARK  status: ('A' for Active; 'I' for Inactive)
REMARK    1  A    between atoms: _5  and  _11
REMARK    2  A    between atoms: _19  and  _21
REMARK    3  A    between atoms: _22  and  _66
REMARK    4  A    between atoms: _27  and  _30
REMARK    5  A    between atoms: _32  and  _33
REMARK    6  A    between atoms: _38  and  _43
REMARK    7  A    between atoms: _43  and  _46
REMARK    8  A    between atoms: _53  and  _55
REMARK                            x       y       z     vdW  Elec       q    Type
REMARK                         _______ _______ _______ _____ _____    ______ ____
ROOT
ATOM     10  C   UNL     1      -0.173   0.748  13.774  0.00  0.00    +0.038 A 
ATOM     11  C   UNL     1      -0.236   2.164  13.796  0.00  0.00    +0.047 A 
ATOM     12  C   UNL     1      -1.359   2.858  14.406  0.00  0.00    +0.035 A 
ATOM     32  C   UNL     1      -2.400   2.078  14.988  0.00  0.00    +0.024 A 
ATOM     33  C   UNL     1      -2.353   0.637  14.974  0.00  0.00    +0.007 A 
ATOM     34  C   UNL     1      -1.248  -0.053  14.371  0.00  0.00    -0.029 A 
ATOM     35  C   UNL     1      -1.253  -1.600  14.379  0.00  0.00    +0.045 C 
ENDROOT
BRANCH  10   9
ATOM      4  C   UNL     1       2.674  -0.088  10.001  0.00  0.00    +0.077 A 
ATOM      5  C   UNL     1       1.884   0.749   9.145  0.00  0.00    +0.048 A 
ATOM      6  C   UNL     1       0.749   1.371   9.712  0.00  0.00    +0.116 A 
ATOM      7  N   UNL     1       0.437   1.164  11.039  0.00  0.00    -0.223 NA
ATOM      8  C   UNL     1       1.219   0.349  11.836  0.00  0.00    +0.220 A 
ATOM      9  N   UNL     1       0.929   0.134  13.175  0.00  0.00    -0.283 N 
ATOM     36  H   UNL     1       1.527  -0.480  13.728  0.00  0.00    +0.155 HD
ATOM     37  N   UNL     1       2.308  -0.257  11.318  0.00  0.00    -0.214 NA
BRANCH   4   3
ATOM      1  C   UNL     1       5.228  -2.128   7.854  0.00  0.00    +0.020 A 
ATOM      2  C   UNL     1       4.017  -1.443   8.241  0.00  0.00    +0.013 A 
ATOM      3  C   UNL     1       3.905  -0.810   9.549  0.00  0.00    +0.019 A 
ATOM     38  C   UNL     1       5.046  -0.889  10.448  0.00  0.00    +0.120 A 
ATOM     39  N   UNL     1       6.200  -1.556  10.048  0.00  0.00    -0.263 NA
ATOM     40  C   UNL     1       6.318  -2.171   8.793  0.00  0.00    +0.111 A 
ENDBRANCH   4   3
ENDBRANCH  10   9
BRANCH  12  13
ATOM     13  N   UNL     1      -1.482   4.294  14.451  0.00  0.00    -0.281 N 
ATOM     14  C   UNL     1      -0.734   5.190  15.199  0.00  0.00    +0.248 C 
ATOM     30  O   UNL     1       0.016   4.873  16.109  0.00  0.00    -0.270 OA
ATOM     31  H   UNL     1      -2.208   4.700  13.860  0.00  0.00    +0.155 HD
BRANCH  14  15
ATOM     15  C   UNL     1      -0.848   6.650  14.901  0.00  0.00    +0.037 A 
ATOM     16  C   UNL     1       0.284   7.557  15.103  0.00  0.00    +0.013 A 
ATOM     17  C   UNL     1       0.142   8.965  14.824  0.00  0.00    +0.005 A 
ATOM     18  C   UNL     1      -1.138   9.473  14.339  0.00  0.00    -0.033 A 
ATOM     28  C   UNL     1      -2.244   8.550  14.142  0.00  0.00    +0.005 A 
ATOM     29  C   UNL     1      -2.109   7.170  14.415  0.00  0.00    +0.013 A 
BRANCH  18  19
ATOM     19  C   UNL     1      -1.386  10.963  14.036  0.00  0.00    +0.119 C 
BRANCH  19  20
ATOM     20  N   UNL     1      -1.942  11.304  12.692  0.00  0.00    -0.302 NA
ATOM     21  C   UNL     1      -0.893  11.167  11.585  0.00  0.00    +0.066 C 
ATOM     22  C   UNL     1      -1.498  11.506  10.184  0.00  0.00    -0.064 C 
ATOM     23  N   UNL     1      -2.076  12.921  10.209  0.00  0.00    +0.379 N 
ATOM     24  C   UNL     1      -2.593  13.265   8.877  0.00  0.00    -0.096 C 
ATOM     25  H   UNL     1      -1.241  13.623  10.440  0.00  0.00    -0.082 HD
ATOM     26  C   UNL     1      -3.118  13.067  11.310  0.00  0.00    -0.064 C 
ATOM     27  C   UNL     1      -2.515  12.700  12.694  0.00  0.00    +0.066 C 
ENDBRANCH  19  20
ENDBRANCH  18  19
ENDBRANCH  14  15
ENDBRANCH  12  13
TORSDOF 6
ENDMDL
