MODEL 1
REMARK VINA RESULT:      -8.1      0.000      0.000
REMARK  Name = C:\Users\Docking\Desktop\test protocol\1iep_ligandH.pdb
REMARK  8 active torsions:
REMARK  status: ('A' for Active; 'I' for Inactive)
REMARK    1  A    between atoms: _5  and  _11
REMARK    2  A    between atoms: _19  and  _21
REMARK    3  A    between atoms: _22  and  _66
REMARK    4  A    between atoms: _27  and  _30
REMARK    5  A    between atoms: _32  and  _33
REMARK    6  A    between atoms: _38  and  _43
REMARK    7  A    between atoms: _43  and  _46
REMARK    8  A    between atoms: _53  and  _55
REMARK                            x       y       z     vdW  Elec       q    Type
REMARK                         _______ _______ _______ _____ _____    ______ ____
ROOT
ATOM     10  C   UNL     1      -0.350   2.354  14.195  0.00  0.00    +0.038 A 
ATOM     11  C   UNL     1       0.691   1.553  13.659  0.00  0.00    +0.047 A 
ATOM     12  C   UNL     1       0.545   0.892  12.372  0.00  0.00    +0.035 A 
ATOM     32  C   UNL     1      -0.674   1.070  11.655  0.00  0.00    +0.024 A 
ATOM     33  C   UNL     1      -1.743   1.879  12.185  0.00  0.00    +0.007 A 
ATOM     34  C   UNL     1      -1.606   2.532  13.455  0.00  0.00    -0.029 A 
ATOM     35  C   UNL     1      -2.787   3.383  13.978  0.00  0.00    +0.045 C 
ENDROOT
BRANCH  10   9
ATOM      4  C   UNL     1      -0.620   2.386  18.987  0.00  0.00    +0.077 A 
ATOM      5  C   UNL     1      -1.223   1.084  19.021  0.00  0.00    +0.048 A 
ATOM      6  C   UNL     1      -1.452   0.443  17.782  0.00  0.00    +0.116 A 
ATOM      7  N   UNL     1      -1.102   1.067  16.605  0.00  0.00    -0.223 NA
ATOM      8  C   UNL     1      -0.525   2.323  16.607  0.00  0.00    +0.220 A 
ATOM      9  N   UNL     1      -0.157   2.966  15.435  0.00  0.00    -0.283 N 
ATOM     36  H   UNL     1       0.260   3.896  15.479  0.00  0.00    +0.155 HD
ATOM     37  N   UNL     1      -0.296   2.957  17.777  0.00  0.00    -0.214 NA
BRANCH   4   3
ATOM      1  C   UNL     1      -0.065   3.454  22.709  0.00  0.00    +0.020 A 
ATOM      2  C   UNL     1      -0.374   2.635  21.559  0.00  0.00    +0.013 A 
ATOM      3  C   UNL     1      -0.311   3.189  20.212  0.00  0.00    +0.019 A 
ATOM     38  C   UNL     1       0.070   4.585  20.062  0.00  0.00    +0.120 A 
ATOM     39  N   UNL     1       0.361   5.349  21.188  0.00  0.00    -0.263 NA
ATOM     40  C   UNL     1       0.303   4.828  22.489  0.00  0.00    +0.111 A 
ENDBRANCH   4   3
ENDBRANCH  10   9
BRANCH  12  13
ATOM     13  N   UNL     1       1.565   0.061  11.782  0.00  0.00    -0.281 N 
ATOM     14  C   UNL     1       2.161   0.197  10.539  0.00  0.00    +0.248 C 
ATOM     30  O   UNL     1       1.752   0.934   9.654  0.00  0.00    -0.270 OA
ATOM     31  H   UNL     1       1.886  -0.724  12.349  0.00  0.00    +0.155 HD
BRANCH  14  15
ATOM     15  C   UNL     1       3.378  -0.614  10.229  0.00  0.00    +0.037 A 
ATOM     16  C   UNL     1       4.029  -0.536   8.919  0.00  0.00    +0.013 A 
ATOM     17  C   UNL     1       5.191  -1.341   8.640  0.00  0.00    +0.005 A 
ATOM     18  C   UNL     1       5.711  -2.231   9.675  0.00  0.00    -0.033 A 
ATOM     28  C   UNL     1       5.049  -2.285  10.968  0.00  0.00    +0.005 A 
ATOM     29  C   UNL     1       3.908  -1.498  11.244  0.00  0.00    +0.013 A 
BRANCH  18  19
ATOM     19  C   UNL     1       6.934  -3.142   9.459  0.00  0.00    +0.119 C 
BRANCH  19  20
ATOM     20  N   UNL     1       6.909  -4.486  10.109  0.00  0.00    -0.302 NA
ATOM     21  C   UNL     1       7.807  -4.542  11.348  0.00  0.00    +0.066 C 
ATOM     22  C   UNL     1       7.751  -5.948  12.029  0.00  0.00    -0.064 C 
ATOM     23  N   UNL     1       8.160  -7.019  11.015  0.00  0.00    +0.379 N 
ATOM     24  C   UNL     1       8.165  -8.336  11.668  0.00  0.00    -0.096 C 
ATOM     25  H   UNL     1       9.204  -6.797  10.692  0.00  0.00    -0.082 HD
ATOM     26  C   UNL     1       7.274  -6.969   9.778  0.00  0.00    -0.064 C 
ATOM     27  C   UNL     1       7.314  -5.558   9.127  0.00  0.00    +0.066 C 
ENDBRANCH  19  20
ENDBRANCH  18  19
ENDBRANCH  14  15
ENDBRANCH  12  13
TORSDOF 6
ENDMDL
MODEL 2
REMARK VINA RESULT:      -8.0      4.934     12.675
REMARK  Name = C:\Users\Docking\Desktop\test protocol\1iep_ligandH.pdb
REMARK  8 active torsions:
REMARK  status: ('A' for Active; 'I' for Inactive)
REMARK    1  A    between atoms: _5  and  _11
REMARK    2  A    between atoms: _19  and  _21
REMARK    3  A    between atoms: _22  and  _66
REMARK    4  A    between atoms: _27  and  _30
REMARK    5  A    between atoms: _32  and  _33
REMARK    6  A    between atoms: _38  and  _43
REMARK    7  A    between atoms: _43  and  _46
REMARK    8  A    between atoms: _53  and  _55
REMARK                            x       y       z     vdW  Elec       q    Type
REMARK                         _______ _______ _______ _____ _____    ______ ____
ROOT
ATOM     10  C   UNL     1       0.039   0.960  13.843  0.00  0.00    +0.038 A 
ATOM     11  C   UNL     1       0.168   2.334  14.172  0.00  0.00    +0.047 A 
ATOM     12  C   UNL     1      -0.915   3.058  14.819  0.00  0.00    +0.035 A 
ATOM     32  C   UNL     1      -2.115   2.350  15.119  0.00  0.00    +0.024 A 
ATOM     33  C   UNL     1      -2.264   0.954  14.791  0.00  0.00    +0.007 A 
ATOM     34  C   UNL     1      -1.200   0.236  14.150  0.00  0.00    -0.029 A 
ATOM     35  C   UNL     1      -1.417  -1.258  13.815  0.00  0.00    +0.045 C 
ENDROOT
BRANCH  10   9
ATOM      4  C   UNL     1       2.695  -0.076   9.981  0.00  0.00    +0.077 A 
ATOM      5  C   UNL     1       1.861   0.715   9.122  0.00  0.00    +0.048 A 
ATOM      6  C   UNL     1       0.754   1.366   9.712  0.00  0.00    +0.116 A 
ATOM      7  N   UNL     1       0.510   1.230  11.062  0.00  0.00    -0.223 NA
ATOM      8  C   UNL     1       1.333   0.459  11.861  0.00  0.00    +0.220 A 
ATOM      9  N   UNL     1       1.111   0.314  13.222  0.00  0.00    -0.283 N 
ATOM     36  H   UNL     1       1.737  -0.269  13.776  0.00  0.00    +0.155 HD
ATOM     37  N   UNL     1       2.396  -0.175  11.321  0.00  0.00    -0.214 NA
BRANCH   4   3
ATOM      1  C   UNL     1       5.183  -2.134   7.774  0.00  0.00    +0.020 A 
ATOM      2  C   UNL     1       3.993  -1.425   8.183  0.00  0.00    +0.013 A 
ATOM      3  C   UNL     1       3.903  -0.822   9.507  0.00  0.00    +0.019 A 
ATOM     38  C   UNL     1       5.044  -0.956  10.400  0.00  0.00    +0.120 A 
ATOM     39  N   UNL     1       6.177  -1.646   9.979  0.00  0.00    -0.263 NA
ATOM     40  C   UNL     1       6.274  -2.232   8.708  0.00  0.00    +0.111 A 
ENDBRANCH   4   3
ENDBRANCH  10   9
BRANCH  12  13
ATOM     13  N   UNL     1      -0.844   4.454  15.169  0.00  0.00    -0.281 N 
ATOM     14  C   UNL     1      -0.310   5.019  16.316  0.00  0.00    +0.248 C 
ATOM     30  O   UNL     1      -0.002   4.389  17.317  0.00  0.00    -0.270 OA
ATOM     31  H   UNL     1      -1.235   5.106  14.489  0.00  0.00    +0.155 HD
BRANCH  14  15
ATOM     15  C   UNL     1      -0.101   6.498  16.363  0.00  0.00    +0.037 A 
ATOM     16  C   UNL     1      -0.370   7.265  17.582  0.00  0.00    +0.013 A 
ATOM     17  C   UNL     1      -0.177   8.693  17.596  0.00  0.00    +0.005 A 
ATOM     18  C   UNL     1       0.290   9.364  16.385  0.00  0.00    -0.033 A 
ATOM     28  C   UNL     1       0.554   8.578  15.191  0.00  0.00    +0.005 A 
ATOM     29  C   UNL     1       0.365   7.178  15.174  0.00  0.00    +0.013 A 
BRANCH  18  19
ATOM     19  C   UNL     1       0.504  10.887  16.302  0.00  0.00    +0.119 C 
BRANCH  19  20
ATOM     20  N   UNL     1       1.911  11.384  16.356  0.00  0.00    -0.302 NA
ATOM     21  C   UNL     1       2.750  10.621  17.385  0.00  0.00    +0.066 C 
ATOM     22  C   UNL     1       4.225  11.139  17.412  0.00  0.00    -0.064 C 
ATOM     23  N   UNL     1       4.231  12.638  17.714  0.00  0.00    +0.379 N 
ATOM     24  C   UNL     1       5.619  13.116  17.798  0.00  0.00    -0.096 C 
ATOM     25  H   UNL     1       3.762  12.784  18.714  0.00  0.00    -0.082 HD
ATOM     26  C   UNL     1       3.397  13.404  16.697  0.00  0.00    -0.064 C 
ATOM     27  C   UNL     1       1.940  12.862  16.656  0.00  0.00    +0.066 C 
ENDBRANCH  19  20
ENDBRANCH  18  19
ENDBRANCH  14  15
ENDBRANCH  12  13
TORSDOF 6
ENDMDL
MODEL 3
REMARK VINA RESULT:      -7.9     11.292     13.616
REMARK  Name = C:\Users\Docking\Desktop\test protocol\1iep_ligandH.pdb
REMARK  8 active torsions:
REMARK  status: ('A' for Active; 'I' for Inactive)
REMARK    1  A    between atoms: _5  and  _11
REMARK    2  A    between atoms: _19  and  _21
REMARK    3  A    between atoms: _22  and  _66
REMARK    4  A    between atoms: _27  and  _30
REMARK    5  A    between atoms: _32  and  _33
REMARK    6  A    between atoms: _38  and  _43
REMARK    7  A    between atoms: _43  and  _46
REMARK    8  A    between atoms: _53  and  _55
REMARK                            x       y       z     vdW  Elec       q    Type
REMARK                         _______ _______ _______ _____ _____    ______ ____
ROOT
ATOM     10  C   UNL     1      -0.739  10.233   2.194  0.00  0.00    +0.038 A 
ATOM     11  C   UNL     1      -0.323   8.899   1.951  0.00  0.00    +0.047 A 
ATOM     12  C   UNL     1      -0.177   8.391   0.596  0.00  0.00    +0.035 A 
ATOM     32  C   UNL     1      -0.459   9.270  -0.489  0.00  0.00    +0.024 A 
ATOM     33  C   UNL     1      -0.883  10.629  -0.261  0.00  0.00    +0.007 A 
ATOM     34  C   UNL     1      -1.032  11.135   1.073  0.00  0.00    -0.029 A 
ATOM     35  C   UNL     1      -1.496  12.599   1.259  0.00  0.00    +0.045 C 
ENDROOT
BRANCH  10   9
ATOM      4  C   UNL     1      -3.185  10.644   6.303  0.00  0.00    +0.077 A 
ATOM      5  C   UNL     1      -4.322   9.956   5.763  0.00  0.00    +0.048 A 
ATOM      6  C   UNL     1      -4.240   9.519   4.422  0.00  0.00    +0.116 A 
ATOM      7  N   UNL     1      -3.100   9.757   3.685  0.00  0.00    -0.223 NA
ATOM      8  C   UNL     1      -2.022  10.425   4.235  0.00  0.00    +0.220 A 
ATOM      9  N   UNL     1      -0.863  10.668   3.515  0.00  0.00    -0.283 N 
ATOM     36  H   UNL     1      -0.092  11.171   3.955  0.00  0.00    +0.155 HD
ATOM     37  N   UNL     1      -2.076  10.854   5.514  0.00  0.00    -0.214 NA
BRANCH   4   3
ATOM      1  C   UNL     1      -2.425  10.987  10.125  0.00  0.00    +0.020 A 
ATOM      2  C   UNL     1      -2.462  10.441   8.788  0.00  0.00    +0.013 A 
ATOM      3  C   UNL     1      -3.118  11.164   7.705  0.00  0.00    +0.019 A 
ATOM     38  C   UNL     1      -3.731  12.447   8.011  0.00  0.00    +0.120 A 
ATOM     39  N   UNL     1      -3.681  12.948   9.309  0.00  0.00    -0.263 NA
ATOM     40  C   UNL     1      -3.054  12.260  10.359  0.00  0.00    +0.111 A 
ENDBRANCH   4   3
ENDBRANCH  10   9
BRANCH  12  13
ATOM     13  N   UNL     1       0.234   7.043   0.289  0.00  0.00    -0.281 N 
ATOM     14  C   UNL     1       0.593   6.039   1.174  0.00  0.00    +0.248 C 
ATOM     30  O   UNL     1       0.823   6.215   2.361  0.00  0.00    -0.270 OA
ATOM     31  H   UNL     1       0.263   6.799  -0.701  0.00  0.00    +0.155 HD
BRANCH  14  15
ATOM     15  C   UNL     1       0.732   4.642   0.662  0.00  0.00    +0.037 A 
ATOM     16  C   UNL     1       0.882   4.367  -0.769  0.00  0.00    +0.013 A 
ATOM     17  C   UNL     1       0.996   3.009  -1.237  0.00  0.00    +0.005 A 
ATOM     18  C   UNL     1       0.962   1.913  -0.271  0.00  0.00    -0.033 A 
ATOM     28  C   UNL     1       0.818   2.214   1.144  0.00  0.00    +0.005 A 
ATOM     29  C   UNL     1       0.704   3.545   1.606  0.00  0.00    +0.013 A 
BRANCH  18  19
ATOM     19  C   UNL     1       1.056   0.432  -0.682  0.00  0.00    +0.119 C 
BRANCH  19  20
ATOM     20  N   UNL     1       2.080  -0.406   0.011  0.00  0.00    -0.302 NA
ATOM     21  C   UNL     1       3.126  -0.957  -0.962  0.00  0.00    +0.066 C 
ATOM     22  C   UNL     1       4.202  -1.813  -0.217  0.00  0.00    -0.064 C 
ATOM     23  N   UNL     1       3.511  -2.951   0.536  0.00  0.00    +0.379 N 
ATOM     24  C   UNL     1       4.524  -3.792   1.190  0.00  0.00    -0.096 C 
ATOM     25  H   UNL     1       2.982  -3.581  -0.216  0.00  0.00    -0.082 HD
ATOM     26  C   UNL     1       2.467  -2.413   1.504  0.00  0.00    -0.064 C 
ATOM     27  C   UNL     1       1.420  -1.539   0.758  0.00  0.00    +0.066 C 
ENDBRANCH  19  20
ENDBRANCH  18  19
ENDBRANCH  14  15
ENDBRANCH  12  13
TORSDOF 6
ENDMDL
MODEL 4
REMARK VINA RESULT:      -7.9      9.803     13.383
REMARK  Name = C:\Users\Docking\Desktop\test protocol\1iep_ligandH.pdb
REMARK  8 active torsions:
REMARK  status: ('A' for Active; 'I' for Inactive)
REMARK    1  A    between atoms: _5  and  _11
REMARK    2  A    between atoms: _19  and  _21
REMARK    3  A    between atoms: _22  and  _66
REMARK    4  A    between atoms: _27  and  _30
REMARK    5  A    between atoms: _32  and  _33
REMARK    6  A    between atoms: _38  and  _43
REMARK    7  A    between atoms: _43  and  _46
REMARK    8  A    between atoms: _53  and  _55
REMARK                            x       y       z     vdW  Elec       q    Type
REMARK                         _______ _______ _______ _____ _____    ______ ____
ROOT
ATOM     10  C   UNL     1      -1.293   1.963   7.230  0.00  0.00    +0.038 A 
ATOM     11  C   UNL     1      -1.064   3.255   6.692  0.00  0.00    +0.047 A 
ATOM     12  C   UNL     1      -1.154   3.501   5.261  0.00  0.00    +0.035 A 
ATOM     32  C   UNL     1      -1.483   2.408   4.407  0.00  0.00    +0.024 A 
ATOM     33  C   UNL     1      -1.718   1.088   4.938  0.00  0.00    +0.007 A 
ATOM     34  C   UNL     1      -1.628   0.839   6.348  0.00  0.00    -0.029 A 
ATOM     35  C   UNL     1      -1.884  -0.598   6.860  0.00  0.00    +0.045 C 
ENDROOT
BRANCH  10   9
ATOM      4  C   UNL     1       1.104   0.602  11.160  0.00  0.00    +0.077 A 
ATOM      5  C   UNL     1       2.243   0.188  10.393  0.00  0.00    +0.048 A 
ATOM      6  C   UNL     1       2.170   0.336   8.990  0.00  0.00    +0.116 A 
ATOM      7  N   UNL     1       1.036   0.860   8.407  0.00  0.00    -0.223 NA
ATOM      8  C   UNL     1      -0.046   1.247   9.176  0.00  0.00    +0.220 A 
ATOM      9  N   UNL     1      -1.194   1.784   8.612  0.00  0.00    -0.283 N 
ATOM     36  H   UNL     1      -1.973   2.051   9.213  0.00  0.00    +0.155 HD
ATOM     37  N   UNL     1      -0.001   1.115  10.518  0.00  0.00    -0.214 NA
BRANCH   4   3
ATOM      1  C   UNL     1       0.371   1.407  14.917  0.00  0.00    +0.020 A 
ATOM      2  C   UNL     1       0.416   1.543  13.479  0.00  0.00    +0.013 A 
ATOM      3  C   UNL     1       1.031   0.512  12.652  0.00  0.00    +0.019 A 
ATOM     38  C   UNL     1       1.595  -0.653  13.317  0.00  0.00    +0.120 A 
ATOM     39  N   UNL     1       1.539  -0.756  14.703  0.00  0.00    -0.263 NA
ATOM     40  C   UNL     1       0.951   0.231  15.509  0.00  0.00    +0.111 A 
ENDBRANCH   4   3
ENDBRANCH  10   9
BRANCH  12  13
ATOM     13  N   UNL     1      -0.924   4.790   4.656  0.00  0.00    -0.281 N 
ATOM     14  C   UNL     1      -0.041   5.107   3.638  0.00  0.00    +0.248 C 
ATOM     30  O   UNL     1       0.845   4.366   3.236  0.00  0.00    -0.270 OA
ATOM     31  H   UNL     1      -1.481   5.562   5.024  0.00  0.00    +0.155 HD
BRANCH  14  15
ATOM     15  C   UNL     1      -0.146   6.445   2.980  0.00  0.00    +0.037 A 
ATOM     16  C   UNL     1       0.966   7.001   2.205  0.00  0.00    +0.013 A 
ATOM     17  C   UNL     1       0.844   8.301   1.596  0.00  0.00    +0.005 A 
ATOM     18  C   UNL     1      -0.397   9.055   1.758  0.00  0.00    -0.033 A 
ATOM     28  C   UNL     1      -1.487   8.477   2.528  0.00  0.00    +0.005 A 
ATOM     29  C   UNL     1      -1.370   7.203   3.128  0.00  0.00    +0.013 A 
BRANCH  18  19
ATOM     19  C   UNL     1      -0.608  10.458   1.161  0.00  0.00    +0.119 C 
BRANCH  19  20
ATOM     20  N   UNL     1      -0.556  10.583  -0.326  0.00  0.00    -0.302 NA
ATOM     21  C   UNL     1       0.832  11.003  -0.820  0.00  0.00    +0.066 C 
ATOM     22  C   UNL     1       0.874  11.107  -2.379  0.00  0.00    -0.064 C 
ATOM     23  N   UNL     1      -0.191  12.099  -2.850  0.00  0.00    +0.379 N 
ATOM     24  C   UNL     1      -0.115  12.242  -4.312  0.00  0.00    -0.096 C 
ATOM     25  H   UNL     1       0.048  13.090  -2.400  0.00  0.00    -0.082 HD
ATOM     26  C   UNL     1      -1.574  11.690  -2.362  0.00  0.00    -0.064 C 
ATOM     27  C   UNL     1      -1.597  11.561  -0.813  0.00  0.00    +0.066 C 
ENDBRANCH  19  20
ENDBRANCH  18  19
ENDBRANCH  14  15
ENDBRANCH  12  13
TORSDOF 6
ENDMDL
MODEL 5
REMARK VINA RESULT:      -7.8      5.316     12.902
REMARK  Name = C:\Users\Docking\Desktop\test protocol\1iep_ligandH.pdb
REMARK  8 active torsions:
REMARK  status: ('A' for Active; 'I' for Inactive)
REMARK    1  A    between atoms: _5  and  _11
REMARK    2  A    between atoms: _19  and  _21
REMARK    3  A    between atoms: _22  and  _66
REMARK    4  A    between atoms: _27  and  _30
REMARK    5  A    between atoms: _32  and  _33
REMARK    6  A    between atoms: _38  and  _43
REMARK    7  A    between atoms: _43  and  _46
REMARK    8  A    between atoms: _53  and  _55
REMARK                            x       y       z     vdW  Elec       q    Type
REMARK                         _______ _______ _______ _____ _____    ______ ____
ROOT
ATOM     10  C   UNL     1      -0.074   0.717  13.923  0.00  0.00    +0.038 A 
ATOM     11  C   UNL     1      -0.174   2.132  13.896  0.00  0.00    +0.047 A 
ATOM     12  C   UNL     1      -1.293   2.819  14.522  0.00  0.00    +0.035 A 
ATOM     32  C   UNL     1      -2.291   2.034  15.170  0.00  0.00    +0.024 A 
ATOM     33  C   UNL     1      -2.205   0.595  15.206  0.00  0.00    +0.007 A 
ATOM     34  C   UNL     1      -1.105  -0.088  14.588  0.00  0.00    -0.029 A 
ATOM     35  C   UNL     1      -1.068  -1.633  14.653  0.00  0.00    +0.045 C 
ENDROOT
BRANCH  10   9
ATOM      4  C   UNL     1       2.711  -0.109  10.103  0.00  0.00    +0.077 A 
ATOM      5  C   UNL     1       1.899   0.719   9.258  0.00  0.00    +0.048 A 
ATOM      6  C   UNL     1       0.770   1.333   9.844  0.00  0.00    +0.116 A 
ATOM      7  N   UNL     1       0.484   1.129  11.176  0.00  0.00    -0.223 NA
ATOM      8  C   UNL     1       1.287   0.323  11.962  0.00  0.00    +0.220 A 
ATOM      9  N   UNL     1       1.022   0.110  13.306  0.00  0.00    -0.283 N 
ATOM     36  H   UNL     1       1.634  -0.498  13.850  0.00  0.00    +0.155 HD
ATOM     37  N   UNL     1       2.370  -0.277  11.426  0.00  0.00    -0.214 NA
BRANCH   4   3
ATOM      1  C   UNL     1       5.280  -2.049   7.880  0.00  0.00    +0.020 A 
ATOM      2  C   UNL     1       4.072  -1.368   8.285  0.00  0.00    +0.013 A 
ATOM      3  C   UNL     1       3.939  -0.824   9.631  0.00  0.00    +0.019 A 
ATOM     38  C   UNL     1       5.057  -0.986  10.549  0.00  0.00    +0.120 A 
ATOM     39  N   UNL     1       6.207  -1.648  10.131  0.00  0.00    -0.263 NA
ATOM     40  C   UNL     1       6.345  -2.178   8.839  0.00  0.00    +0.111 A 
ENDBRANCH   4   3
ENDBRANCH  10   9
BRANCH  12  13
ATOM     13  N   UNL     1      -1.452   4.252  14.520  0.00  0.00    -0.281 N 
ATOM     14  C   UNL     1      -0.716   5.192  15.223  0.00  0.00    +0.248 C 
ATOM     30  O   UNL     1       0.057   4.926  16.131  0.00  0.00    -0.270 OA
ATOM     31  H   UNL     1      -2.198   4.618  13.928  0.00  0.00    +0.155 HD
BRANCH  14  15
ATOM     15  C   UNL     1      -0.873   6.638  14.877  0.00  0.00    +0.037 A 
ATOM     16  C   UNL     1       0.229   7.586  15.056  0.00  0.00    +0.013 A 
ATOM     17  C   UNL     1       0.046   8.978  14.731  0.00  0.00    +0.005 A 
ATOM     18  C   UNL     1      -1.246   9.430  14.221  0.00  0.00    -0.033 A 
ATOM     28  C   UNL     1      -2.321   8.467  14.048  0.00  0.00    +0.005 A 
ATOM     29  C   UNL     1      -2.145   7.102  14.367  0.00  0.00    +0.013 A 
BRANCH  18  19
ATOM     19  C   UNL     1      -1.538  10.901  13.868  0.00  0.00    +0.119 C 
BRANCH  19  20
ATOM     20  N   UNL     1      -1.612  11.254  12.419  0.00  0.00    -0.302 NA
ATOM     21  C   UNL     1      -0.823  12.526  12.096  0.00  0.00    +0.066 C 
ATOM     22  C   UNL     1      -0.893  12.869  10.573  0.00  0.00    -0.064 C 
ATOM     23  N   UNL     1      -2.357  13.019  10.153  0.00  0.00    +0.379 N 
ATOM     24  C   UNL     1      -2.424  13.398   8.734  0.00  0.00    -0.096 C 
ATOM     25  H   UNL     1      -2.795  13.854  10.748  0.00  0.00    -0.082 HD
ATOM     26  C   UNL     1      -3.150  11.759  10.473  0.00  0.00    -0.064 C 
ATOM     27  C   UNL     1      -3.049  11.411  11.984  0.00  0.00    +0.066 C 
ENDBRANCH  19  20
ENDBRANCH  18  19
ENDBRANCH  14  15
ENDBRANCH  12  13
TORSDOF 6
ENDMDL
