MODEL 1
REMARK VINA RESULT:      -8.4      0.000      0.000
REMARK  Name = C:\Users\Docking\Desktop\test protocol\1iep_ligandH.pdb
REMARK  8 active torsions:
REMARK  status: ('A' for Active; 'I' for Inactive)
REMARK    1  A    between atoms: _5  and  _11
REMARK    2  A    between atoms: _19  and  _21
REMARK    3  A    between atoms: _22  and  _66
REMARK    4  A    between atoms: _27  and  _30
REMARK    5  A    between atoms: _32  and  _33
REMARK    6  A    between atoms: _38  and  _43
REMARK    7  A    between atoms: _43  and  _46
REMARK    8  A    between atoms: _53  and  _55
REMARK                            x       y       z     vdW  Elec       q    Type
REMARK                         _______ _______ _______ _____ _____    ______ ____
ROOT
ATOM     10  C   UNL     1       2.501  67.180  55.920  0.00  0.00    +0.038 A 
ATOM     11  C   UNL     1       3.143  65.927  55.755  0.00  0.00    +0.047 A 
ATOM     12  C   UNL     1       3.314  65.016  56.876  0.00  0.00    +0.035 A 
ATOM     32  C   UNL     1       2.815  65.412  58.151  0.00  0.00    +0.024 A 
ATOM     33  C   UNL     1       2.160  66.684  58.336  0.00  0.00    +0.007 A 
ATOM     34  C   UNL     1       1.991  67.587  57.235  0.00  0.00    -0.029 A 
ATOM     35  C   UNL     1       1.287  68.940  57.493  0.00  0.00    +0.045 C 
ENDROOT
BRANCH  10   9
ATOM      4  C   UNL     1       4.258  70.321  52.744  0.00  0.00    +0.077 A 
ATOM      5  C   UNL     1       5.551  70.317  53.367  0.00  0.00    +0.048 A 
ATOM      6  C   UNL     1       5.720  69.499  54.506  0.00  0.00    +0.116 A 
ATOM      7  N   UNL     1       4.668  68.745  54.979  0.00  0.00    -0.223 NA
ATOM      8  C   UNL     1       3.434  68.772  54.356  0.00  0.00    +0.220 A 
ATOM      9  N   UNL     1       2.364  68.016  54.809  0.00  0.00    -0.283 N 
ATOM     36  H   UNL     1       1.468  68.070  54.326  0.00  0.00    +0.155 HD
ATOM     37  N   UNL     1       3.246  69.547  53.267  0.00  0.00    -0.214 NA
BRANCH   4   3
ATOM      1  C   UNL     1       3.293  71.360  49.098  0.00  0.00    +0.020 A 
ATOM      2  C   UNL     1       3.609  70.532  50.240  0.00  0.00    +0.013 A 
ATOM      3  C   UNL     1       3.924  71.131  51.530  0.00  0.00    +0.019 A 
ATOM     38  C   UNL     1       3.910  72.583  51.634  0.00  0.00    +0.120 A 
ATOM     39  N   UNL     1       3.603  73.354  50.517  0.00  0.00    -0.263 NA
ATOM     40  C   UNL     1       3.300  72.789  49.270  0.00  0.00    +0.111 A 
ENDBRANCH   4   3
ENDBRANCH  10   9
BRANCH  12  13
ATOM     13  N   UNL     1       3.965  63.733  56.772  0.00  0.00    -0.281 N 
ATOM     14  C   UNL     1       5.191  63.356  57.294  0.00  0.00    +0.248 C 
ATOM     30  O   UNL     1       6.016  64.133  57.753  0.00  0.00    -0.270 OA
ATOM     31  H   UNL     1       3.461  63.017  56.248  0.00  0.00    +0.155 HD
BRANCH  14  15
ATOM     15  C   UNL     1       5.561  61.908  57.295  0.00  0.00    +0.037 A 
ATOM     16  C   UNL     1       5.765  61.176  58.547  0.00  0.00    +0.013 A 
ATOM     17  C   UNL     1       6.138  59.784  58.519  0.00  0.00    +0.005 A 
ATOM     18  C   UNL     1       6.308  59.114  57.232  0.00  0.00    -0.033 A 
ATOM     28  C   UNL     1       6.094  59.862  56.004  0.00  0.00    +0.005 A 
ATOM     29  C   UNL     1       5.729  61.227  56.028  0.00  0.00    +0.013 A 
BRANCH  18  19
ATOM     19  C   UNL     1       6.725  57.636  57.106  0.00  0.00    +0.119 C 
BRANCH  19  20
ATOM     20  N   UNL     1       6.507  56.761  58.297  0.00  0.00    -0.302 NA
ATOM     21  C   UNL     1       7.776  55.998  58.689  0.00  0.00    +0.066 C 
ATOM     22  C   UNL     1       7.536  55.105  59.949  0.00  0.00    -0.064 C 
ATOM     23  N   UNL     1       6.386  54.136  59.673  0.00  0.00    +0.379 N 
ATOM     24  C   UNL     1       6.196  53.255  60.835  0.00  0.00    -0.096 C 
ATOM     25  H   UNL     1       6.682  53.497  58.809  0.00  0.00    -0.082 HD
ATOM     26  C   UNL     1       5.121  54.886  59.280  0.00  0.00    -0.064 C 
ATOM     27  C   UNL     1       5.377  55.793  58.044  0.00  0.00    +0.066 C 
ENDBRANCH  19  20
ENDBRANCH  18  19
ENDBRANCH  14  15
ENDBRANCH  12  13
TORSDOF 6
ENDMDL
MODEL 2
REMARK VINA RESULT:      -8.2      1.974      2.972
REMARK  Name = C:\Users\Docking\Desktop\test protocol\1iep_ligandH.pdb
REMARK  8 active torsions:
REMARK  status: ('A' for Active; 'I' for Inactive)
REMARK    1  A    between atoms: _5  and  _11
REMARK    2  A    between atoms: _19  and  _21
REMARK    3  A    between atoms: _22  and  _66
REMARK    4  A    between atoms: _27  and  _30
REMARK    5  A    between atoms: _32  and  _33
REMARK    6  A    between atoms: _38  and  _43
REMARK    7  A    between atoms: _43  and  _46
REMARK    8  A    between atoms: _53  and  _55
REMARK                            x       y       z     vdW  Elec       q    Type
REMARK                         _______ _______ _______ _____ _____    ______ ____
ROOT
ATOM     10  C   UNL     1       6.460  68.564  55.903  0.00  0.00    +0.038 A 
ATOM     11  C   UNL     1       6.326  67.160  56.062  0.00  0.00    +0.047 A 
ATOM     12  C   UNL     1       6.471  66.533  57.366  0.00  0.00    +0.035 A 
ATOM     32  C   UNL     1       6.749  67.366  58.489  0.00  0.00    +0.024 A 
ATOM     33  C   UNL     1       6.890  68.794  58.346  0.00  0.00    +0.007 A 
ATOM     34  C   UNL     1       6.750  69.418  57.061  0.00  0.00    -0.029 A 
ATOM     35  C   UNL     1       6.917  70.952  56.966  0.00  0.00    +0.045 C 
ENDROOT
BRANCH  10   9
ATOM      4  C   UNL     1       3.759  70.165  52.273  0.00  0.00    +0.077 A 
ATOM      5  C   UNL     1       2.541  69.857  52.966  0.00  0.00    +0.048 A 
ATOM      6  C   UNL     1       2.653  69.281  54.251  0.00  0.00    +0.116 A 
ATOM      7  N   UNL     1       3.896  69.036  54.794  0.00  0.00    -0.223 NA
ATOM      8  C   UNL     1       5.051  69.343  54.098  0.00  0.00    +0.220 A 
ATOM      9  N   UNL     1       6.311  69.113  54.628  0.00  0.00    -0.283 N 
ATOM     36  H   UNL     1       7.139  69.347  54.080  0.00  0.00    +0.155 HD
ATOM     37  N   UNL     1       4.971  69.893  52.869  0.00  0.00    -0.214 NA
BRANCH   4   3
ATOM      1  C   UNL     1       3.127  70.889  48.482  0.00  0.00    +0.020 A 
ATOM      2  C   UNL     1       3.048  70.257  49.779  0.00  0.00    +0.013 A 
ATOM      3  C   UNL     1       3.805  70.780  50.909  0.00  0.00    +0.019 A 
ATOM     38  C   UNL     1       4.638  71.953  50.692  0.00  0.00    +0.120 A 
ATOM     39  N   UNL     1       4.696  72.539  49.432  0.00  0.00    -0.263 NA
ATOM     40  C   UNL     1       3.973  72.044  48.336  0.00  0.00    +0.111 A 
ENDBRANCH   4   3
ENDBRANCH  10   9
BRANCH  12  13
ATOM     13  N   UNL     1       6.354  65.113  57.587  0.00  0.00    -0.281 N 
ATOM     14  C   UNL     1       5.203  64.381  57.830  0.00  0.00    +0.248 C 
ATOM     30  O   UNL     1       4.118  64.870  58.107  0.00  0.00    -0.270 OA
ATOM     31  H   UNL     1       7.225  64.583  57.561  0.00  0.00    +0.155 HD
BRANCH  14  15
ATOM     15  C   UNL     1       5.271  62.889  57.770  0.00  0.00    +0.037 A 
ATOM     16  C   UNL     1       5.423  62.186  56.493  0.00  0.00    +0.013 A 
ATOM     17  C   UNL     1       5.468  60.746  56.462  0.00  0.00    +0.005 A 
ATOM     18  C   UNL     1       5.362  59.998  57.713  0.00  0.00    -0.033 A 
ATOM     28  C   UNL     1       5.217  60.721  58.965  0.00  0.00    +0.005 A 
ATOM     29  C   UNL     1       5.172  62.133  59.000  0.00  0.00    +0.013 A 
BRANCH  18  19
ATOM     19  C   UNL     1       5.379  58.459  57.772  0.00  0.00    +0.119 C 
BRANCH  19  20
ATOM     20  N   UNL     1       6.701  57.798  57.987  0.00  0.00    -0.302 NA
ATOM     21  C   UNL     1       7.542  57.767  56.707  0.00  0.00    +0.066 C 
ATOM     22  C   UNL     1       8.931  57.092  56.956  0.00  0.00    -0.064 C 
ATOM     23  N   UNL     1       8.717  55.678  57.499  0.00  0.00    +0.379 N 
ATOM     24  C   UNL     1      10.020  55.020  57.679  0.00  0.00    -0.096 C 
ATOM     25  H   UNL     1       8.151  55.103  56.730  0.00  0.00    -0.082 HD
ATOM     26  C   UNL     1       7.879  55.700  58.769  0.00  0.00    -0.064 C 
ATOM     27  C   UNL     1       6.514  56.399  58.519  0.00  0.00    +0.066 C 
ENDBRANCH  19  20
ENDBRANCH  18  19
ENDBRANCH  14  15
ENDBRANCH  12  13
TORSDOF 6
ENDMDL
MODEL 3
REMARK VINA RESULT:      -8.0      3.275     13.653
REMARK  Name = C:\Users\Docking\Desktop\test protocol\1iep_ligandH.pdb
REMARK  8 active torsions:
REMARK  status: ('A' for Active; 'I' for Inactive)
REMARK    1  A    between atoms: _5  and  _11
REMARK    2  A    between atoms: _19  and  _21
REMARK    3  A    between atoms: _22  and  _66
REMARK    4  A    between atoms: _27  and  _30
REMARK    5  A    between atoms: _32  and  _33
REMARK    6  A    between atoms: _38  and  _43
REMARK    7  A    between atoms: _43  and  _46
REMARK    8  A    between atoms: _53  and  _55
REMARK                            x       y       z     vdW  Elec       q    Type
REMARK                         _______ _______ _______ _____ _____    ______ ____
ROOT
ATOM     10  C   UNL     1       3.703  66.049  56.127  0.00  0.00    +0.038 A 
ATOM     11  C   UNL     1       4.402  66.949  55.283  0.00  0.00    +0.047 A 
ATOM     12  C   UNL     1       4.165  68.383  55.351  0.00  0.00    +0.035 A 
ATOM     32  C   UNL     1       3.211  68.865  56.294  0.00  0.00    +0.024 A 
ATOM     33  C   UNL     1       2.492  67.964  57.160  0.00  0.00    +0.007 A 
ATOM     34  C   UNL     1       2.719  66.549  57.095  0.00  0.00    -0.029 A 
ATOM     35  C   UNL     1       1.914  65.629  58.042  0.00  0.00    +0.045 C 
ENDROOT
BRANCH  10   9
ATOM      4  C   UNL     1       6.008  62.065  57.490  0.00  0.00    +0.077 A 
ATOM      5  C   UNL     1       6.764  62.771  58.484  0.00  0.00    +0.048 A 
ATOM      6  C   UNL     1       6.535  64.160  58.607  0.00  0.00    +0.116 A 
ATOM      7  N   UNL     1       5.616  64.785  57.793  0.00  0.00    -0.223 NA
ATOM      8  C   UNL     1       4.905  64.075  56.843  0.00  0.00    +0.220 A 
ATOM      9  N   UNL     1       3.970  64.682  56.019  0.00  0.00    -0.283 N 
ATOM     36  H   UNL     1       3.471  64.124  55.326  0.00  0.00    +0.155 HD
ATOM     37  N   UNL     1       5.106  62.748  56.705  0.00  0.00    -0.214 NA
BRANCH   4   3
ATOM      1  C   UNL     1       5.618  58.493  55.944  0.00  0.00    +0.020 A 
ATOM      2  C   UNL     1       5.462  59.916  56.140  0.00  0.00    +0.013 A 
ATOM      3  C   UNL     1       6.135  60.594  57.241  0.00  0.00    +0.019 A 
ATOM     38  C   UNL     1       6.965  59.798  58.131  0.00  0.00    +0.120 A 
ATOM     39  N   UNL     1       7.096  58.429  57.918  0.00  0.00    -0.263 NA
ATOM     40  C   UNL     1       6.452  57.765  56.863  0.00  0.00    +0.111 A 
ENDBRANCH   4   3
ENDBRANCH  10   9
BRANCH  12  13
ATOM     13  N   UNL     1       4.838  69.344  54.514  0.00  0.00    -0.281 N 
ATOM     14  C   UNL     1       4.374  69.930  53.347  0.00  0.00    +0.248 C 
ATOM     30  O   UNL     1       3.390  69.553  52.729  0.00  0.00    -0.270 OA
ATOM     31  H   UNL     1       5.770  69.627  54.818  0.00  0.00    +0.155 HD
BRANCH  14  15
ATOM     15  C   UNL     1       5.120  71.093  52.778  0.00  0.00    +0.037 A 
ATOM     16  C   UNL     1       4.689  71.737  51.534  0.00  0.00    +0.013 A 
ATOM     17  C   UNL     1       5.436  72.847  50.997  0.00  0.00    +0.005 A 
ATOM     18  C   UNL     1       6.622  73.322  51.707  0.00  0.00    -0.033 A 
ATOM     28  C   UNL     1       7.024  72.668  52.941  0.00  0.00    +0.005 A 
ATOM     29  C   UNL     1       6.295  71.580  53.470  0.00  0.00    +0.013 A 
BRANCH  18  19
ATOM     19  C   UNL     1       7.491  74.486  51.196  0.00  0.00    +0.119 C 
BRANCH  19  20
ATOM     20  N   UNL     1       8.115  74.333  49.848  0.00  0.00    -0.302 NA
ATOM     21  C   UNL     1       9.329  75.250  49.670  0.00  0.00    +0.066 C 
ATOM     22  C   UNL     1       9.983  75.061  48.262  0.00  0.00    -0.064 C 
ATOM     23  N   UNL     1       8.938  75.329  47.177  0.00  0.00    +0.379 N 
ATOM     24  C   UNL     1       9.565  75.209  45.853  0.00  0.00    -0.096 C 
ATOM     25  H   UNL     1       8.592  76.382  47.294  0.00  0.00    -0.082 HD
ATOM     26  C   UNL     1       7.727  74.424  47.349  0.00  0.00    -0.064 C 
ATOM     27  C   UNL     1       7.102  74.598  48.761  0.00  0.00    +0.066 C 
ENDBRANCH  19  20
ENDBRANCH  18  19
ENDBRANCH  14  15
ENDBRANCH  12  13
TORSDOF 6
ENDMDL
MODEL 4
REMARK VINA RESULT:      -7.7     22.644     24.891
REMARK  Name = C:\Users\Docking\Desktop\test protocol\1iep_ligandH.pdb
REMARK  8 active torsions:
REMARK  status: ('A' for Active; 'I' for Inactive)
REMARK    1  A    between atoms: _5  and  _11
REMARK    2  A    between atoms: _19  and  _21
REMARK    3  A    between atoms: _22  and  _66
REMARK    4  A    between atoms: _27  and  _30
REMARK    5  A    between atoms: _32  and  _33
REMARK    6  A    between atoms: _38  and  _43
REMARK    7  A    between atoms: _43  and  _46
REMARK    8  A    between atoms: _53  and  _55
REMARK                            x       y       z     vdW  Elec       q    Type
REMARK                         _______ _______ _______ _____ _____    ______ ____
ROOT
ATOM     10  C   UNL     1       0.065  42.690  41.290  0.00  0.00    +0.038 A 
ATOM     11  C   UNL     1       1.038  42.931  42.294  0.00  0.00    +0.047 A 
ATOM     12  C   UNL     1       2.152  42.017  42.497  0.00  0.00    +0.035 A 
ATOM     32  C   UNL     1       2.245  40.868  41.658  0.00  0.00    +0.024 A 
ATOM     33  C   UNL     1       1.264  40.607  40.634  0.00  0.00    +0.007 A 
ATOM     34  C   UNL     1       0.162  41.504  40.431  0.00  0.00    -0.029 A 
ATOM     35  C   UNL     1      -0.863  41.170  39.323  0.00  0.00    +0.045 C 
ENDROOT
BRANCH  10   9
ATOM      4  C   UNL     1      -1.982  46.471  39.157  0.00  0.00    +0.077 A 
ATOM      5  C   UNL     1      -0.856  46.665  38.290  0.00  0.00    +0.048 A 
ATOM      6  C   UNL     1       0.232  45.775  38.429  0.00  0.00    +0.116 A 
ATOM      7  N   UNL     1       0.187  44.769  39.370  0.00  0.00    -0.223 NA
ATOM      8  C   UNL     1      -0.913  44.610  40.192  0.00  0.00    +0.220 A 
ATOM      9  N   UNL     1      -0.983  43.600  41.139  0.00  0.00    -0.283 N 
ATOM     36  H   UNL     1      -1.809  43.521  41.731  0.00  0.00    +0.155 HD
ATOM     37  N   UNL     1      -1.965  45.448  40.079  0.00  0.00    -0.214 NA
BRANCH   4   3
ATOM      1  C   UNL     1      -4.397  49.541  39.361  0.00  0.00    +0.020 A 
ATOM      2  C   UNL     1      -3.183  48.759  39.402  0.00  0.00    +0.013 A 
ATOM      3  C   UNL     1      -3.209  47.327  39.129  0.00  0.00    +0.019 A 
ATOM     38  C   UNL     1      -4.490  46.713  38.814  0.00  0.00    +0.120 A 
ATOM     39  N   UNL     1      -5.644  47.491  38.783  0.00  0.00    -0.263 NA
ATOM     40  C   UNL     1      -5.631  48.869  39.046  0.00  0.00    +0.111 A 
ENDBRANCH   4   3
ENDBRANCH  10   9
BRANCH  12  13
ATOM     13  N   UNL     1       3.166  42.206  43.505  0.00  0.00    -0.281 N 
ATOM     14  C   UNL     1       4.125  43.203  43.571  0.00  0.00    +0.248 C 
ATOM     30  O   UNL     1       4.394  43.966  42.655  0.00  0.00    -0.270 OA
ATOM     31  H   UNL     1       3.178  41.521  44.261  0.00  0.00    +0.155 HD
BRANCH  14  15
ATOM     15  C   UNL     1       4.909  43.368  44.833  0.00  0.00    +0.037 A 
ATOM     16  C   UNL     1       4.246  43.654  46.108  0.00  0.00    +0.013 A 
ATOM     17  C   UNL     1       5.028  43.825  47.307  0.00  0.00    +0.005 A 
ATOM     18  C   UNL     1       6.482  43.708  47.237  0.00  0.00    -0.033 A 
ATOM     28  C   UNL     1       7.113  43.418  45.960  0.00  0.00    +0.005 A 
ATOM     29  C   UNL     1       6.351  43.251  44.783  0.00  0.00    +0.013 A 
BRANCH  18  19
ATOM     19  C   UNL     1       7.396  43.896  48.462  0.00  0.00    +0.119 C 
BRANCH  19  20
ATOM     20  N   UNL     1       7.204  42.960  49.609  0.00  0.00    -0.302 NA
ATOM     21  C   UNL     1       8.146  43.276  50.774  0.00  0.00    +0.066 C 
ATOM     22  C   UNL     1       7.915  42.301  51.974  0.00  0.00    -0.064 C 
ATOM     23  N   UNL     1       8.106  40.860  51.500  0.00  0.00    +0.379 N 
ATOM     24  C   UNL     1       7.947  39.943  52.639  0.00  0.00    -0.096 C 
ATOM     25  H   UNL     1       9.153  40.761  51.130  0.00  0.00    -0.082 HD
ATOM     26  C   UNL     1       7.175  40.537  50.340  0.00  0.00    -0.064 C 
ATOM     27  C   UNL     1       7.392  41.530  49.164  0.00  0.00    +0.066 C 
ENDBRANCH  19  20
ENDBRANCH  18  19
ENDBRANCH  14  15
ENDBRANCH  12  13
TORSDOF 6
ENDMDL
MODEL 5
REMARK VINA RESULT:      -7.6     24.962     30.420
REMARK  Name = C:\Users\Docking\Desktop\test protocol\1iep_ligandH.pdb
REMARK  8 active torsions:
REMARK  status: ('A' for Active; 'I' for Inactive)
REMARK    1  A    between atoms: _5  and  _11
REMARK    2  A    between atoms: _19  and  _21
REMARK    3  A    between atoms: _22  and  _66
REMARK    4  A    between atoms: _27  and  _30
REMARK    5  A    between atoms: _32  and  _33
REMARK    6  A    between atoms: _38  and  _43
REMARK    7  A    between atoms: _43  and  _46
REMARK    8  A    between atoms: _53  and  _55
REMARK                            x       y       z     vdW  Elec       q    Type
REMARK                         _______ _______ _______ _____ _____    ______ ____
ROOT
ATOM     10  C   UNL     1       3.164  39.326  41.374  0.00  0.00    +0.038 A 
ATOM     11  C   UNL     1       3.220  39.837  40.052  0.00  0.00    +0.047 A 
ATOM     12  C   UNL     1       2.395  39.278  38.993  0.00  0.00    +0.035 A 
ATOM     32  C   UNL     1       1.520  38.200  39.316  0.00  0.00    +0.024 A 
ATOM     33  C   UNL     1       1.451  37.667  40.655  0.00  0.00    +0.007 A 
ATOM     34  C   UNL     1       2.265  38.213  41.703  0.00  0.00    -0.029 A 
ATOM     35  C   UNL     1       2.154  37.599  43.117  0.00  0.00    +0.045 C 
ENDROOT
BRANCH  10   9
ATOM      4  C   UNL     1       4.242  42.850  44.448  0.00  0.00    +0.077 A 
ATOM      5  C   UNL     1       3.100  43.624  44.055  0.00  0.00    +0.048 A 
ATOM      6  C   UNL     1       2.264  43.082  43.052  0.00  0.00    +0.116 A 
ATOM      7  N   UNL     1       2.558  41.858  42.493  0.00  0.00    -0.223 NA
ATOM      8  C   UNL     1       3.669  41.138  42.895  0.00  0.00    +0.220 A 
ATOM      9  N   UNL     1       3.979  39.901  42.351  0.00  0.00    -0.283 N 
ATOM     36  H   UNL     1       4.811  39.405  42.669  0.00  0.00    +0.155 HD
ATOM     37  N   UNL     1       4.483  41.634  43.849  0.00  0.00    -0.214 NA
BRANCH   4   3
ATOM      1  C   UNL     1       5.791  44.164  47.792  0.00  0.00    +0.020 A 
ATOM      2  C   UNL     1       4.808  43.754  46.815  0.00  0.00    +0.013 A 
ATOM      3  C   UNL     1       5.218  43.287  45.497  0.00  0.00    +0.019 A 
ATOM     38  C   UNL     1       6.641  43.244  45.197  0.00  0.00    +0.120 A 
ATOM     39  N   UNL     1       7.565  43.646  46.156  0.00  0.00    -0.263 NA
ATOM     40  C   UNL     1       7.182  44.100  47.428  0.00  0.00    +0.111 A 
ENDBRANCH   4   3
ENDBRANCH  10   9
BRANCH  12  13
ATOM     13  N   UNL     1       2.415  39.750  37.631  0.00  0.00    -0.281 N 
ATOM     14  C   UNL     1       1.840  40.902  37.120  0.00  0.00    +0.248 C 
ATOM     30  O   UNL     1       1.035  41.597  37.721  0.00  0.00    -0.270 OA
ATOM     31  H   UNL     1       2.914  39.163  36.962  0.00  0.00    +0.155 HD
BRANCH  14  15
ATOM     15  C   UNL     1       2.202  41.337  35.736  0.00  0.00    +0.037 A 
ATOM     16  C   UNL     1       2.602  40.366  34.715  0.00  0.00    +0.013 A 
ATOM     17  C   UNL     1       2.962  40.814  33.393  0.00  0.00    +0.005 A 
ATOM     18  C   UNL     1       2.921  42.242  33.085  0.00  0.00    -0.033 A 
ATOM     28  C   UNL     1       2.515  43.182  34.115  0.00  0.00    +0.005 A 
ATOM     29  C   UNL     1       2.163  42.747  35.412  0.00  0.00    +0.013 A 
BRANCH  18  19
ATOM     19  C   UNL     1       3.309  42.811  31.707  0.00  0.00    +0.119 C 
BRANCH  19  20
ATOM     20  N   UNL     1       4.743  43.172  31.495  0.00  0.00    -0.302 NA
ATOM     21  C   UNL     1       4.906  44.613  31.004  0.00  0.00    +0.066 C 
ATOM     22  C   UNL     1       6.413  44.981  30.810  0.00  0.00    -0.064 C 
ATOM     23  N   UNL     1       7.052  43.999  29.827  0.00  0.00    +0.379 N 
ATOM     24  C   UNL     1       8.454  44.377  29.597  0.00  0.00    -0.096 C 
ATOM     25  H   UNL     1       6.512  44.093  28.856  0.00  0.00    -0.082 HD
ATOM     26  C   UNL     1       6.892  42.563  30.306  0.00  0.00    -0.064 C 
ATOM     27  C   UNL     1       5.392  42.217  30.525  0.00  0.00    +0.066 C 
ENDBRANCH  19  20
ENDBRANCH  18  19
ENDBRANCH  14  15
ENDBRANCH  12  13
TORSDOF 6
ENDMDL
