MODEL 1
REMARK VINA RESULT:      -8.3      0.000      0.000
REMARK  Name = C:\Users\Docking\Desktop\test protocol\1iep_ligandH.pdb
REMARK  8 active torsions:
REMARK  status: ('A' for Active; 'I' for Inactive)
REMARK    1  A    between atoms: _5  and  _11
REMARK    2  A    between atoms: _19  and  _21
REMARK    3  A    between atoms: _22  and  _66
REMARK    4  A    between atoms: _27  and  _30
REMARK    5  A    between atoms: _32  and  _33
REMARK    6  A    between atoms: _38  and  _43
REMARK    7  A    between atoms: _43  and  _46
REMARK    8  A    between atoms: _53  and  _55
REMARK                            x       y       z     vdW  Elec       q    Type
REMARK                         _______ _______ _______ _____ _____    ______ ____
ROOT
ATOM     10  C   UNL     1       3.702  66.014  56.104  0.00  0.00    +0.038 A 
ATOM     11  C   UNL     1       4.392  66.902  55.240  0.00  0.00    +0.047 A 
ATOM     12  C   UNL     1       4.161  68.338  55.295  0.00  0.00    +0.035 A 
ATOM     32  C   UNL     1       3.222  68.834  56.246  0.00  0.00    +0.024 A 
ATOM     33  C   UNL     1       2.512  67.946  57.132  0.00  0.00    +0.007 A 
ATOM     34  C   UNL     1       2.734  66.529  57.080  0.00  0.00    -0.029 A 
ATOM     35  C   UNL     1       1.939  65.623  58.049  0.00  0.00    +0.045 C 
ENDROOT
BRANCH  10   9
ATOM      4  C   UNL     1       5.998  62.034  57.492  0.00  0.00    +0.077 A 
ATOM      5  C   UNL     1       6.763  62.747  58.475  0.00  0.00    +0.048 A 
ATOM      6  C   UNL     1       6.541  64.138  58.586  0.00  0.00    +0.116 A 
ATOM      7  N   UNL     1       5.619  64.759  57.771  0.00  0.00    -0.223 NA
ATOM      8  C   UNL     1       4.900  64.043  56.833  0.00  0.00    +0.220 A 
ATOM      9  N   UNL     1       3.963  64.646  56.008  0.00  0.00    -0.283 N 
ATOM     36  H   UNL     1       3.458  64.083  55.323  0.00  0.00    +0.155 HD
ATOM     37  N   UNL     1       5.095  62.714  56.706  0.00  0.00    -0.214 NA
BRANCH   4   3
ATOM      1  C   UNL     1       5.591  58.451  55.979  0.00  0.00    +0.020 A 
ATOM      2  C   UNL     1       5.442  59.876  56.162  0.00  0.00    +0.013 A 
ATOM      3  C   UNL     1       6.117  60.561  57.257  0.00  0.00    +0.019 A 
ATOM     38  C   UNL     1       6.944  59.768  58.155  0.00  0.00    +0.120 A 
ATOM     39  N   UNL     1       7.067  58.397  57.955  0.00  0.00    -0.263 NA
ATOM     40  C   UNL     1       6.420  57.727  56.905  0.00  0.00    +0.111 A 
ENDBRANCH   4   3
ENDBRANCH  10   9
BRANCH  12  13
ATOM     13  N   UNL     1       4.825  69.287  54.438  0.00  0.00    -0.281 N 
ATOM     14  C   UNL     1       4.318  69.922  53.316  0.00  0.00    +0.248 C 
ATOM     30  O   UNL     1       3.280  69.606  52.753  0.00  0.00    -0.270 OA
ATOM     31  H   UNL     1       5.787  69.519  54.688  0.00  0.00    +0.155 HD
BRANCH  14  15
ATOM     15  C   UNL     1       5.081  71.063  52.725  0.00  0.00    +0.037 A 
ATOM     16  C   UNL     1       6.241  71.638  53.411  0.00  0.00    +0.013 A 
ATOM     17  C   UNL     1       6.948  72.750  52.827  0.00  0.00    +0.005 A 
ATOM     18  C   UNL     1       6.498  73.294  51.548  0.00  0.00    -0.033 A 
ATOM     28  C   UNL     1       5.347  72.701  50.887  0.00  0.00    +0.005 A 
ATOM     29  C   UNL     1       4.650  71.612  51.457  0.00  0.00    +0.013 A 
BRANCH  18  19
ATOM     19  C   UNL     1       7.180  74.493  50.862  0.00  0.00    +0.119 C 
BRANCH  19  20
ATOM     20  N   UNL     1       8.141  74.193  49.760  0.00  0.00    -0.302 NA
ATOM     21  C   UNL     1       9.181  75.304  49.587  0.00  0.00    +0.066 C 
ATOM     22  C   UNL     1      10.192  74.964  48.444  0.00  0.00    -0.064 C 
ATOM     23  N   UNL     1       9.426  74.732  47.141  0.00  0.00    +0.379 N 
ATOM     24  C   UNL     1      10.378  74.469  46.052  0.00  0.00    -0.096 C 
ATOM     25  H   UNL     1       8.883  75.674  46.895  0.00  0.00    -0.082 HD
ATOM     26  C   UNL     1       8.388  73.630  47.305  0.00  0.00    -0.064 C 
ATOM     27  C   UNL     1       7.406  73.964  48.462  0.00  0.00    +0.066 C 
ENDBRANCH  19  20
ENDBRANCH  18  19
ENDBRANCH  14  15
ENDBRANCH  12  13
TORSDOF 6
ENDMDL
MODEL 2
REMARK VINA RESULT:      -8.1      3.415     12.984
REMARK  Name = C:\Users\Docking\Desktop\test protocol\1iep_ligandH.pdb
REMARK  8 active torsions:
REMARK  status: ('A' for Active; 'I' for Inactive)
REMARK    1  A    between atoms: _5  and  _11
REMARK    2  A    between atoms: _19  and  _21
REMARK    3  A    between atoms: _22  and  _66
REMARK    4  A    between atoms: _27  and  _30
REMARK    5  A    between atoms: _32  and  _33
REMARK    6  A    between atoms: _38  and  _43
REMARK    7  A    between atoms: _43  and  _46
REMARK    8  A    between atoms: _53  and  _55
REMARK                            x       y       z     vdW  Elec       q    Type
REMARK                         _______ _______ _______ _____ _____    ______ ____
ROOT
ATOM     10  C   UNL     1       6.169  68.232  55.970  0.00  0.00    +0.038 A 
ATOM     11  C   UNL     1       6.027  66.826  56.097  0.00  0.00    +0.047 A 
ATOM     12  C   UNL     1       6.135  66.173  57.392  0.00  0.00    +0.035 A 
ATOM     32  C   UNL     1       6.385  66.983  58.538  0.00  0.00    +0.024 A 
ATOM     33  C   UNL     1       6.532  68.413  58.427  0.00  0.00    +0.007 A 
ATOM     34  C   UNL     1       6.430  69.062  57.152  0.00  0.00    -0.029 A 
ATOM     35  C   UNL     1       6.603  70.598  57.091  0.00  0.00    +0.045 C 
ENDROOT
BRANCH  10   9
ATOM      4  C   UNL     1       3.584  70.110  52.388  0.00  0.00    +0.077 A 
ATOM      5  C   UNL     1       2.351  69.904  53.092  0.00  0.00    +0.048 A 
ATOM      6  C   UNL     1       2.424  69.305  54.369  0.00  0.00    +0.116 A 
ATOM      7  N   UNL     1       3.646  68.944  54.895  0.00  0.00    -0.223 NA
ATOM      8  C   UNL     1       4.816  69.155  54.189  0.00  0.00    +0.220 A 
ATOM      9  N   UNL     1       6.057  68.806  54.702  0.00  0.00    -0.283 N 
ATOM     36  H   UNL     1       6.896  68.972  54.147  0.00  0.00    +0.155 HD
ATOM     37  N   UNL     1       4.772  69.723  52.967  0.00  0.00    -0.214 NA
BRANCH   4   3
ATOM      1  C   UNL     1       4.353  72.586  49.460  0.00  0.00    +0.020 A 
ATOM      2  C   UNL     1       4.296  72.028  50.791  0.00  0.00    +0.013 A 
ATOM      3  C   UNL     1       3.670  70.733  51.030  0.00  0.00    +0.019 A 
ATOM     38  C   UNL     1       3.109  70.023  49.891  0.00  0.00    +0.120 A 
ATOM     39  N   UNL     1       3.178  70.586  48.620  0.00  0.00    -0.263 NA
ATOM     40  C   UNL     1       3.776  71.832  48.379  0.00  0.00    +0.111 A 
ENDBRANCH   4   3
ENDBRANCH  10   9
BRANCH  12  13
ATOM     13  N   UNL     1       6.008  64.749  57.581  0.00  0.00    -0.281 N 
ATOM     14  C   UNL     1       4.935  63.938  57.249  0.00  0.00    +0.248 C 
ATOM     30  O   UNL     1       3.830  64.350  56.932  0.00  0.00    -0.270 OA
ATOM     31  H   UNL     1       6.806  64.283  58.012  0.00  0.00    +0.155 HD
BRANCH  14  15
ATOM     15  C   UNL     1       5.112  62.455  57.289  0.00  0.00    +0.037 A 
ATOM     16  C   UNL     1       5.622  61.718  56.130  0.00  0.00    +0.013 A 
ATOM     17  C   UNL     1       5.767  60.285  56.189  0.00  0.00    +0.005 A 
ATOM     18  C   UNL     1       5.402  59.579  57.415  0.00  0.00    -0.033 A 
ATOM     28  C   UNL     1       4.904  60.335  58.552  0.00  0.00    +0.005 A 
ATOM     29  C   UNL     1       4.760  61.739  58.497  0.00  0.00    +0.013 A 
BRANCH  18  19
ATOM     19  C   UNL     1       5.504  58.049  57.561  0.00  0.00    +0.119 C 
BRANCH  19  20
ATOM     20  N   UNL     1       6.841  57.483  57.911  0.00  0.00    -0.302 NA
ATOM     21  C   UNL     1       7.786  57.454  56.707  0.00  0.00    +0.066 C 
ATOM     22  C   UNL     1       9.187  56.880  57.097  0.00  0.00    -0.064 C 
ATOM     23  N   UNL     1       9.015  55.478  57.685  0.00  0.00    +0.379 N 
ATOM     24  C   UNL     1      10.336  54.913  58.000  0.00  0.00    -0.096 C 
ATOM     25  H   UNL     1       8.551  54.837  56.901  0.00  0.00    -0.082 HD
ATOM     26  C   UNL     1       8.075  55.498  58.882  0.00  0.00    -0.064 C 
ATOM     27  C   UNL     1       6.695  56.098  58.491  0.00  0.00    +0.066 C 
ENDBRANCH  19  20
ENDBRANCH  18  19
ENDBRANCH  14  15
ENDBRANCH  12  13
TORSDOF 6
ENDMDL
MODEL 3
REMARK VINA RESULT:      -8.1      2.717     13.584
REMARK  Name = C:\Users\Docking\Desktop\test protocol\1iep_ligandH.pdb
REMARK  8 active torsions:
REMARK  status: ('A' for Active; 'I' for Inactive)
REMARK    1  A    between atoms: _5  and  _11
REMARK    2  A    between atoms: _19  and  _21
REMARK    3  A    between atoms: _22  and  _66
REMARK    4  A    between atoms: _27  and  _30
REMARK    5  A    between atoms: _32  and  _33
REMARK    6  A    between atoms: _38  and  _43
REMARK    7  A    between atoms: _43  and  _46
REMARK    8  A    between atoms: _53  and  _55
REMARK                            x       y       z     vdW  Elec       q    Type
REMARK                         _______ _______ _______ _____ _____    ______ ____
ROOT
ATOM     10  C   UNL     1       3.820  68.282  55.345  0.00  0.00    +0.038 A 
ATOM     11  C   UNL     1       4.646  67.144  55.533  0.00  0.00    +0.047 A 
ATOM     12  C   UNL     1       4.076  65.848  55.867  0.00  0.00    +0.035 A 
ATOM     32  C   UNL     1       2.660  65.746  56.000  0.00  0.00    +0.024 A 
ATOM     33  C   UNL     1       1.806  66.893  55.813  0.00  0.00    +0.007 A 
ATOM     34  C   UNL     1       2.363  68.174  55.486  0.00  0.00    -0.029 A 
ATOM     35  C   UNL     1       1.400  69.371  55.303  0.00  0.00    +0.045 C 
ENDROOT
BRANCH  10   9
ATOM      4  C   UNL     1       4.868  71.802  52.254  0.00  0.00    +0.077 A 
ATOM      5  C   UNL     1       4.185  71.142  51.179  0.00  0.00    +0.048 A 
ATOM      6  C   UNL     1       3.583  69.895  51.461  0.00  0.00    +0.116 A 
ATOM      7  N   UNL     1       3.664  69.358  52.728  0.00  0.00    -0.223 NA
ATOM      8  C   UNL     1       4.333  70.020  53.742  0.00  0.00    +0.220 A 
ATOM      9  N   UNL     1       4.420  69.502  55.025  0.00  0.00    -0.283 N 
ATOM     36  H   UNL     1       4.928  70.017  55.743  0.00  0.00    +0.155 HD
ATOM     37  N   UNL     1       4.917  71.211  53.497  0.00  0.00    -0.214 NA
BRANCH   4   3
ATOM      1  C   UNL     1       7.553  74.645  52.337  0.00  0.00    +0.020 A 
ATOM      2  C   UNL     1       6.941  73.346  52.493  0.00  0.00    +0.013 A 
ATOM      3  C   UNL     1       5.551  73.127  52.114  0.00  0.00    +0.019 A 
ATOM     38  C   UNL     1       4.802  74.252  51.575  0.00  0.00    +0.120 A 
ATOM     39  N   UNL     1       5.418  75.492  51.437  0.00  0.00    -0.263 NA
ATOM     40  C   UNL     1       6.755  75.715  51.800  0.00  0.00    +0.111 A 
ENDBRANCH   4   3
ENDBRANCH  10   9
BRANCH  12  13
ATOM     13  N   UNL     1       4.865  64.660  56.078  0.00  0.00    -0.281 N 
ATOM     14  C   UNL     1       5.172  64.043  57.280  0.00  0.00    +0.248 C 
ATOM     30  O   UNL     1       4.991  64.544  58.379  0.00  0.00    -0.270 OA
ATOM     31  H   UNL     1       5.243  64.219  55.239  0.00  0.00    +0.155 HD
BRANCH  14  15
ATOM     15  C   UNL     1       5.781  62.679  57.256  0.00  0.00    +0.037 A 
ATOM     16  C   UNL     1       5.528  61.752  56.150  0.00  0.00    +0.013 A 
ATOM     17  C   UNL     1       6.114  60.435  56.160  0.00  0.00    +0.005 A 
ATOM     18  C   UNL     1       6.962  60.038  57.282  0.00  0.00    -0.033 A 
ATOM     28  C   UNL     1       7.200  60.979  58.364  0.00  0.00    +0.005 A 
ATOM     29  C   UNL     1       6.626  62.270  58.358  0.00  0.00    +0.013 A 
BRANCH  18  19
ATOM     19  C   UNL     1       7.611  58.645  57.387  0.00  0.00    +0.119 C 
BRANCH  19  20
ATOM     20  N   UNL     1       6.884  57.609  58.179  0.00  0.00    -0.302 NA
ATOM     21  C   UNL     1       7.815  56.491  58.655  0.00  0.00    +0.066 C 
ATOM     22  C   UNL     1       7.042  55.428  59.501  0.00  0.00    -0.064 C 
ATOM     23  N   UNL     1       5.892  54.857  58.670  0.00  0.00    +0.379 N 
ATOM     24  C   UNL     1       5.198  53.815  59.441  0.00  0.00    -0.096 C 
ATOM     25  H   UNL     1       6.334  54.373  57.768  0.00  0.00    -0.082 HD
ATOM     26  C   UNL     1       4.962  55.963  58.190  0.00  0.00    -0.064 C 
ATOM     27  C   UNL     1       5.746  57.029  57.375  0.00  0.00    +0.066 C 
ENDBRANCH  19  20
ENDBRANCH  18  19
ENDBRANCH  14  15
ENDBRANCH  12  13
TORSDOF 6
ENDMDL
MODEL 4
REMARK VINA RESULT:      -7.8     16.651     20.910
REMARK  Name = C:\Users\Docking\Desktop\test protocol\1iep_ligandH.pdb
REMARK  8 active torsions:
REMARK  status: ('A' for Active; 'I' for Inactive)
REMARK    1  A    between atoms: _5  and  _11
REMARK    2  A    between atoms: _19  and  _21
REMARK    3  A    between atoms: _22  and  _66
REMARK    4  A    between atoms: _27  and  _30
REMARK    5  A    between atoms: _32  and  _33
REMARK    6  A    between atoms: _38  and  _43
REMARK    7  A    between atoms: _43  and  _46
REMARK    8  A    between atoms: _53  and  _55
REMARK                            x       y       z     vdW  Elec       q    Type
REMARK                         _______ _______ _______ _____ _____    ______ ____
ROOT
ATOM     10  C   UNL     1      18.381  70.533  41.509  0.00  0.00    +0.038 A 
ATOM     11  C   UNL     1      19.629  70.331  42.152  0.00  0.00    +0.047 A 
ATOM     12  C   UNL     1      20.191  71.337  43.039  0.00  0.00    +0.035 A 
ATOM     32  C   UNL     1      19.453  72.538  43.251  0.00  0.00    +0.024 A 
ATOM     33  C   UNL     1      18.183  72.761  42.606  0.00  0.00    +0.007 A 
ATOM     34  C   UNL     1      17.625  71.772  41.727  0.00  0.00    -0.029 A 
ATOM     35  C   UNL     1      16.263  72.067  41.057  0.00  0.00    +0.045 C 
ENDROOT
BRANCH  10   9
ATOM      4  C   UNL     1      15.532  66.775  40.617  0.00  0.00    +0.077 A 
ATOM      5  C   UNL     1      14.997  66.789  41.948  0.00  0.00    +0.048 A 
ATOM      6  C   UNL     1      15.488  67.775  42.834  0.00  0.00    +0.116 A 
ATOM      7  N   UNL     1      16.441  68.674  42.409  0.00  0.00    -0.223 NA
ATOM      8  C   UNL     1      16.936  68.632  41.119  0.00  0.00    +0.220 A 
ATOM      9  N   UNL     1      17.889  69.533  40.668  0.00  0.00    -0.283 N 
ATOM     36  H   UNL     1      18.235  69.464  39.711  0.00  0.00    +0.155 HD
ATOM     37  N   UNL     1      16.485  67.700  40.254  0.00  0.00    -0.214 NA
BRANCH   4   3
ATOM      1  C   UNL     1      15.026  64.977  37.180  0.00  0.00    +0.020 A 
ATOM      2  C   UNL     1      15.457  65.951  38.157  0.00  0.00    +0.013 A 
ATOM      3  C   UNL     1      15.111  65.797  39.564  0.00  0.00    +0.019 A 
ATOM     38  C   UNL     1      14.324  64.637  39.954  0.00  0.00    +0.120 A 
ATOM     39  N   UNL     1      13.923  63.716  38.992  0.00  0.00    -0.263 NA
ATOM     40  C   UNL     1      14.247  63.854  37.634  0.00  0.00    +0.111 A 
ENDBRANCH   4   3
ENDBRANCH  10   9
BRANCH  12  13
ATOM     13  N   UNL     1      21.457  71.191  43.713  0.00  0.00    -0.281 N 
ATOM     14  C   UNL     1      22.721  71.472  43.220  0.00  0.00    +0.248 C 
ATOM     30  O   UNL     1      22.972  71.691  42.044  0.00  0.00    -0.270 OA
ATOM     31  H   UNL     1      21.417  70.838  44.669  0.00  0.00    +0.155 HD
BRANCH  14  15
ATOM     15  C   UNL     1      23.876  71.499  44.169  0.00  0.00    +0.037 A 
ATOM     16  C   UNL     1      23.750  72.090  45.503  0.00  0.00    +0.013 A 
ATOM     17  C   UNL     1      24.884  72.118  46.392  0.00  0.00    +0.005 A 
ATOM     18  C   UNL     1      26.156  71.551  45.949  0.00  0.00    -0.033 A 
ATOM     28  C   UNL     1      26.252  70.966  44.622  0.00  0.00    +0.005 A 
ATOM     29  C   UNL     1      25.142  70.938  43.747  0.00  0.00    +0.013 A 
BRANCH  18  19
ATOM     19  C   UNL     1      27.424  71.557  46.823  0.00  0.00    +0.119 C 
BRANCH  19  20
ATOM     20  N   UNL     1      28.146  70.261  46.988  0.00  0.00    -0.302 NA
ATOM     21  C   UNL     1      28.371  69.912  48.462  0.00  0.00    +0.066 C 
ATOM     22  C   UNL     1      29.108  68.542  48.617  0.00  0.00    -0.064 C 
ATOM     23  N   UNL     1      30.438  68.593  47.864  0.00  0.00    +0.379 N 
ATOM     24  C   UNL     1      31.160  67.327  48.056  0.00  0.00    -0.096 C 
ATOM     25  H   UNL     1      31.053  69.405  48.318  0.00  0.00    -0.082 HD
ATOM     26  C   UNL     1      30.224  68.942  46.398  0.00  0.00    -0.064 C 
ATOM     27  C   UNL     1      29.465  70.291  46.255  0.00  0.00    +0.066 C 
ENDBRANCH  19  20
ENDBRANCH  18  19
ENDBRANCH  14  15
ENDBRANCH  12  13
TORSDOF 6
ENDMDL
MODEL 5
REMARK VINA RESULT:      -7.5      6.449      8.809
REMARK  Name = C:\Users\Docking\Desktop\test protocol\1iep_ligandH.pdb
REMARK  8 active torsions:
REMARK  status: ('A' for Active; 'I' for Inactive)
REMARK    1  A    between atoms: _5  and  _11
REMARK    2  A    between atoms: _19  and  _21
REMARK    3  A    between atoms: _22  and  _66
REMARK    4  A    between atoms: _27  and  _30
REMARK    5  A    between atoms: _32  and  _33
REMARK    6  A    between atoms: _38  and  _43
REMARK    7  A    between atoms: _43  and  _46
REMARK    8  A    between atoms: _53  and  _55
REMARK                            x       y       z     vdW  Elec       q    Type
REMARK                         _______ _______ _______ _____ _____    ______ ____
ROOT
ATOM     10  C   UNL     1       4.902  64.764  57.264  0.00  0.00    +0.038 A 
ATOM     11  C   UNL     1       3.576  64.651  56.775  0.00  0.00    +0.047 A 
ATOM     12  C   UNL     1       3.039  65.612  55.824  0.00  0.00    +0.035 A 
ATOM     32  C   UNL     1       3.883  66.676  55.391  0.00  0.00    +0.024 A 
ATOM     33  C   UNL     1       5.233  66.807  55.878  0.00  0.00    +0.007 A 
ATOM     34  C   UNL     1       5.767  65.863  56.818  0.00  0.00    -0.029 A 
ATOM     35  C   UNL     1       7.220  66.057  57.312  0.00  0.00    +0.045 C 
ENDROOT
BRANCH  10   9
ATOM      4  C   UNL     1       6.464  60.360  58.358  0.00  0.00    +0.077 A 
ATOM      5  C   UNL     1       6.319  59.908  57.004  0.00  0.00    +0.048 A 
ATOM      6  C   UNL     1       5.832  60.838  56.058  0.00  0.00    +0.116 A 
ATOM      7  N   UNL     1       5.518  62.122  56.448  0.00  0.00    -0.223 NA
ATOM      8  C   UNL     1       5.668  62.525  57.762  0.00  0.00    +0.220 A 
ATOM      9  N   UNL     1       5.366  63.813  58.175  0.00  0.00    -0.283 N 
ATOM     36  H   UNL     1       5.484  64.069  59.155  0.00  0.00    +0.155 HD
ATOM     37  N   UNL     1       6.130  61.655  58.685  0.00  0.00    -0.214 NA
BRANCH   4   3
ATOM      1  C   UNL     1       7.597  59.094  61.882  0.00  0.00    +0.020 A 
ATOM      2  C   UNL     1       7.104  59.969  60.843  0.00  0.00    +0.013 A 
ATOM      3  C   UNL     1       6.970  59.496  59.471  0.00  0.00    +0.019 A 
ATOM     38  C   UNL     1       7.345  58.120  59.181  0.00  0.00    +0.120 A 
ATOM     39  N   UNL     1       7.818  57.300  60.202  0.00  0.00    -0.263 NA
ATOM     40  C   UNL     1       7.953  57.746  61.525  0.00  0.00    +0.111 A 
ENDBRANCH   4   3
ENDBRANCH  10   9
BRANCH  12  13
ATOM     13  N   UNL     1       1.698  65.552  55.299  0.00  0.00    -0.281 N 
ATOM     14  C   UNL     1       0.562  66.174  55.792  0.00  0.00    +0.248 C 
ATOM     30  O   UNL     1       0.486  66.706  56.890  0.00  0.00    -0.270 OA
ATOM     31  H   UNL     1       1.570  64.983  54.463  0.00  0.00    +0.155 HD
BRANCH  14  15
ATOM     15  C   UNL     1      -0.673  66.193  54.951  0.00  0.00    +0.037 A 
ATOM     16  C   UNL     1      -1.190  64.971  54.331  0.00  0.00    +0.013 A 
ATOM     17  C   UNL     1      -2.374  65.021  53.510  0.00  0.00    +0.005 A 
ATOM     18  C   UNL     1      -3.050  66.300  53.305  0.00  0.00    -0.033 A 
ATOM     28  C   UNL     1      -2.518  67.496  53.936  0.00  0.00    +0.005 A 
ATOM     29  C   UNL     1      -1.358  67.451  54.740  0.00  0.00    +0.013 A 
BRANCH  18  19
ATOM     19  C   UNL     1      -4.306  66.450  52.427  0.00  0.00    +0.119 C 
BRANCH  19  20
ATOM     20  N   UNL     1      -4.098  66.607  50.957  0.00  0.00    -0.302 NA
ATOM     21  C   UNL     1      -4.608  67.957  50.445  0.00  0.00    +0.066 C 
ATOM     22  C   UNL     1      -4.362  68.114  48.909  0.00  0.00    -0.064 C 
ATOM     23  N   UNL     1      -5.042  66.962  48.167  0.00  0.00    +0.379 N 
ATOM     24  C   UNL     1      -4.862  67.138  46.718  0.00  0.00    -0.096 C 
ATOM     25  H   UNL     1      -6.135  67.020  48.382  0.00  0.00    -0.082 HD
ATOM     26  C   UNL     1      -4.543  65.615  48.671  0.00  0.00    -0.064 C 
ATOM     27  C   UNL     1      -4.765  65.482  50.204  0.00  0.00    +0.066 C 
ENDBRANCH  19  20
ENDBRANCH  18  19
ENDBRANCH  14  15
ENDBRANCH  12  13
TORSDOF 6
ENDMDL
