MODEL 1
REMARK VINA RESULT:      -9.1      0.000      0.000
REMARK  Name = C:\Users\Docking\Desktop\test protocol\1iep_ligandH.pdb
REMARK  8 active torsions:
REMARK  status: ('A' for Active; 'I' for Inactive)
REMARK    1  A    between atoms: _5  and  _11
REMARK    2  A    between atoms: _19  and  _21
REMARK    3  A    between atoms: _22  and  _66
REMARK    4  A    between atoms: _27  and  _30
REMARK    5  A    between atoms: _32  and  _33
REMARK    6  A    between atoms: _38  and  _43
REMARK    7  A    between atoms: _43  and  _46
REMARK    8  A    between atoms: _53  and  _55
REMARK                            x       y       z     vdW  Elec       q    Type
REMARK                         _______ _______ _______ _____ _____    ______ ____
ROOT
ATOM     10  C   UNL     1      19.798 -13.937 -51.541  0.00  0.00    +0.038 A 
ATOM     11  C   UNL     1      19.623 -14.126 -52.936  0.00  0.00    +0.047 A 
ATOM     12  C   UNL     1      19.538 -15.459 -53.511  0.00  0.00    +0.035 A 
ATOM     32  C   UNL     1      19.631 -16.580 -52.634  0.00  0.00    +0.024 A 
ATOM     33  C   UNL     1      19.810 -16.407 -51.214  0.00  0.00    +0.007 A 
ATOM     34  C   UNL     1      19.897 -15.094 -50.642  0.00  0.00    -0.029 A 
ATOM     35  C   UNL     1      20.095 -14.968 -49.113  0.00  0.00    +0.045 C 
ENDROOT
BRANCH  10   9
ATOM      4  C   UNL     1      21.938  -9.655 -51.199  0.00  0.00    +0.077 A 
ATOM      5  C   UNL     1      23.011 -10.056 -52.063  0.00  0.00    +0.048 A 
ATOM      6  C   UNL     1      22.978 -11.375 -52.569  0.00  0.00    +0.116 A 
ATOM      7  N   UNL     1      21.944 -12.221 -52.230  0.00  0.00    -0.223 NA
ATOM      8  C   UNL     1      20.927 -11.803 -51.392  0.00  0.00    +0.220 A 
ATOM      9  N   UNL     1      19.874 -12.635 -51.044  0.00  0.00    -0.283 N 
ATOM     36  H   UNL     1      19.146 -12.291 -50.417  0.00  0.00    +0.155 HD
ATOM     37  N   UNL     1      20.936 -10.549 -50.894  0.00  0.00    -0.214 NA
BRANCH   4   3
ATOM      1  C   UNL     1      22.833  -6.155 -49.698  0.00  0.00    +0.020 A 
ATOM      2  C   UNL     1      22.992  -7.464 -50.288  0.00  0.00    +0.013 A 
ATOM      3  C   UNL     1      21.830  -8.293 -50.587  0.00  0.00    +0.019 A 
ATOM     38  C   UNL     1      20.512  -7.762 -50.275  0.00  0.00    +0.120 A 
ATOM     39  N   UNL     1      20.390  -6.499 -49.705  0.00  0.00    -0.263 NA
ATOM     40  C   UNL     1      21.500  -5.694 -49.412  0.00  0.00    +0.111 A 
ENDBRANCH   4   3
ENDBRANCH  10   9
BRANCH  12  13
ATOM     13  N   UNL     1      19.369 -15.712 -54.920  0.00  0.00    -0.281 N 
ATOM     14  C   UNL     1      20.106 -16.564 -55.727  0.00  0.00    +0.248 C 
ATOM     30  O   UNL     1      21.165 -17.080 -55.401  0.00  0.00    -0.270 OA
ATOM     31  H   UNL     1      18.615 -15.201 -55.379  0.00  0.00    +0.155 HD
BRANCH  14  15
ATOM     15  C   UNL     1      19.601 -16.876 -57.098  0.00  0.00    +0.037 A 
ATOM     16  C   UNL     1      19.109 -15.819 -57.986  0.00  0.00    +0.013 A 
ATOM     17  C   UNL     1      18.611 -16.150 -59.298  0.00  0.00    +0.005 A 
ATOM     18  C   UNL     1      18.605 -17.545 -59.731  0.00  0.00    -0.033 A 
ATOM     28  C   UNL     1      19.105 -18.573 -58.832  0.00  0.00    +0.005 A 
ATOM     29  C   UNL     1      19.592 -18.253 -57.545  0.00  0.00    +0.013 A 
BRANCH  18  19
ATOM     19  C   UNL     1      18.073 -17.992 -61.105  0.00  0.00    +0.119 C 
BRANCH  19  20
ATOM     20  N   UNL     1      18.909 -17.669 -62.300  0.00  0.00    -0.302 NA
ATOM     21  C   UNL     1      18.813 -16.190 -62.685  0.00  0.00    +0.066 C 
ATOM     22  C   UNL     1      19.711 -15.865 -63.923  0.00  0.00    -0.064 C 
ATOM     23  N   UNL     1      19.301 -16.758 -65.096  0.00  0.00    +0.379 N 
ATOM     24  C   UNL     1      20.104 -16.414 -66.278  0.00  0.00    -0.096 C 
ATOM     25  H   UNL     1      18.235 -16.535 -65.334  0.00  0.00    -0.082 HD
ATOM     26  C   UNL     1      19.391 -18.230 -64.720  0.00  0.00    -0.064 C 
ATOM     27  C   UNL     1      18.519 -18.537 -63.471  0.00  0.00    +0.066 C 
ENDBRANCH  19  20
ENDBRANCH  18  19
ENDBRANCH  14  15
ENDBRANCH  12  13
TORSDOF 6
ENDMDL
MODEL 2
REMARK VINA RESULT:      -8.3      1.836      2.901
REMARK  Name = C:\Users\Docking\Desktop\test protocol\1iep_ligandH.pdb
REMARK  8 active torsions:
REMARK  status: ('A' for Active; 'I' for Inactive)
REMARK    1  A    between atoms: _5  and  _11
REMARK    2  A    between atoms: _19  and  _21
REMARK    3  A    between atoms: _22  and  _66
REMARK    4  A    between atoms: _27  and  _30
REMARK    5  A    between atoms: _32  and  _33
REMARK    6  A    between atoms: _38  and  _43
REMARK    7  A    between atoms: _43  and  _46
REMARK    8  A    between atoms: _53  and  _55
REMARK                            x       y       z     vdW  Elec       q    Type
REMARK                         _______ _______ _______ _____ _____    ______ ____
ROOT
ATOM     10  C   UNL     1      21.325 -15.523 -54.012  0.00  0.00    +0.038 A 
ATOM     11  C   UNL     1      20.706 -15.793 -55.259  0.00  0.00    +0.047 A 
ATOM     12  C   UNL     1      20.564 -17.155 -55.750  0.00  0.00    +0.035 A 
ATOM     32  C   UNL     1      21.061 -18.219 -54.942  0.00  0.00    +0.024 A 
ATOM     33  C   UNL     1      21.694 -17.963 -53.672  0.00  0.00    +0.007 A 
ATOM     34  C   UNL     1      21.839 -16.621 -53.184  0.00  0.00    -0.029 A 
ATOM     35  C   UNL     1      22.531 -16.405 -51.818  0.00  0.00    +0.045 C 
ENDROOT
BRANCH  10   9
ATOM      4  C   UNL     1      19.689 -11.689 -51.633  0.00  0.00    +0.077 A 
ATOM      5  C   UNL     1      18.501 -12.379 -51.219  0.00  0.00    +0.048 A 
ATOM      6  C   UNL     1      18.346 -13.717 -51.645  0.00  0.00    +0.116 A 
ATOM      7  N   UNL     1      19.313 -14.311 -52.427  0.00  0.00    -0.223 NA
ATOM      8  C   UNL     1      20.446 -13.616 -52.810  0.00  0.00    +0.220 A 
ATOM      9  N   UNL     1      21.435 -14.196 -53.589  0.00  0.00    -0.283 N 
ATOM     36  H   UNL     1      22.252 -13.648 -53.857  0.00  0.00    +0.155 HD
ATOM     37  N   UNL     1      20.617 -12.337 -52.417  0.00  0.00    -0.214 NA
BRANCH   4   3
ATOM      1  C   UNL     1      21.602  -8.392 -50.754  0.00  0.00    +0.020 A 
ATOM      2  C   UNL     1      21.358  -9.770 -51.115  0.00  0.00    +0.013 A 
ATOM      3  C   UNL     1      19.998 -10.272 -51.261  0.00  0.00    +0.019 A 
ATOM     38  C   UNL     1      18.898  -9.347 -51.034  0.00  0.00    +0.120 A 
ATOM     39  N   UNL     1      19.163  -8.026 -50.686  0.00  0.00    -0.263 NA
ATOM     40  C   UNL     1      20.468  -7.532 -50.541  0.00  0.00    +0.111 A 
ENDBRANCH   4   3
ENDBRANCH  10   9
BRANCH  12  13
ATOM     13  N   UNL     1      19.952 -17.489 -57.012  0.00  0.00    -0.281 N 
ATOM     14  C   UNL     1      19.017 -16.758 -57.725  0.00  0.00    +0.248 C 
ATOM     30  O   UNL     1      18.402 -15.800 -57.279  0.00  0.00    -0.270 OA
ATOM     31  H   UNL     1      20.244 -18.373 -57.430  0.00  0.00    +0.155 HD
BRANCH  14  15
ATOM     15  C   UNL     1      18.709 -17.156 -59.132  0.00  0.00    +0.037 A 
ATOM     16  C   UNL     1      18.473 -16.151 -60.172  0.00  0.00    +0.013 A 
ATOM     17  C   UNL     1      18.161 -16.562 -61.518  0.00  0.00    +0.005 A 
ATOM     18  C   UNL     1      18.086 -17.986 -61.832  0.00  0.00    -0.033 A 
ATOM     28  C   UNL     1      18.331 -18.962 -60.783  0.00  0.00    +0.005 A 
ATOM     29  C   UNL     1      18.635 -18.563 -59.462  0.00  0.00    +0.013 A 
BRANCH  18  19
ATOM     19  C   UNL     1      17.739 -18.516 -63.236  0.00  0.00    +0.119 C 
BRANCH  19  20
ATOM     20  N   UNL     1      18.685 -18.187 -64.344  0.00  0.00    -0.302 NA
ATOM     21  C   UNL     1      18.362 -16.839 -64.995  0.00  0.00    +0.066 C 
ATOM     22  C   UNL     1      19.375 -16.500 -66.136  0.00  0.00    -0.064 C 
ATOM     23  N   UNL     1      19.360 -17.622 -67.177  0.00  0.00    +0.379 N 
ATOM     24  C   UNL     1      20.269 -17.279 -68.281  0.00  0.00    -0.096 C 
ATOM     25  H   UNL     1      18.328 -17.681 -67.594  0.00  0.00    -0.082 HD
ATOM     26  C   UNL     1      19.678 -18.966 -66.538  0.00  0.00    -0.064 C 
ATOM     27  C   UNL     1      18.683 -19.279 -65.385  0.00  0.00    +0.066 C 
ENDBRANCH  19  20
ENDBRANCH  18  19
ENDBRANCH  14  15
ENDBRANCH  12  13
TORSDOF 6
ENDMDL
MODEL 3
REMARK VINA RESULT:      -8.2      8.410     12.131
REMARK  Name = C:\Users\Docking\Desktop\test protocol\1iep_ligandH.pdb
REMARK  8 active torsions:
REMARK  status: ('A' for Active; 'I' for Inactive)
REMARK    1  A    between atoms: _5  and  _11
REMARK    2  A    between atoms: _19  and  _21
REMARK    3  A    between atoms: _22  and  _66
REMARK    4  A    between atoms: _27  and  _30
REMARK    5  A    between atoms: _32  and  _33
REMARK    6  A    between atoms: _38  and  _43
REMARK    7  A    between atoms: _43  and  _46
REMARK    8  A    between atoms: _53  and  _55
REMARK                            x       y       z     vdW  Elec       q    Type
REMARK                         _______ _______ _______ _____ _____    ______ ____
ROOT
ATOM     10  C   UNL     1      18.563 -16.600 -41.565  0.00  0.00    +0.038 A 
ATOM     11  C   UNL     1      18.919 -16.094 -42.841  0.00  0.00    +0.047 A 
ATOM     12  C   UNL     1      18.686 -16.870 -44.050  0.00  0.00    +0.035 A 
ATOM     32  C   UNL     1      18.086 -18.157 -43.921  0.00  0.00    +0.024 A 
ATOM     33  C   UNL     1      17.719 -18.687 -42.632  0.00  0.00    +0.007 A 
ATOM     34  C   UNL     1      17.949 -17.927 -41.436  0.00  0.00    -0.029 A 
ATOM     35  C   UNL     1      17.541 -18.548 -40.080  0.00  0.00    +0.045 C 
ENDROOT
BRANCH  10   9
ATOM      4  C   UNL     1      21.426 -15.007 -38.057  0.00  0.00    +0.077 A 
ATOM      5  C   UNL     1      22.516 -15.834 -38.491  0.00  0.00    +0.048 A 
ATOM      6  C   UNL     1      22.296 -16.660 -39.616  0.00  0.00    +0.116 A 
ATOM      7  N   UNL     1      21.074 -16.651 -40.253  0.00  0.00    -0.223 NA
ATOM      8  C   UNL     1      20.044 -15.843 -39.808  0.00  0.00    +0.220 A 
ATOM      9  N   UNL     1      18.809 -15.813 -40.438  0.00  0.00    -0.283 N 
ATOM     36  H   UNL     1      18.072 -15.208 -40.075  0.00  0.00    +0.155 HD
ATOM     37  N   UNL     1      20.228 -15.047 -38.735  0.00  0.00    -0.214 NA
BRANCH   4   3
ATOM      1  C   UNL     1      20.531 -12.979 -34.835  0.00  0.00    +0.020 A 
ATOM      2  C   UNL     1      20.404 -13.889 -35.950  0.00  0.00    +0.013 A 
ATOM      3  C   UNL     1      21.505 -14.078 -36.886  0.00  0.00    +0.019 A 
ATOM     38  C   UNL     1      22.731 -13.327 -36.663  0.00  0.00    +0.120 A 
ATOM     39  N   UNL     1      22.824 -12.457 -35.581  0.00  0.00    -0.263 NA
ATOM     40  C   UNL     1      21.771 -12.265 -34.675  0.00  0.00    +0.111 A 
ENDBRANCH   4   3
ENDBRANCH  10   9
BRANCH  12  13
ATOM     13  N   UNL     1      19.034 -16.412 -45.372  0.00  0.00    -0.281 N 
ATOM     14  C   UNL     1      20.286 -16.388 -45.963  0.00  0.00    +0.248 C 
ATOM     30  O   UNL     1      21.337 -16.560 -45.363  0.00  0.00    -0.270 OA
ATOM     31  H   UNL     1      18.263 -16.063 -45.941  0.00  0.00    +0.155 HD
BRANCH  14  15
ATOM     15  C   UNL     1      20.387 -16.120 -47.430  0.00  0.00    +0.037 A 
ATOM     16  C   UNL     1      21.315 -16.874 -48.278  0.00  0.00    +0.013 A 
ATOM     17  C   UNL     1      21.405 -16.584 -49.687  0.00  0.00    +0.005 A 
ATOM     18  C   UNL     1      20.563 -15.535 -50.257  0.00  0.00    -0.033 A 
ATOM     28  C   UNL     1      19.647 -14.807 -49.395  0.00  0.00    +0.005 A 
ATOM     29  C   UNL     1      19.557 -15.088 -48.013  0.00  0.00    +0.013 A 
BRANCH  18  19
ATOM     19  C   UNL     1      20.608 -15.144 -51.746  0.00  0.00    +0.119 C 
BRANCH  19  20
ATOM     20  N   UNL     1      21.211 -13.821 -52.088  0.00  0.00    -0.302 NA
ATOM     21  C   UNL     1      21.041 -13.478 -53.571  0.00  0.00    +0.066 C 
ATOM     22  C   UNL     1      21.658 -12.081 -53.906  0.00  0.00    -0.064 C 
ATOM     23  N   UNL     1      23.137 -12.073 -53.514  0.00  0.00    +0.379 N 
ATOM     24  C   UNL     1      23.734 -10.780 -53.881  0.00  0.00    -0.096 C 
ATOM     25  H   UNL     1      23.649 -12.864 -54.110  0.00  0.00    -0.082 HD
ATOM     26  C   UNL     1      23.315 -12.416 -52.042  0.00  0.00    -0.064 C 
ATOM     27  C   UNL     1      22.673 -13.792 -51.714  0.00  0.00    +0.066 C 
ENDBRANCH  19  20
ENDBRANCH  18  19
ENDBRANCH  14  15
ENDBRANCH  12  13
TORSDOF 6
ENDMDL
MODEL 4
REMARK VINA RESULT:      -8.2      2.424      3.467
REMARK  Name = C:\Users\Docking\Desktop\test protocol\1iep_ligandH.pdb
REMARK  8 active torsions:
REMARK  status: ('A' for Active; 'I' for Inactive)
REMARK    1  A    between atoms: _5  and  _11
REMARK    2  A    between atoms: _19  and  _21
REMARK    3  A    between atoms: _22  and  _66
REMARK    4  A    between atoms: _27  and  _30
REMARK    5  A    between atoms: _32  and  _33
REMARK    6  A    between atoms: _38  and  _43
REMARK    7  A    between atoms: _43  and  _46
REMARK    8  A    between atoms: _53  and  _55
REMARK                            x       y       z     vdW  Elec       q    Type
REMARK                         _______ _______ _______ _____ _____    ______ ____
ROOT
ATOM     10  C   UNL     1      21.244 -14.727 -52.694  0.00  0.00    +0.038 A 
ATOM     11  C   UNL     1      20.804 -14.935 -54.026  0.00  0.00    +0.047 A 
ATOM     12  C   UNL     1      20.330 -16.237 -54.468  0.00  0.00    +0.035 A 
ATOM     32  C   UNL     1      20.317 -17.306 -53.526  0.00  0.00    +0.024 A 
ATOM     33  C   UNL     1      20.762 -17.114 -52.168  0.00  0.00    +0.007 A 
ATOM     34  C   UNL     1      21.233 -15.832 -51.727  0.00  0.00    -0.029 A 
ATOM     35  C   UNL     1      21.704 -15.685 -50.262  0.00  0.00    +0.045 C 
ENDROOT
BRANCH  10   9
ATOM      4  C   UNL     1      20.473 -10.294 -51.025  0.00  0.00    +0.077 A 
ATOM      5  C   UNL     1      19.061 -10.521 -50.906  0.00  0.00    +0.048 A 
ATOM      6  C   UNL     1      18.573 -11.789 -51.292  0.00  0.00    +0.116 A 
ATOM      7  N   UNL     1      19.441 -12.752 -51.759  0.00  0.00    -0.223 NA
ATOM      8  C   UNL     1      20.796 -12.500 -51.863  0.00  0.00    +0.220 A 
ATOM      9  N   UNL     1      21.689 -13.456 -52.323  0.00  0.00    -0.283 N 
ATOM     36  H   UNL     1      22.680 -13.229 -52.392  0.00  0.00    +0.155 HD
ATOM     37  N   UNL     1      21.287 -11.296 -51.502  0.00  0.00    -0.214 NA
BRANCH   4   3
ATOM      1  C   UNL     1      21.093  -6.567 -50.014  0.00  0.00    +0.020 A 
ATOM      2  C   UNL     1      20.400  -7.784 -50.368  0.00  0.00    +0.013 A 
ATOM      3  C   UNL     1      21.140  -9.006 -50.654  0.00  0.00    +0.019 A 
ATOM     38  C   UNL     1      22.592  -8.963 -50.572  0.00  0.00    +0.120 A 
ATOM     39  N   UNL     1      23.233  -7.776 -50.230  0.00  0.00    -0.263 NA
ATOM     40  C   UNL     1      22.531  -6.593 -49.954  0.00  0.00    +0.111 A 
ENDBRANCH   4   3
ENDBRANCH  10   9
BRANCH  12  13
ATOM     13  N   UNL     1      19.878 -16.509 -55.810  0.00  0.00    -0.281 N 
ATOM     14  C   UNL     1      20.353 -17.466 -56.691  0.00  0.00    +0.248 C 
ATOM     30  O   UNL     1      21.389 -18.096 -56.535  0.00  0.00    -0.270 OA
ATOM     31  H   UNL     1      19.115 -15.925 -56.152  0.00  0.00    +0.155 HD
BRANCH  14  15
ATOM     15  C   UNL     1      19.573 -17.756 -57.933  0.00  0.00    +0.037 A 
ATOM     16  C   UNL     1      19.550 -19.098 -58.520  0.00  0.00    +0.013 A 
ATOM     17  C   UNL     1      18.803 -19.346 -59.728  0.00  0.00    +0.005 A 
ATOM     18  C   UNL     1      18.072 -18.248 -60.356  0.00  0.00    -0.033 A 
ATOM     28  C   UNL     1      18.108 -16.927 -59.749  0.00  0.00    +0.005 A 
ATOM     29  C   UNL     1      18.840 -16.680 -58.566  0.00  0.00    +0.013 A 
BRANCH  18  19
ATOM     19  C   UNL     1      17.265 -18.416 -61.657  0.00  0.00    +0.119 C 
BRANCH  19  20
ATOM     20  N   UNL     1      15.792 -18.187 -61.584  0.00  0.00    -0.302 NA
ATOM     21  C   UNL     1      15.116 -19.114 -60.569  0.00  0.00    +0.066 C 
ATOM     22  C   UNL     1      13.578 -18.845 -60.488  0.00  0.00    -0.064 C 
ATOM     23  N   UNL     1      12.959 -19.018 -61.876  0.00  0.00    +0.379 N 
ATOM     24  C   UNL     1      11.505 -18.823 -61.792  0.00  0.00    -0.096 C 
ATOM     25  H   UNL     1      13.142 -20.070 -62.198  0.00  0.00    -0.082 HD
ATOM     26  C   UNL     1      13.627 -18.102 -62.892  0.00  0.00    -0.064 C 
ATOM     27  C   UNL     1      15.159 -18.357 -62.943  0.00  0.00    +0.066 C 
ENDBRANCH  19  20
ENDBRANCH  18  19
ENDBRANCH  14  15
ENDBRANCH  12  13
TORSDOF 6
ENDMDL
MODEL 5
REMARK VINA RESULT:      -8.0      8.303     12.735
REMARK  Name = C:\Users\Docking\Desktop\test protocol\1iep_ligandH.pdb
REMARK  8 active torsions:
REMARK  status: ('A' for Active; 'I' for Inactive)
REMARK    1  A    between atoms: _5  and  _11
REMARK    2  A    between atoms: _19  and  _21
REMARK    3  A    between atoms: _22  and  _66
REMARK    4  A    between atoms: _27  and  _30
REMARK    5  A    between atoms: _32  and  _33
REMARK    6  A    between atoms: _38  and  _43
REMARK    7  A    between atoms: _43  and  _46
REMARK    8  A    between atoms: _53  and  _55
REMARK                            x       y       z     vdW  Elec       q    Type
REMARK                         _______ _______ _______ _____ _____    ______ ____
ROOT
ATOM     10  C   UNL     1      23.015 -16.848 -42.358  0.00  0.00    +0.038 A 
ATOM     11  C   UNL     1      22.152 -16.412 -43.396  0.00  0.00    +0.047 A 
ATOM     12  C   UNL     1      22.243 -16.972 -44.735  0.00  0.00    +0.035 A 
ATOM     32  C   UNL     1      23.224 -17.977 -44.982  0.00  0.00    +0.024 A 
ATOM     33  C   UNL     1      24.110 -18.430 -43.939  0.00  0.00    +0.007 A 
ATOM     34  C   UNL     1      24.026 -17.880 -42.616  0.00  0.00    -0.029 A 
ATOM     35  C   UNL     1      25.006 -18.400 -41.539  0.00  0.00    +0.045 C 
ENDROOT
BRANCH  10   9
ATOM      4  C   UNL     1      20.400 -15.580 -38.538  0.00  0.00    +0.077 A 
ATOM      5  C   UNL     1      19.190 -16.074 -39.128  0.00  0.00    +0.048 A 
ATOM      6  C   UNL     1      19.282 -16.641 -40.419  0.00  0.00    +0.116 A 
ATOM      7  N   UNL     1      20.499 -16.704 -41.062  0.00  0.00    -0.223 NA
ATOM      8  C   UNL     1      21.647 -16.216 -40.465  0.00  0.00    +0.220 A 
ATOM      9  N   UNL     1      22.883 -16.276 -41.091  0.00  0.00    -0.283 N 
ATOM     36  H   UNL     1      23.705 -15.899 -40.620  0.00  0.00    +0.155 HD
ATOM     37  N   UNL     1      21.585 -15.669 -39.234  0.00  0.00    -0.214 NA
BRANCH   4   3
ATOM      1  C   UNL     1      19.454 -14.334 -34.953  0.00  0.00    +0.020 A 
ATOM      2  C   UNL     1      19.338 -14.949 -36.255  0.00  0.00    +0.013 A 
ATOM      3  C   UNL     1      20.466 -14.957 -37.178  0.00  0.00    +0.019 A 
ATOM     38  C   UNL     1      21.707 -14.328 -36.750  0.00  0.00    +0.120 A 
ATOM     39  N   UNL     1      21.788 -13.742 -35.491  0.00  0.00    -0.263 NA
ATOM     40  C   UNL     1      20.709 -13.728 -34.594  0.00  0.00    +0.111 A 
ENDBRANCH   4   3
ENDBRANCH  10   9
BRANCH  12  13
ATOM     13  N   UNL     1      21.400 -16.563 -45.831  0.00  0.00    -0.281 N 
ATOM     14  C   UNL     1      20.017 -16.486 -45.858  0.00  0.00    +0.248 C 
ATOM     30  O   UNL     1      19.281 -16.963 -45.007  0.00  0.00    -0.270 OA
ATOM     31  H   UNL     1      21.881 -16.299 -46.691  0.00  0.00    +0.155 HD
BRANCH  14  15
ATOM     15  C   UNL     1      19.355 -15.790 -47.004  0.00  0.00    +0.037 A 
ATOM     16  C   UNL     1      19.941 -15.811 -48.347  0.00  0.00    +0.013 A 
ATOM     17  C   UNL     1      19.291 -15.118 -49.430  0.00  0.00    +0.005 A 
ATOM     18  C   UNL     1      18.046 -14.397 -49.175  0.00  0.00    -0.033 A 
ATOM     28  C   UNL     1      17.484 -14.396 -47.834  0.00  0.00    +0.005 A 
ATOM     29  C   UNL     1      18.119 -15.074 -46.769  0.00  0.00    +0.013 A 
BRANCH  18  19
ATOM     19  C   UNL     1      17.295 -13.611 -50.266  0.00  0.00    +0.119 C 
BRANCH  19  20
ATOM     20  N   UNL     1      17.522 -12.137 -50.326  0.00  0.00    -0.302 NA
ATOM     21  C   UNL     1      16.242 -11.371 -50.670  0.00  0.00    +0.066 C 
ATOM     22  C   UNL     1      16.493  -9.829 -50.707  0.00  0.00    -0.064 C 
ATOM     23  N   UNL     1      17.597  -9.518 -51.719  0.00  0.00    +0.379 N 
ATOM     24  C   UNL     1      17.796  -8.064 -51.798  0.00  0.00    -0.096 C 
ATOM     25  H   UNL     1      17.248  -9.867 -52.718  0.00  0.00    -0.082 HD
ATOM     26  C   UNL     1      18.874 -10.278 -51.385  0.00  0.00    -0.064 C 
ATOM     27  C   UNL     1      18.607 -11.807 -51.322  0.00  0.00    +0.066 C 
ENDBRANCH  19  20
ENDBRANCH  18  19
ENDBRANCH  14  15
ENDBRANCH  12  13
TORSDOF 6
ENDMDL
