MODEL 1
REMARK VINA RESULT:      -8.9      0.000      0.000
REMARK  Name = C:\Users\Docking\Desktop\test protocol\1iep_ligandH.pdb
REMARK  8 active torsions:
REMARK  status: ('A' for Active; 'I' for Inactive)
REMARK    1  A    between atoms: _5  and  _11
REMARK    2  A    between atoms: _19  and  _21
REMARK    3  A    between atoms: _22  and  _66
REMARK    4  A    between atoms: _27  and  _30
REMARK    5  A    between atoms: _32  and  _33
REMARK    6  A    between atoms: _38  and  _43
REMARK    7  A    between atoms: _43  and  _46
REMARK    8  A    between atoms: _53  and  _55
REMARK                            x       y       z     vdW  Elec       q    Type
REMARK                         _______ _______ _______ _____ _____    ______ ____
ROOT
ATOM     10  C   UNL     1      21.507 -14.207 -52.319  0.00  0.00    +0.038 A 
ATOM     11  C   UNL     1      20.718 -14.493 -53.462  0.00  0.00    +0.047 A 
ATOM     12  C   UNL     1      20.863 -15.748 -54.182  0.00  0.00    +0.035 A 
ATOM     32  C   UNL     1      21.821 -16.691 -53.710  0.00  0.00    +0.024 A 
ATOM     33  C   UNL     1      22.633 -16.417 -52.550  0.00  0.00    +0.007 A 
ATOM     34  C   UNL     1      22.496 -15.179 -51.837  0.00  0.00    -0.029 A 
ATOM     35  C   UNL     1      23.398 -14.936 -50.604  0.00  0.00    +0.045 C 
ENDROOT
BRANCH  10   9
ATOM      4  C   UNL     1      22.653  -9.612 -51.540  0.00  0.00    +0.077 A 
ATOM      5  C   UNL     1      23.721  -9.654 -52.498  0.00  0.00    +0.048 A 
ATOM      6  C   UNL     1      23.946 -10.879 -53.164  0.00  0.00    +0.116 A 
ATOM      7  N   UNL     1      23.157 -11.974 -52.886  0.00  0.00    -0.223 NA
ATOM      8  C   UNL     1      22.137 -11.900 -51.955  0.00  0.00    +0.220 A 
ATOM      9  N   UNL     1      21.326 -12.986 -51.665  0.00  0.00    -0.283 N 
ATOM     36  H   UNL     1      20.589 -12.893 -50.966  0.00  0.00    +0.155 HD
ATOM     37  N   UNL     1      21.902 -10.741 -51.304  0.00  0.00    -0.214 NA
BRANCH   4   3
ATOM      1  C   UNL     1      20.613  -6.779 -49.777  0.00  0.00    +0.020 A 
ATOM      2  C   UNL     1      20.910  -7.968 -50.541  0.00  0.00    +0.013 A 
ATOM      3  C   UNL     1      22.289  -8.388 -50.757  0.00  0.00    +0.019 A 
ATOM     38  C   UNL     1      23.351  -7.577 -50.182  0.00  0.00    +0.120 A 
ATOM     39  N   UNL     1      23.034  -6.436 -49.452  0.00  0.00    -0.263 NA
ATOM     40  C   UNL     1      21.711  -6.021 -49.239  0.00  0.00    +0.111 A 
ENDBRANCH   4   3
ENDBRANCH  10   9
BRANCH  12  13
ATOM     13  N   UNL     1      20.094 -16.089 -55.354  0.00  0.00    -0.281 N 
ATOM     14  C   UNL     1      20.251 -15.611 -56.644  0.00  0.00    +0.248 C 
ATOM     30  O   UNL     1      20.943 -14.650 -56.946  0.00  0.00    -0.270 OA
ATOM     31  H   UNL     1      19.344 -16.766 -55.214  0.00  0.00    +0.155 HD
BRANCH  14  15
ATOM     15  C   UNL     1      19.522 -16.289 -57.759  0.00  0.00    +0.037 A 
ATOM     16  C   UNL     1      19.244 -17.727 -57.721  0.00  0.00    +0.013 A 
ATOM     17  C   UNL     1      18.554 -18.360 -58.818  0.00  0.00    +0.005 A 
ATOM     18  C   UNL     1      18.136 -17.552 -59.961  0.00  0.00    -0.033 A 
ATOM     28  C   UNL     1      18.419 -16.127 -59.970  0.00  0.00    +0.005 A 
ATOM     29  C   UNL     1      19.096 -15.504 -58.898  0.00  0.00    +0.013 A 
BRANCH  18  19
ATOM     19  C   UNL     1      17.413 -18.147 -61.185  0.00  0.00    +0.119 C 
BRANCH  19  20
ATOM     20  N   UNL     1      17.645 -17.486 -62.504  0.00  0.00    -0.302 NA
ATOM     21  C   UNL     1      16.497 -17.742 -63.484  0.00  0.00    +0.066 C 
ATOM     22  C   UNL     1      16.746 -17.025 -64.851  0.00  0.00    -0.064 C 
ATOM     23  N   UNL     1      18.076 -17.500 -65.439  0.00  0.00    +0.379 N 
ATOM     24  C   UNL     1      18.285 -16.872 -66.751  0.00  0.00    -0.096 C 
ATOM     25  H   UNL     1      18.000 -18.601 -65.599  0.00  0.00    -0.082 HD
ATOM     26  C   UNL     1      19.223 -17.252 -64.469  0.00  0.00    -0.064 C 
ATOM     27  C   UNL     1      18.952 -17.945 -63.104  0.00  0.00    +0.066 C 
ENDBRANCH  19  20
ENDBRANCH  18  19
ENDBRANCH  14  15
ENDBRANCH  12  13
TORSDOF 6
ENDMDL
MODEL 2
REMARK VINA RESULT:      -8.5      2.100      2.912
REMARK  Name = C:\Users\Docking\Desktop\test protocol\1iep_ligandH.pdb
REMARK  8 active torsions:
REMARK  status: ('A' for Active; 'I' for Inactive)
REMARK    1  A    between atoms: _5  and  _11
REMARK    2  A    between atoms: _19  and  _21
REMARK    3  A    between atoms: _22  and  _66
REMARK    4  A    between atoms: _27  and  _30
REMARK    5  A    between atoms: _32  and  _33
REMARK    6  A    between atoms: _38  and  _43
REMARK    7  A    between atoms: _43  and  _46
REMARK    8  A    between atoms: _53  and  _55
REMARK                            x       y       z     vdW  Elec       q    Type
REMARK                         _______ _______ _______ _____ _____    ______ ____
ROOT
ATOM     10  C   UNL     1      21.474 -14.667 -53.341  0.00  0.00    +0.038 A 
ATOM     11  C   UNL     1      20.628 -14.937 -54.447  0.00  0.00    +0.047 A 
ATOM     12  C   UNL     1      20.411 -16.297 -54.915  0.00  0.00    +0.035 A 
ATOM     32  C   UNL     1      21.071 -17.360 -54.232  0.00  0.00    +0.024 A 
ATOM     33  C   UNL     1      21.936 -17.104 -53.107  0.00  0.00    +0.007 A 
ATOM     34  C   UNL     1      22.155 -15.764 -52.642  0.00  0.00    -0.029 A 
ATOM     35  C   UNL     1      23.098 -15.548 -51.435  0.00  0.00    +0.045 C 
ENDROOT
BRANCH  10   9
ATOM      4  C   UNL     1      19.923 -10.663 -51.197  0.00  0.00    +0.077 A 
ATOM      5  C   UNL     1      18.653 -11.252 -50.885  0.00  0.00    +0.048 A 
ATOM      6  C   UNL     1      18.436 -12.585 -51.300  0.00  0.00    +0.116 A 
ATOM      7  N   UNL     1      19.423 -13.269 -51.976  0.00  0.00    -0.223 NA
ATOM      8  C   UNL     1      20.636 -12.671 -52.262  0.00  0.00    +0.220 A 
ATOM      9  N   UNL     1      21.646 -13.343 -52.934  0.00  0.00    -0.283 N 
ATOM     36  H   UNL     1      22.524 -12.864 -53.133  0.00  0.00    +0.155 HD
ATOM     37  N   UNL     1      20.868 -11.398 -51.878  0.00  0.00    -0.214 NA
BRANCH   4   3
ATOM      1  C   UNL     1      19.744  -6.879 -50.221  0.00  0.00    +0.020 A 
ATOM      2  C   UNL     1      19.324  -8.214 -50.581  0.00  0.00    +0.013 A 
ATOM      3  C   UNL     1      20.304  -9.265 -50.822  0.00  0.00    +0.019 A 
ATOM     38  C   UNL     1      21.714  -8.930 -50.688  0.00  0.00    +0.120 A 
ATOM     39  N   UNL     1      22.090  -7.636 -50.341  0.00  0.00    -0.263 NA
ATOM     40  C   UNL     1      21.155  -6.616 -50.109  0.00  0.00    +0.111 A 
ENDBRANCH   4   3
ENDBRANCH  10   9
BRANCH  12  13
ATOM     13  N   UNL     1      19.569 -16.631 -56.037  0.00  0.00    -0.281 N 
ATOM     14  C   UNL     1      19.572 -16.064 -57.301  0.00  0.00    +0.248 C 
ATOM     30  O   UNL     1      20.157 -15.033 -57.596  0.00  0.00    -0.270 OA
ATOM     31  H   UNL     1      18.889 -17.374 -55.880  0.00  0.00    +0.155 HD
BRANCH  14  15
ATOM     15  C   UNL     1      18.800 -16.733 -58.393  0.00  0.00    +0.037 A 
ATOM     16  C   UNL     1      18.104 -18.002 -58.165  0.00  0.00    +0.013 A 
ATOM     17  C   UNL     1      17.381 -18.634 -59.240  0.00  0.00    +0.005 A 
ATOM     18  C   UNL     1      17.350 -17.996 -60.554  0.00  0.00    -0.033 A 
ATOM     28  C   UNL     1      18.045 -16.735 -60.751  0.00  0.00    +0.005 A 
ATOM     29  C   UNL     1      18.755 -16.113 -59.700  0.00  0.00    +0.013 A 
BRANCH  18  19
ATOM     19  C   UNL     1      16.621 -18.610 -61.764  0.00  0.00    +0.119 C 
BRANCH  19  20
ATOM     20  N   UNL     1      15.355 -17.952 -62.206  0.00  0.00    -0.302 NA
ATOM     21  C   UNL     1      14.146 -18.435 -61.401  0.00  0.00    +0.066 C 
ATOM     22  C   UNL     1      12.834 -17.720 -61.861  0.00  0.00    -0.064 C 
ATOM     23  N   UNL     1      12.621 -17.963 -63.356  0.00  0.00    +0.379 N 
ATOM     24  C   UNL     1      11.358 -17.341 -63.779  0.00  0.00    -0.096 C 
ATOM     25  H   UNL     1      12.525 -19.063 -63.509  0.00  0.00    -0.082 HD
ATOM     26  C   UNL     1      13.821 -17.488 -64.164  0.00  0.00    -0.064 C 
ATOM     27  C   UNL     1      15.124 -18.183 -63.679  0.00  0.00    +0.066 C 
ENDBRANCH  19  20
ENDBRANCH  18  19
ENDBRANCH  14  15
ENDBRANCH  12  13
TORSDOF 6
ENDMDL
MODEL 3
REMARK VINA RESULT:      -8.4      6.055      7.308
REMARK  Name = C:\Users\Docking\Desktop\test protocol\1iep_ligandH.pdb
REMARK  8 active torsions:
REMARK  status: ('A' for Active; 'I' for Inactive)
REMARK    1  A    between atoms: _5  and  _11
REMARK    2  A    between atoms: _19  and  _21
REMARK    3  A    between atoms: _22  and  _66
REMARK    4  A    between atoms: _27  and  _30
REMARK    5  A    between atoms: _32  and  _33
REMARK    6  A    between atoms: _38  and  _43
REMARK    7  A    between atoms: _43  and  _46
REMARK    8  A    between atoms: _53  and  _55
REMARK                            x       y       z     vdW  Elec       q    Type
REMARK                         _______ _______ _______ _____ _____    ______ ____
ROOT
ATOM     10  C   UNL     1      20.441 -13.936 -51.889  0.00  0.00    +0.038 A 
ATOM     11  C   UNL     1      21.687 -14.505 -52.259  0.00  0.00    +0.047 A 
ATOM     12  C   UNL     1      21.764 -15.837 -52.838  0.00  0.00    +0.035 A 
ATOM     32  C   UNL     1      20.551 -16.561 -53.030  0.00  0.00    +0.024 A 
ATOM     33  C   UNL     1      19.276 -15.998 -52.660  0.00  0.00    +0.007 A 
ATOM     34  C   UNL     1      19.195 -14.686 -52.085  0.00  0.00    -0.029 A 
ATOM     35  C   UNL     1      17.802 -14.135 -51.700  0.00  0.00    +0.045 C 
ENDROOT
BRANCH  10   9
ATOM      4  C   UNL     1      22.264  -9.525 -51.381  0.00  0.00    +0.077 A 
ATOM      5  C   UNL     1      23.354  -9.809 -52.270  0.00  0.00    +0.048 A 
ATOM      6  C   UNL     1      23.413 -11.104 -52.831  0.00  0.00    +0.116 A 
ATOM      7  N   UNL     1      22.448 -12.038 -52.520  0.00  0.00    -0.223 NA
ATOM      8  C   UNL     1      21.412 -11.732 -51.658  0.00  0.00    +0.220 A 
ATOM      9  N   UNL     1      20.426 -12.654 -51.337  0.00  0.00    -0.283 N 
ATOM     36  H   UNL     1      19.682 -12.392 -50.691  0.00  0.00    +0.155 HD
ATOM     37  N   UNL     1      21.334 -10.503 -51.107  0.00  0.00    -0.214 NA
BRANCH   4   3
ATOM      1  C   UNL     1      20.606  -6.349 -49.813  0.00  0.00    +0.020 A 
ATOM      2  C   UNL     1      20.745  -7.631 -50.464  0.00  0.00    +0.013 A 
ATOM      3  C   UNL     1      22.063  -8.202 -50.711  0.00  0.00    +0.019 A 
ATOM     38  C   UNL     1      23.229  -7.444 -50.282  0.00  0.00    +0.120 A 
ATOM     39  N   UNL     1      23.064  -6.211 -49.659  0.00  0.00    -0.263 NA
ATOM     40  C   UNL     1      21.801  -5.651 -49.418  0.00  0.00    +0.111 A 
ENDBRANCH   4   3
ENDBRANCH  10   9
BRANCH  12  13
ATOM     13  N   UNL     1      23.000 -16.470 -53.225  0.00  0.00    -0.281 N 
ATOM     14  C   UNL     1      23.834 -17.257 -52.448  0.00  0.00    +0.248 C 
ATOM     30  O   UNL     1      23.750 -17.362 -51.233  0.00  0.00    -0.270 OA
ATOM     31  H   UNL     1      23.297 -16.319 -54.190  0.00  0.00    +0.155 HD
BRANCH  14  15
ATOM     15  C   UNL     1      24.927 -18.028 -53.115  0.00  0.00    +0.037 A 
ATOM     16  C   UNL     1      26.099 -17.353 -53.677  0.00  0.00    +0.013 A 
ATOM     17  C   UNL     1      27.131 -18.120 -54.330  0.00  0.00    +0.005 A 
ATOM     18  C   UNL     1      26.995 -19.571 -54.422  0.00  0.00    -0.033 A 
ATOM     28  C   UNL     1      25.824 -20.216 -53.851  0.00  0.00    +0.005 A 
ATOM     29  C   UNL     1      24.810 -19.468 -53.211  0.00  0.00    +0.013 A 
BRANCH  18  19
ATOM     19  C   UNL     1      28.037 -20.466 -55.119  0.00  0.00    +0.119 C 
BRANCH  19  20
ATOM     20  N   UNL     1      28.164 -20.340 -56.602  0.00  0.00    -0.302 NA
ATOM     21  C   UNL     1      27.345 -21.401 -57.342  0.00  0.00    +0.066 C 
ATOM     22  C   UNL     1      27.472 -21.240 -58.892  0.00  0.00    -0.064 C 
ATOM     23  N   UNL     1      28.946 -21.318 -59.291  0.00  0.00    +0.379 N 
ATOM     24  C   UNL     1      29.064 -21.225 -60.753  0.00  0.00    -0.096 C 
ATOM     25  H   UNL     1      29.327 -22.320 -58.984  0.00  0.00    -0.082 HD
ATOM     26  C   UNL     1      29.769 -20.268 -58.558  0.00  0.00    -0.064 C 
ATOM     27  C   UNL     1      29.612 -20.419 -57.019  0.00  0.00    +0.066 C 
ENDBRANCH  19  20
ENDBRANCH  18  19
ENDBRANCH  14  15
ENDBRANCH  12  13
TORSDOF 6
ENDMDL
MODEL 4
REMARK VINA RESULT:      -8.3      6.710      8.409
REMARK  Name = C:\Users\Docking\Desktop\test protocol\1iep_ligandH.pdb
REMARK  8 active torsions:
REMARK  status: ('A' for Active; 'I' for Inactive)
REMARK    1  A    between atoms: _5  and  _11
REMARK    2  A    between atoms: _19  and  _21
REMARK    3  A    between atoms: _22  and  _66
REMARK    4  A    between atoms: _27  and  _30
REMARK    5  A    between atoms: _32  and  _33
REMARK    6  A    between atoms: _38  and  _43
REMARK    7  A    between atoms: _43  and  _46
REMARK    8  A    between atoms: _53  and  _55
REMARK                            x       y       z     vdW  Elec       q    Type
REMARK                         _______ _______ _______ _____ _____    ______ ____
ROOT
ATOM     10  C   UNL     1      22.094 -10.673 -51.855  0.00  0.00    +0.038 A 
ATOM     11  C   UNL     1      22.388 -12.023 -52.178  0.00  0.00    +0.047 A 
ATOM     12  C   UNL     1      23.614 -12.656 -51.718  0.00  0.00    +0.035 A 
ATOM     32  C   UNL     1      24.517 -11.886 -50.929  0.00  0.00    +0.024 A 
ATOM     33  C   UNL     1      24.235 -10.513 -50.593  0.00  0.00    +0.007 A 
ATOM     34  C   UNL     1      23.029  -9.882 -51.046  0.00  0.00    -0.029 A 
ATOM     35  C   UNL     1      22.781  -8.405 -50.661  0.00  0.00    +0.045 C 
ENDROOT
BRANCH  10   9
ATOM      4  C   UNL     1      17.387  -9.816 -51.476  0.00  0.00    +0.077 A 
ATOM      5  C   UNL     1      17.288 -10.566 -50.257  0.00  0.00    +0.048 A 
ATOM      6  C   UNL     1      18.470 -11.163 -49.765  0.00  0.00    +0.116 A 
ATOM      7  N   UNL     1      19.657 -11.013 -50.449  0.00  0.00    -0.223 NA
ATOM      8  C   UNL     1      19.717 -10.285 -51.623  0.00  0.00    +0.220 A 
ATOM      9  N   UNL     1      20.902 -10.115 -52.323  0.00  0.00    -0.283 N 
ATOM     36  H   UNL     1      20.903  -9.576 -53.189  0.00  0.00    +0.155 HD
ATOM     37  N   UNL     1      18.602  -9.706 -52.114  0.00  0.00    -0.214 NA
BRANCH   4   3
ATOM      1  C   UNL     1      15.138  -7.895 -54.037  0.00  0.00    +0.020 A 
ATOM      2  C   UNL     1      16.288  -8.553 -53.460  0.00  0.00    +0.013 A 
ATOM      3  C   UNL     1      16.226  -9.123 -52.121  0.00  0.00    +0.019 A 
ATOM     38  C   UNL     1      14.975  -9.011 -51.385  0.00  0.00    +0.120 A 
ATOM     39  N   UNL     1      13.885  -8.371 -51.965  0.00  0.00    -0.263 NA
ATOM     40  C   UNL     1      13.933  -7.816 -53.253  0.00  0.00    +0.111 A 
ENDBRANCH   4   3
ENDBRANCH  10   9
BRANCH  12  13
ATOM     13  N   UNL     1      23.969 -14.021 -52.021  0.00  0.00    -0.281 N 
ATOM     14  C   UNL     1      23.238 -15.169 -51.762  0.00  0.00    +0.248 C 
ATOM     30  O   UNL     1      22.257 -15.214 -51.035  0.00  0.00    -0.270 OA
ATOM     31  H   UNL     1      24.869 -14.156 -52.481  0.00  0.00    +0.155 HD
BRANCH  14  15
ATOM     15  C   UNL     1      23.667 -16.455 -52.391  0.00  0.00    +0.037 A 
ATOM     16  C   UNL     1      22.686 -17.429 -52.874  0.00  0.00    +0.013 A 
ATOM     17  C   UNL     1      23.127 -18.670 -53.461  0.00  0.00    +0.005 A 
ATOM     18  C   UNL     1      24.558 -18.942 -53.569  0.00  0.00    -0.033 A 
ATOM     28  C   UNL     1      25.510 -17.955 -53.087  0.00  0.00    +0.005 A 
ATOM     29  C   UNL     1      25.082 -16.739 -52.510  0.00  0.00    +0.013 A 
BRANCH  18  19
ATOM     19  C   UNL     1      25.118 -20.248 -54.163  0.00  0.00    +0.119 C 
BRANCH  19  20
ATOM     20  N   UNL     1      26.479 -20.193 -54.774  0.00  0.00    -0.302 NA
ATOM     21  C   UNL     1      26.430 -19.796 -56.252  0.00  0.00    +0.066 C 
ATOM     22  C   UNL     1      27.864 -19.721 -56.870  0.00  0.00    -0.064 C 
ATOM     23  N   UNL     1      28.563 -21.070 -56.695  0.00  0.00    +0.379 N 
ATOM     24  C   UNL     1      29.890 -21.021 -57.326  0.00  0.00    -0.096 C 
ATOM     25  H   UNL     1      27.960 -21.837 -57.235  0.00  0.00    -0.082 HD
ATOM     26  C   UNL     1      28.615 -21.473 -55.228  0.00  0.00    -0.064 C 
ATOM     27  C   UNL     1      27.187 -21.516 -54.616  0.00  0.00    +0.066 C 
ENDBRANCH  19  20
ENDBRANCH  18  19
ENDBRANCH  14  15
ENDBRANCH  12  13
TORSDOF 6
ENDMDL
MODEL 5
REMARK VINA RESULT:      -8.0      9.531     12.893
REMARK  Name = C:\Users\Docking\Desktop\test protocol\1iep_ligandH.pdb
REMARK  8 active torsions:
REMARK  status: ('A' for Active; 'I' for Inactive)
REMARK    1  A    between atoms: _5  and  _11
REMARK    2  A    between atoms: _19  and  _21
REMARK    3  A    between atoms: _22  and  _66
REMARK    4  A    between atoms: _27  and  _30
REMARK    5  A    between atoms: _32  and  _33
REMARK    6  A    between atoms: _38  and  _43
REMARK    7  A    between atoms: _43  and  _46
REMARK    8  A    between atoms: _53  and  _55
REMARK                            x       y       z     vdW  Elec       q    Type
REMARK                         _______ _______ _______ _____ _____    ______ ____
ROOT
ATOM     10  C   UNL     1      18.592 -16.303 -41.676  0.00  0.00    +0.038 A 
ATOM     11  C   UNL     1      18.792 -15.642 -42.915  0.00  0.00    +0.047 A 
ATOM     12  C   UNL     1      18.462 -16.289 -44.175  0.00  0.00    +0.035 A 
ATOM     32  C   UNL     1      17.928 -17.610 -44.137  0.00  0.00    +0.024 A 
ATOM     33  C   UNL     1      17.719 -18.297 -42.887  0.00  0.00    +0.007 A 
ATOM     34  C   UNL     1      18.045 -17.664 -41.640  0.00  0.00    -0.029 A 
ATOM     35  C   UNL     1      17.806 -18.451 -40.331  0.00  0.00    +0.045 C 
ENDROOT
BRANCH  10   9
ATOM      4  C   UNL     1      21.714 -15.081 -38.242  0.00  0.00    +0.077 A 
ATOM      5  C   UNL     1      22.762 -15.863 -38.833  0.00  0.00    +0.048 A 
ATOM      6  C   UNL     1      22.454 -16.570 -40.017  0.00  0.00    +0.116 A 
ATOM      7  N   UNL     1      21.189 -16.494 -40.560  0.00  0.00    -0.223 NA
ATOM      8  C   UNL     1      20.202 -15.732 -39.963  0.00  0.00    +0.220 A 
ATOM      9  N   UNL     1      18.926 -15.634 -40.497  0.00  0.00    -0.283 N 
ATOM     36  H   UNL     1      18.223 -15.067 -40.022  0.00  0.00    +0.155 HD
ATOM     37  N   UNL     1      20.470 -15.048 -38.832  0.00  0.00    -0.214 NA
BRANCH   4   3
ATOM      1  C   UNL     1      20.988 -13.107 -34.944  0.00  0.00    +0.020 A 
ATOM      2  C   UNL     1      20.768 -13.886 -36.141  0.00  0.00    +0.013 A 
ATOM      3  C   UNL     1      21.886 -14.275 -36.992  0.00  0.00    +0.019 A 
ATOM     38  C   UNL     1      23.224 -13.859 -36.599  0.00  0.00    +0.120 A 
ATOM     39  N   UNL     1      23.405 -13.108 -35.442  0.00  0.00    -0.263 NA
ATOM     40  C   UNL     1      22.337 -12.726 -34.616  0.00  0.00    +0.111 A 
ENDBRANCH   4   3
ENDBRANCH  10   9
BRANCH  12  13
ATOM     13  N   UNL     1      18.651 -15.671 -45.464  0.00  0.00    -0.281 N 
ATOM     14  C   UNL     1      19.667 -15.899 -46.378  0.00  0.00    +0.248 C 
ATOM     30  O   UNL     1      20.691 -16.518 -46.132  0.00  0.00    -0.270 OA
ATOM     31  H   UNL     1      17.950 -14.981 -45.736  0.00  0.00    +0.155 HD
BRANCH  14  15
ATOM     15  C   UNL     1      19.532 -15.347 -47.760  0.00  0.00    +0.037 A 
ATOM     16  C   UNL     1      20.095 -16.049 -48.917  0.00  0.00    +0.013 A 
ATOM     17  C   UNL     1      19.966 -15.487 -50.238  0.00  0.00    +0.005 A 
ATOM     18  C   UNL     1      19.268 -14.214 -50.409  0.00  0.00    -0.033 A 
ATOM     28  C   UNL     1      18.715 -13.542 -49.245  0.00  0.00    +0.005 A 
ATOM     29  C   UNL     1      18.841 -14.090 -47.949  0.00  0.00    +0.013 A 
BRANCH  18  19
ATOM     19  C   UNL     1      19.102 -13.530 -51.778  0.00  0.00    +0.119 C 
BRANCH  19  20
ATOM     20  N   UNL     1      20.083 -12.462 -52.133  0.00  0.00    -0.302 NA
ATOM     21  C   UNL     1      21.530 -12.948 -52.014  0.00  0.00    +0.066 C 
ATOM     22  C   UNL     1      22.543 -11.825 -52.410  0.00  0.00    -0.064 C 
ATOM     23  N   UNL     1      22.310 -10.598 -51.528  0.00  0.00    +0.379 N 
ATOM     24  C   UNL     1      23.299  -9.561 -51.858  0.00  0.00    -0.096 C 
ATOM     25  H   UNL     1      22.482 -10.904 -50.470  0.00  0.00    -0.082 HD
ATOM     26  C   UNL     1      20.873 -10.109 -51.638  0.00  0.00    -0.064 C 
ATOM     27  C   UNL     1      19.874 -11.241 -51.271  0.00  0.00    +0.066 C 
ENDBRANCH  19  20
ENDBRANCH  18  19
ENDBRANCH  14  15
ENDBRANCH  12  13
TORSDOF 6
ENDMDL
