MODEL 1
REMARK VINA RESULT:      -8.8      0.000      0.000
REMARK  Name = C:\Users\Docking\Desktop\test protocol\1iep_ligandH.pdb
REMARK  8 active torsions:
REMARK  status: ('A' for Active; 'I' for Inactive)
REMARK    1  A    between atoms: _5  and  _11
REMARK    2  A    between atoms: _19  and  _21
REMARK    3  A    between atoms: _22  and  _66
REMARK    4  A    between atoms: _27  and  _30
REMARK    5  A    between atoms: _32  and  _33
REMARK    6  A    between atoms: _38  and  _43
REMARK    7  A    between atoms: _43  and  _46
REMARK    8  A    between atoms: _53  and  _55
REMARK                            x       y       z     vdW  Elec       q    Type
REMARK                         _______ _______ _______ _____ _____    ______ ____
ROOT
ATOM     10  C   UNL     1      21.579 -14.321 -52.389  0.00  0.00    +0.038 A 
ATOM     11  C   UNL     1      20.754 -14.656 -53.493  0.00  0.00    +0.047 A 
ATOM     12  C   UNL     1      20.922 -15.914 -54.203  0.00  0.00    +0.035 A 
ATOM     32  C   UNL     1      21.939 -16.809 -53.761  0.00  0.00    +0.024 A 
ATOM     33  C   UNL     1      22.787 -16.484 -52.641  0.00  0.00    +0.007 A 
ATOM     34  C   UNL     1      22.627 -15.244 -51.938  0.00  0.00    -0.029 A 
ATOM     35  C   UNL     1      23.569 -14.945 -50.748  0.00  0.00    +0.045 C 
ENDROOT
BRANCH  10   9
ATOM      4  C   UNL     1      22.626  -9.696 -51.649  0.00  0.00    +0.077 A 
ATOM      5  C   UNL     1      23.689  -9.721 -52.611  0.00  0.00    +0.048 A 
ATOM      6  C   UNL     1      23.939 -10.946 -53.269  0.00  0.00    +0.116 A 
ATOM      7  N   UNL     1      23.176 -12.056 -52.979  0.00  0.00    -0.223 NA
ATOM      8  C   UNL     1      22.159 -11.998 -52.045  0.00  0.00    +0.220 A 
ATOM      9  N   UNL     1      21.373 -13.100 -51.743  0.00  0.00    -0.283 N 
ATOM     36  H   UNL     1      20.637 -13.018 -51.042  0.00  0.00    +0.155 HD
ATOM     37  N   UNL     1      21.901 -10.840 -51.401  0.00  0.00    -0.214 NA
BRANCH   4   3
ATOM      1  C   UNL     1      22.786  -6.371 -49.594  0.00  0.00    +0.020 A 
ATOM      2  C   UNL     1      23.213  -7.535 -50.336  0.00  0.00    +0.013 A 
ATOM      3  C   UNL     1      22.238  -8.475 -50.873  0.00  0.00    +0.019 A 
ATOM     38  C   UNL     1      20.826  -8.206 -50.642  0.00  0.00    +0.120 A 
ATOM     39  N   UNL     1      20.445  -7.078 -49.923  0.00  0.00    -0.263 NA
ATOM     40  C   UNL     1      21.374  -6.167 -49.399  0.00  0.00    +0.111 A 
ENDBRANCH   4   3
ENDBRANCH  10   9
BRANCH  12  13
ATOM     13  N   UNL     1      20.120 -16.305 -55.336  0.00  0.00    -0.281 N 
ATOM     14  C   UNL     1      20.152 -15.788 -56.621  0.00  0.00    +0.248 C 
ATOM     30  O   UNL     1      20.730 -14.759 -56.938  0.00  0.00    -0.270 OA
ATOM     31  H   UNL     1      19.447 -17.053 -55.171  0.00  0.00    +0.155 HD
BRANCH  14  15
ATOM     15  C   UNL     1      19.424 -16.511 -57.708  0.00  0.00    +0.037 A 
ATOM     16  C   UNL     1      19.073 -17.927 -57.576  0.00  0.00    +0.013 A 
ATOM     17  C   UNL     1      18.386 -18.604 -58.647  0.00  0.00    +0.005 A 
ATOM     18  C   UNL     1      18.045 -17.865 -59.860  0.00  0.00    -0.033 A 
ATOM     28  C   UNL     1      18.401 -16.459 -59.963  0.00  0.00    +0.005 A 
ATOM     29  C   UNL     1      19.075 -15.792 -58.915  0.00  0.00    +0.013 A 
BRANCH  18  19
ATOM     19  C   UNL     1      17.331 -18.513 -61.061  0.00  0.00    +0.119 C 
BRANCH  19  20
ATOM     20  N   UNL     1      16.013 -17.938 -61.465  0.00  0.00    -0.302 NA
ATOM     21  C   UNL     1      14.874 -18.951 -61.317  0.00  0.00    +0.066 C 
ATOM     22  C   UNL     1      13.500 -18.326 -61.722  0.00  0.00    -0.064 C 
ATOM     23  N   UNL     1      13.582 -17.809 -63.160  0.00  0.00    +0.379 N 
ATOM     24  C   UNL     1      12.274 -17.273 -63.563  0.00  0.00    -0.096 C 
ATOM     25  H   UNL     1      13.809 -18.679 -63.819  0.00  0.00    -0.082 HD
ATOM     26  C   UNL     1      14.713 -16.803 -63.316  0.00  0.00    -0.064 C 
ATOM     27  C   UNL     1      16.070 -17.425 -62.883  0.00  0.00    +0.066 C 
ENDBRANCH  19  20
ENDBRANCH  18  19
ENDBRANCH  14  15
ENDBRANCH  12  13
TORSDOF 6
ENDMDL
MODEL 2
REMARK VINA RESULT:      -8.5      1.644      2.618
REMARK  Name = C:\Users\Docking\Desktop\test protocol\1iep_ligandH.pdb
REMARK  8 active torsions:
REMARK  status: ('A' for Active; 'I' for Inactive)
REMARK    1  A    between atoms: _5  and  _11
REMARK    2  A    between atoms: _19  and  _21
REMARK    3  A    between atoms: _22  and  _66
REMARK    4  A    between atoms: _27  and  _30
REMARK    5  A    between atoms: _32  and  _33
REMARK    6  A    between atoms: _38  and  _43
REMARK    7  A    between atoms: _43  and  _46
REMARK    8  A    between atoms: _53  and  _55
REMARK                            x       y       z     vdW  Elec       q    Type
REMARK                         _______ _______ _______ _____ _____    ______ ____
ROOT
ATOM     10  C   UNL     1      21.276 -15.263 -54.146  0.00  0.00    +0.038 A 
ATOM     11  C   UNL     1      20.383 -15.460 -55.230  0.00  0.00    +0.047 A 
ATOM     12  C   UNL     1      20.120 -16.791 -55.755  0.00  0.00    +0.035 A 
ATOM     32  C   UNL     1      20.782 -17.899 -55.151  0.00  0.00    +0.024 A 
ATOM     33  C   UNL     1      21.694 -17.716 -54.049  0.00  0.00    +0.007 A 
ATOM     34  C   UNL     1      21.960 -16.406 -53.528  0.00  0.00    -0.029 A 
ATOM     35  C   UNL     1      22.952 -16.268 -52.350  0.00  0.00    +0.045 C 
ENDROOT
BRANCH  10   9
ATOM      4  C   UNL     1      19.992 -11.420 -51.572  0.00  0.00    +0.077 A 
ATOM      5  C   UNL     1      18.775 -12.044 -51.138  0.00  0.00    +0.048 A 
ATOM      6  C   UNL     1      18.514 -13.352 -51.605  0.00  0.00    +0.116 A 
ATOM      7  N   UNL     1      19.410 -13.979 -52.444  0.00  0.00    -0.223 NA
ATOM      8  C   UNL     1      20.573 -13.348 -52.845  0.00  0.00    +0.220 A 
ATOM      9  N   UNL     1      21.492 -13.963 -53.681  0.00  0.00    -0.283 N 
ATOM     36  H   UNL     1      22.335 -13.462 -53.960  0.00  0.00    +0.155 HD
ATOM     37  N   UNL     1      20.845 -12.099 -52.414  0.00  0.00    -0.214 NA
BRANCH   4   3
ATOM      1  C   UNL     1      19.915  -7.652 -50.528  0.00  0.00    +0.020 A 
ATOM      2  C   UNL     1      19.459  -8.964 -50.923  0.00  0.00    +0.013 A 
ATOM      3  C   UNL     1      20.410 -10.043 -51.162  0.00  0.00    +0.019 A 
ATOM     38  C   UNL     1      21.827  -9.758 -50.990  0.00  0.00    +0.120 A 
ATOM     39  N   UNL     1      22.237  -8.484 -50.610  0.00  0.00    -0.263 NA
ATOM     40  C   UNL     1      21.331  -7.438 -50.379  0.00  0.00    +0.111 A 
ENDBRANCH   4   3
ENDBRANCH  10   9
BRANCH  12  13
ATOM     13  N   UNL     1      19.230 -17.052 -56.859  0.00  0.00    -0.281 N 
ATOM     14  C   UNL     1      19.068 -16.310 -58.017  0.00  0.00    +0.248 C 
ATOM     30  O   UNL     1      19.515 -15.184 -58.184  0.00  0.00    -0.270 OA
ATOM     31  H   UNL     1      18.647 -17.886 -56.776  0.00  0.00    +0.155 HD
BRANCH  14  15
ATOM     15  C   UNL     1      18.285 -16.896 -59.147  0.00  0.00    +0.037 A 
ATOM     16  C   UNL     1      17.306 -17.962 -58.921  0.00  0.00    +0.013 A 
ATOM     17  C   UNL     1      16.577 -18.522 -60.031  0.00  0.00    +0.005 A 
ATOM     18  C   UNL     1      16.824 -18.014 -61.379  0.00  0.00    -0.033 A 
ATOM     28  C   UNL     1      17.797 -16.952 -61.574  0.00  0.00    +0.005 A 
ATOM     29  C   UNL     1      18.514 -16.402 -60.488  0.00  0.00    +0.013 A 
BRANCH  18  19
ATOM     19  C   UNL     1      16.107 -18.566 -62.625  0.00  0.00    +0.119 C 
BRANCH  19  20
ATOM     20  N   UNL     1      14.627 -18.382 -62.701  0.00  0.00    -0.302 NA
ATOM     21  C   UNL     1      13.981 -19.324 -63.721  0.00  0.00    +0.066 C 
ATOM     22  C   UNL     1      12.430 -19.133 -63.771  0.00  0.00    -0.064 C 
ATOM     23  N   UNL     1      12.109 -17.674 -64.102  0.00  0.00    +0.379 N 
ATOM     24  C   UNL     1      10.653 -17.504 -64.206  0.00  0.00    -0.096 C 
ATOM     25  H   UNL     1      12.549 -17.450 -65.101  0.00  0.00    -0.082 HD
ATOM     26  C   UNL     1      12.749 -16.730 -63.093  0.00  0.00    -0.064 C 
ATOM     27  C   UNL     1      14.287 -16.949 -63.030  0.00  0.00    +0.066 C 
ENDBRANCH  19  20
ENDBRANCH  18  19
ENDBRANCH  14  15
ENDBRANCH  12  13
TORSDOF 6
ENDMDL
MODEL 3
REMARK VINA RESULT:      -8.3      2.008      2.756
REMARK  Name = C:\Users\Docking\Desktop\test protocol\1iep_ligandH.pdb
REMARK  8 active torsions:
REMARK  status: ('A' for Active; 'I' for Inactive)
REMARK    1  A    between atoms: _5  and  _11
REMARK    2  A    between atoms: _19  and  _21
REMARK    3  A    between atoms: _22  and  _66
REMARK    4  A    between atoms: _27  and  _30
REMARK    5  A    between atoms: _32  and  _33
REMARK    6  A    between atoms: _38  and  _43
REMARK    7  A    between atoms: _43  and  _46
REMARK    8  A    between atoms: _53  and  _55
REMARK                            x       y       z     vdW  Elec       q    Type
REMARK                         _______ _______ _______ _____ _____    ______ ____
ROOT
ATOM     10  C   UNL     1      21.290 -14.415 -52.565  0.00  0.00    +0.038 A 
ATOM     11  C   UNL     1      20.828 -14.644 -53.886  0.00  0.00    +0.047 A 
ATOM     12  C   UNL     1      21.120 -15.888 -54.581  0.00  0.00    +0.035 A 
ATOM     32  C   UNL     1      21.883 -16.879 -53.898  0.00  0.00    +0.024 A 
ATOM     33  C   UNL     1      22.362 -16.663 -52.556  0.00  0.00    +0.007 A 
ATOM     34  C   UNL     1      22.080 -15.436 -51.867  0.00  0.00    -0.029 A 
ATOM     35  C   UNL     1      22.624 -15.256 -50.430  0.00  0.00    +0.045 C 
ENDROOT
BRANCH  10   9
ATOM      4  C   UNL     1      22.228  -9.817 -51.556  0.00  0.00    +0.077 A 
ATOM      5  C   UNL     1      23.452  -9.841 -52.303  0.00  0.00    +0.048 A 
ATOM      6  C   UNL     1      23.808 -11.058 -52.926  0.00  0.00    +0.116 A 
ATOM      7  N   UNL     1      22.993 -12.162 -52.805  0.00  0.00    -0.223 NA
ATOM      8  C   UNL     1      21.819 -12.106 -52.075  0.00  0.00    +0.220 A 
ATOM      9  N   UNL     1      20.980 -13.202 -51.946  0.00  0.00    -0.283 N 
ATOM     36  H   UNL     1      20.128 -13.121 -51.393  0.00  0.00    +0.155 HD
ATOM     37  N   UNL     1      21.458 -10.955 -51.469  0.00  0.00    -0.214 NA
BRANCH   4   3
ATOM      1  C   UNL     1      22.045  -6.422 -49.622  0.00  0.00    +0.020 A 
ATOM      2  C   UNL     1      22.591  -7.574 -50.301  0.00  0.00    +0.013 A 
ATOM      3  C   UNL     1      21.715  -8.604 -50.843  0.00  0.00    +0.019 A 
ATOM     38  C   UNL     1      20.278  -8.438 -50.680  0.00  0.00    +0.120 A 
ATOM     39  N   UNL     1      19.781  -7.319 -50.020  0.00  0.00    -0.263 NA
ATOM     40  C   UNL     1      20.615  -6.321 -49.493  0.00  0.00    +0.111 A 
ENDBRANCH   4   3
ENDBRANCH  10   9
BRANCH  12  13
ATOM     13  N   UNL     1      20.683 -16.173 -55.925  0.00  0.00    -0.281 N 
ATOM     14  C   UNL     1      20.075 -17.325 -56.397  0.00  0.00    +0.248 C 
ATOM     30  O   UNL     1      20.007 -18.375 -55.775  0.00  0.00    -0.270 OA
ATOM     31  H   UNL     1      20.843 -15.437 -56.613  0.00  0.00    +0.155 HD
BRANCH  14  15
ATOM     15  C   UNL     1      19.468 -17.314 -57.762  0.00  0.00    +0.037 A 
ATOM     16  C   UNL     1      19.066 -16.060 -58.405  0.00  0.00    +0.013 A 
ATOM     17  C   UNL     1      18.467 -16.079 -59.716  0.00  0.00    +0.005 A 
ATOM     18  C   UNL     1      18.267 -17.357 -60.394  0.00  0.00    -0.033 A 
ATOM     28  C   UNL     1      18.680 -18.586 -59.735  0.00  0.00    +0.005 A 
ATOM     29  C   UNL     1      19.266 -18.571 -58.450  0.00  0.00    +0.013 A 
BRANCH  18  19
ATOM     19  C   UNL     1      17.616 -17.473 -61.785  0.00  0.00    +0.119 C 
BRANCH  19  20
ATOM     20  N   UNL     1      18.521 -17.405 -62.971  0.00  0.00    -0.302 NA
ATOM     21  C   UNL     1      18.658 -15.978 -63.508  0.00  0.00    +0.066 C 
ATOM     22  C   UNL     1      19.626 -15.922 -64.734  0.00  0.00    -0.064 C 
ATOM     23  N   UNL     1      19.116 -16.864 -65.826  0.00  0.00    +0.379 N 
ATOM     24  C   UNL     1      19.991 -16.770 -67.003  0.00  0.00    -0.096 C 
ATOM     25  H   UNL     1      18.102 -16.513 -66.129  0.00  0.00    -0.082 HD
ATOM     26  C   UNL     1      18.974 -18.285 -65.300  0.00  0.00    -0.064 C 
ATOM     27  C   UNL     1      18.034 -18.326 -64.063  0.00  0.00    +0.066 C 
ENDBRANCH  19  20
ENDBRANCH  18  19
ENDBRANCH  14  15
ENDBRANCH  12  13
TORSDOF 6
ENDMDL
MODEL 4
REMARK VINA RESULT:      -8.1      2.800      3.995
REMARK  Name = C:\Users\Docking\Desktop\test protocol\1iep_ligandH.pdb
REMARK  8 active torsions:
REMARK  status: ('A' for Active; 'I' for Inactive)
REMARK    1  A    between atoms: _5  and  _11
REMARK    2  A    between atoms: _19  and  _21
REMARK    3  A    between atoms: _22  and  _66
REMARK    4  A    between atoms: _27  and  _30
REMARK    5  A    between atoms: _32  and  _33
REMARK    6  A    between atoms: _38  and  _43
REMARK    7  A    between atoms: _43  and  _46
REMARK    8  A    between atoms: _53  and  _55
REMARK                            x       y       z     vdW  Elec       q    Type
REMARK                         _______ _______ _______ _____ _____    ______ ____
ROOT
ATOM     10  C   UNL     1      21.077 -15.445 -54.583  0.00  0.00    +0.038 A 
ATOM     11  C   UNL     1      20.559 -15.523 -55.901  0.00  0.00    +0.047 A 
ATOM     12  C   UNL     1      20.272 -16.808 -56.521  0.00  0.00    +0.035 A 
ATOM     32  C   UNL     1      20.523 -17.992 -55.769  0.00  0.00    +0.024 A 
ATOM     33  C   UNL     1      21.051 -17.930 -54.429  0.00  0.00    +0.007 A 
ATOM     34  C   UNL     1      21.338 -16.667 -53.813  0.00  0.00    -0.029 A 
ATOM     35  C   UNL     1      21.909 -16.661 -52.376  0.00  0.00    +0.045 C 
ENDROOT
BRANCH  10   9
ATOM      4  C   UNL     1      19.962 -11.775 -51.698  0.00  0.00    +0.077 A 
ATOM      5  C   UNL     1      18.750 -12.408 -51.262  0.00  0.00    +0.048 A 
ATOM      6  C   UNL     1      18.447 -13.675 -51.810  0.00  0.00    +0.116 A 
ATOM      7  N   UNL     1      19.300 -14.255 -52.725  0.00  0.00    -0.223 NA
ATOM      8  C   UNL     1      20.459 -13.617 -53.124  0.00  0.00    +0.220 A 
ATOM      9  N   UNL     1      21.334 -14.185 -54.037  0.00  0.00    -0.283 N 
ATOM     36  H   UNL     1      22.176 -13.679 -54.311  0.00  0.00    +0.155 HD
ATOM     37  N   UNL     1      20.770 -12.406 -52.617  0.00  0.00    -0.214 NA
BRANCH   4   3
ATOM      1  C   UNL     1      22.194  -8.686 -50.820  0.00  0.00    +0.020 A 
ATOM      2  C   UNL     1      21.803  -9.988 -51.309  0.00  0.00    +0.013 A 
ATOM      3  C   UNL     1      20.421 -10.437 -51.207  0.00  0.00    +0.019 A 
ATOM     38  C   UNL     1      19.450  -9.537 -50.602  0.00  0.00    +0.120 A 
ATOM     39  N   UNL     1      19.856  -8.289 -50.139  0.00  0.00    -0.263 NA
ATOM     40  C   UNL     1      21.185  -7.847 -50.230  0.00  0.00    +0.111 A 
ENDBRANCH   4   3
ENDBRANCH  10   9
BRANCH  12  13
ATOM     13  N   UNL     1      19.752 -16.950 -57.858  0.00  0.00    -0.281 N 
ATOM     14  C   UNL     1      18.662 -17.697 -58.273  0.00  0.00    +0.248 C 
ATOM     30  O   UNL     1      18.093 -18.531 -57.585  0.00  0.00    -0.270 OA
ATOM     31  H   UNL     1      20.249 -16.438 -58.588  0.00  0.00    +0.155 HD
BRANCH  14  15
ATOM     15  C   UNL     1      18.136 -17.499 -59.658  0.00  0.00    +0.037 A 
ATOM     16  C   UNL     1      17.267 -18.495 -60.291  0.00  0.00    +0.013 A 
ATOM     17  C   UNL     1      16.788 -18.288 -61.634  0.00  0.00    +0.005 A 
ATOM     18  C   UNL     1      17.176 -17.077 -62.354  0.00  0.00    -0.033 A 
ATOM     28  C   UNL     1      18.034 -16.103 -61.701  0.00  0.00    +0.005 A 
ATOM     29  C   UNL     1      18.507 -16.303 -60.385  0.00  0.00    +0.013 A 
BRANCH  18  19
ATOM     19  C   UNL     1      16.728 -16.783 -63.799  0.00  0.00    +0.119 C 
BRANCH  19  20
ATOM     20  N   UNL     1      17.704 -17.078 -64.890  0.00  0.00    -0.302 NA
ATOM     21  C   UNL     1      18.939 -16.175 -64.816  0.00  0.00    +0.066 C 
ATOM     22  C   UNL     1      19.959 -16.512 -65.952  0.00  0.00    -0.064 C 
ATOM     23  N   UNL     1      19.270 -16.377 -67.310  0.00  0.00    +0.379 N 
ATOM     24  C   UNL     1      20.242 -16.636 -68.382  0.00  0.00    -0.096 C 
ATOM     25  H   UNL     1      18.928 -15.320 -67.412  0.00  0.00    -0.082 HD
ATOM     26  C   UNL     1      18.039 -17.269 -67.391  0.00  0.00    -0.064 C 
ATOM     27  C   UNL     1      17.045 -16.946 -66.241  0.00  0.00    +0.066 C 
ENDBRANCH  19  20
ENDBRANCH  18  19
ENDBRANCH  14  15
ENDBRANCH  12  13
TORSDOF 6
ENDMDL
MODEL 5
REMARK VINA RESULT:      -8.0     10.231     13.423
REMARK  Name = C:\Users\Docking\Desktop\test protocol\1iep_ligandH.pdb
REMARK  8 active torsions:
REMARK  status: ('A' for Active; 'I' for Inactive)
REMARK    1  A    between atoms: _5  and  _11
REMARK    2  A    between atoms: _19  and  _21
REMARK    3  A    between atoms: _22  and  _66
REMARK    4  A    between atoms: _27  and  _30
REMARK    5  A    between atoms: _32  and  _33
REMARK    6  A    between atoms: _38  and  _43
REMARK    7  A    between atoms: _43  and  _46
REMARK    8  A    between atoms: _53  and  _55
REMARK                            x       y       z     vdW  Elec       q    Type
REMARK                         _______ _______ _______ _____ _____    ______ ____
ROOT
ATOM     10  C   UNL     1      18.298 -17.013 -41.416  0.00  0.00    +0.038 A 
ATOM     11  C   UNL     1      18.104 -16.242 -42.590  0.00  0.00    +0.047 A 
ATOM     12  C   UNL     1      17.973 -16.875 -43.893  0.00  0.00    +0.035 A 
ATOM     32  C   UNL     1      18.041 -18.297 -43.963  0.00  0.00    +0.024 A 
ATOM     33  C   UNL     1      18.239 -19.097 -42.779  0.00  0.00    +0.007 A 
ATOM     34  C   UNL     1      18.372 -18.477 -41.492  0.00  0.00    -0.029 A 
ATOM     35  C   UNL     1      18.589 -19.383 -40.257  0.00  0.00    +0.045 C 
ENDROOT
BRANCH  10   9
ATOM      4  C   UNL     1      20.913 -15.006 -37.927  0.00  0.00    +0.077 A 
ATOM      5  C   UNL     1      22.146 -15.323 -38.588  0.00  0.00    +0.048 A 
ATOM      6  C   UNL     1      22.064 -16.010 -39.820  0.00  0.00    +0.116 A 
ATOM      7  N   UNL     1      20.835 -16.348 -40.343  0.00  0.00    -0.223 NA
ATOM      8  C   UNL     1      19.665 -16.029 -39.679  0.00  0.00    +0.220 A 
ATOM      9  N   UNL     1      18.418 -16.353 -40.191  0.00  0.00    -0.283 N 
ATOM     36  H   UNL     1      17.578 -16.106 -39.667  0.00  0.00    +0.155 HD
ATOM     37  N   UNL     1      19.716 -15.375 -38.500  0.00  0.00    -0.214 NA
BRANCH   4   3
ATOM      1  C   UNL     1      19.689 -13.704 -34.447  0.00  0.00    +0.020 A 
ATOM      2  C   UNL     1      19.716 -14.428 -35.697  0.00  0.00    +0.013 A 
ATOM      3  C   UNL     1      20.835 -14.280 -36.620  0.00  0.00    +0.019 A 
ATOM     38  C   UNL     1      21.920 -13.386 -36.244  0.00  0.00    +0.120 A 
ATOM     39  N   UNL     1      21.866 -12.701 -35.034  0.00  0.00    -0.263 NA
ATOM     40  C   UNL     1      20.794 -12.834 -34.139  0.00  0.00    +0.111 A 
ENDBRANCH   4   3
ENDBRANCH  10   9
BRANCH  12  13
ATOM     13  N   UNL     1      17.782 -16.144 -45.121  0.00  0.00    -0.281 N 
ATOM     14  C   UNL     1      18.279 -14.894 -45.454  0.00  0.00    +0.248 C 
ATOM     30  O   UNL     1      18.790 -14.120 -44.658  0.00  0.00    -0.270 OA
ATOM     31  H   UNL     1      17.212 -16.603 -45.831  0.00  0.00    +0.155 HD
BRANCH  14  15
ATOM     15  C   UNL     1      18.182 -14.433 -46.872  0.00  0.00    +0.037 A 
ATOM     16  C   UNL     1      17.051 -14.817 -47.720  0.00  0.00    +0.013 A 
ATOM     17  C   UNL     1      16.990 -14.372 -49.090  0.00  0.00    +0.005 A 
ATOM     18  C   UNL     1      18.065 -13.536 -49.620  0.00  0.00    -0.033 A 
ATOM     28  C   UNL     1      19.173 -13.166 -48.755  0.00  0.00    +0.005 A 
ATOM     29  C   UNL     1      19.237 -13.601 -47.412  0.00  0.00    +0.013 A 
BRANCH  18  19
ATOM     19  C   UNL     1      18.094 -13.034 -51.075  0.00  0.00    +0.119 C 
BRANCH  19  20
ATOM     20  N   UNL     1      18.014 -11.558 -51.291  0.00  0.00    -0.302 NA
ATOM     21  C   UNL     1      19.400 -10.921 -51.423  0.00  0.00    +0.066 C 
ATOM     22  C   UNL     1      19.297  -9.380 -51.670  0.00  0.00    -0.064 C 
ATOM     23  N   UNL     1      18.511  -8.735 -50.528  0.00  0.00    +0.379 N 
ATOM     24  C   UNL     1      18.462  -7.279 -50.728  0.00  0.00    -0.096 C 
ATOM     25  H   UNL     1      19.069  -8.928 -49.582  0.00  0.00    -0.082 HD
ATOM     26  C   UNL     1      17.132  -9.364 -50.388  0.00  0.00    -0.064 C 
ATOM     27  C   UNL     1      17.245 -10.899 -50.172  0.00  0.00    +0.066 C 
ENDBRANCH  19  20
ENDBRANCH  18  19
ENDBRANCH  14  15
ENDBRANCH  12  13
TORSDOF 6
ENDMDL
