MODEL 1
REMARK VINA RESULT:     -10.0      0.000      0.000
REMARK  Name = C:\Users\Docking\Desktop\test protocol\1iep_ligandH.pdb
REMARK  8 active torsions:
REMARK  status: ('A' for Active; 'I' for Inactive)
REMARK    1  A    between atoms: _5  and  _11
REMARK    2  A    between atoms: _19  and  _21
REMARK    3  A    between atoms: _22  and  _66
REMARK    4  A    between atoms: _27  and  _30
REMARK    5  A    between atoms: _32  and  _33
REMARK    6  A    between atoms: _38  and  _43
REMARK    7  A    between atoms: _43  and  _46
REMARK    8  A    between atoms: _53  and  _55
REMARK                            x       y       z     vdW  Elec       q    Type
REMARK                         _______ _______ _______ _____ _____    ______ ____
ROOT
ATOM     10  C   UNL     1       6.170  -6.821 -10.778  0.00  0.00    +0.038 A 
ATOM     11  C   UNL     1       5.250  -7.863 -11.059  0.00  0.00    +0.047 A 
ATOM     12  C   UNL     1       4.129  -7.653 -11.963  0.00  0.00    +0.035 A 
ATOM     32  C   UNL     1       3.977  -6.370 -12.565  0.00  0.00    +0.024 A 
ATOM     33  C   UNL     1       4.902  -5.300 -12.289  0.00  0.00    +0.007 A 
ATOM     34  C   UNL     1       6.008  -5.500 -11.397  0.00  0.00    -0.029 A 
ATOM     35  C   UNL     1       6.966  -4.314 -11.133  0.00  0.00    +0.045 C 
ENDROOT
BRANCH  10   9
ATOM      4  C   UNL     1       8.056  -7.051  -6.370  0.00  0.00    +0.077 A 
ATOM      5  C   UNL     1       6.839  -6.597  -5.762  0.00  0.00    +0.048 A 
ATOM      6  C   UNL     1       5.754  -6.308  -6.618  0.00  0.00    +0.116 A 
ATOM      7  N   UNL     1       5.886  -6.466  -7.981  0.00  0.00    -0.223 NA
ATOM      8  C   UNL     1       7.075  -6.904  -8.536  0.00  0.00    +0.220 A 
ATOM      9  N   UNL     1       7.228  -7.077  -9.903  0.00  0.00    -0.283 N 
ATOM     36  H   UNL     1       8.123  -7.395 -10.274  0.00  0.00    +0.155 HD
ATOM     37  N   UNL     1       8.127  -7.185  -7.739  0.00  0.00    -0.214 NA
BRANCH   4   3
ATOM      1  C   UNL     1      11.189  -8.949  -4.997  0.00  0.00    +0.020 A 
ATOM      2  C   UNL     1      10.001  -8.661  -5.768  0.00  0.00    +0.013 A 
ATOM      3  C   UNL     1       9.290  -7.400  -5.598  0.00  0.00    +0.019 A 
ATOM     38  C   UNL     1       9.812  -6.444  -4.633  0.00  0.00    +0.120 A 
ATOM     39  N   UNL     1      10.957  -6.749  -3.904  0.00  0.00    -0.263 NA
ATOM     40  C   UNL     1      11.649  -7.960  -4.058  0.00  0.00    +0.111 A 
ENDBRANCH   4   3
ENDBRANCH  10   9
BRANCH  12  13
ATOM     13  N   UNL     1       3.158  -8.671 -12.280  0.00  0.00    -0.281 N 
ATOM     14  C   UNL     1       1.869  -8.802 -11.789  0.00  0.00    +0.248 C 
ATOM     30  O   UNL     1       1.427  -8.179 -10.834  0.00  0.00    -0.270 OA
ATOM     31  H   UNL     1       3.457  -9.382 -12.947  0.00  0.00    +0.155 HD
BRANCH  14  15
ATOM     15  C   UNL     1       0.942  -9.774 -12.444  0.00  0.00    +0.037 A 
ATOM     16  C   UNL     1       1.293 -10.424 -13.709  0.00  0.00    +0.013 A 
ATOM     17  C   UNL     1       0.372 -11.345 -14.328  0.00  0.00    +0.005 A 
ATOM     18  C   UNL     1      -0.908 -11.622 -13.680  0.00  0.00    -0.033 A 
ATOM     28  C   UNL     1      -1.228 -10.967 -12.423  0.00  0.00    +0.005 A 
ATOM     29  C   UNL     1      -0.329 -10.063 -11.814  0.00  0.00    +0.013 A 
BRANCH  18  19
ATOM     19  C   UNL     1      -1.959 -12.574 -14.280  0.00  0.00    +0.119 C 
BRANCH  19  20
ATOM     20  N   UNL     1      -1.547 -13.393 -15.459  0.00  0.00    -0.302 NA
ATOM     21  C   UNL     1      -2.676 -13.533 -16.484  0.00  0.00    +0.066 C 
ATOM     22  C   UNL     1      -2.221 -14.373 -17.721  0.00  0.00    -0.064 C 
ATOM     23  N   UNL     1      -1.742 -15.748 -17.252  0.00  0.00    +0.379 N 
ATOM     24  C   UNL     1      -1.367 -16.561 -18.418  0.00  0.00    -0.096 C 
ATOM     25  H   UNL     1      -2.600 -16.252 -16.750  0.00  0.00    -0.082 HD
ATOM     26  C   UNL     1      -0.621 -15.618 -16.231  0.00  0.00    -0.064 C 
ATOM     27  C   UNL     1      -1.074 -14.756 -15.019  0.00  0.00    +0.066 C 
ENDBRANCH  19  20
ENDBRANCH  18  19
ENDBRANCH  14  15
ENDBRANCH  12  13
TORSDOF 6
ENDMDL
MODEL 2
REMARK VINA RESULT:     -10.0      7.847     14.333
REMARK  Name = C:\Users\Docking\Desktop\test protocol\1iep_ligandH.pdb
REMARK  8 active torsions:
REMARK  status: ('A' for Active; 'I' for Inactive)
REMARK    1  A    between atoms: _5  and  _11
REMARK    2  A    between atoms: _19  and  _21
REMARK    3  A    between atoms: _22  and  _66
REMARK    4  A    between atoms: _27  and  _30
REMARK    5  A    between atoms: _32  and  _33
REMARK    6  A    between atoms: _38  and  _43
REMARK    7  A    between atoms: _43  and  _46
REMARK    8  A    between atoms: _53  and  _55
REMARK                            x       y       z     vdW  Elec       q    Type
REMARK                         _______ _______ _______ _____ _____    ______ ____
ROOT
ATOM     10  C   UNL     1      15.605 -11.792  -0.734  0.00  0.00    +0.038 A 
ATOM     11  C   UNL     1      14.659 -11.317  -1.677  0.00  0.00    +0.047 A 
ATOM     12  C   UNL     1      13.695 -10.286  -1.323  0.00  0.00    +0.035 A 
ATOM     32  C   UNL     1      13.727  -9.759   0.001  0.00  0.00    +0.024 A 
ATOM     33  C   UNL     1      14.681 -10.231   0.973  0.00  0.00    +0.007 A 
ATOM     34  C   UNL     1      15.632 -11.249   0.630  0.00  0.00    -0.029 A 
ATOM     35  C   UNL     1      16.629 -11.722   1.714  0.00  0.00    +0.045 C 
ENDROOT
BRANCH  10   9
ATOM      4  C   UNL     1      19.466 -13.275  -3.169  0.00  0.00    +0.077 A 
ATOM      5  C   UNL     1      19.690 -11.971  -3.724  0.00  0.00    +0.048 A 
ATOM      6  C   UNL     1      18.785 -10.948  -3.364  0.00  0.00    +0.116 A 
ATOM      7  N   UNL     1      17.737 -11.220  -2.510  0.00  0.00    -0.223 NA
ATOM      8  C   UNL     1      17.549 -12.489  -1.994  0.00  0.00    +0.220 A 
ATOM      9  N   UNL     1      16.507 -12.783  -1.128  0.00  0.00    -0.283 N 
ATOM     36  H   UNL     1      16.398 -13.733  -0.775  0.00  0.00    +0.155 HD
ATOM     37  N   UNL     1      18.399 -13.483  -2.324  0.00  0.00    -0.214 NA
BRANCH   4   3
ATOM      1  C   UNL     1      20.709 -16.928  -3.811  0.00  0.00    +0.020 A 
ATOM      2  C   UNL     1      19.824 -15.820  -3.534  0.00  0.00    +0.013 A 
ATOM      3  C   UNL     1      20.338 -14.459  -3.453  0.00  0.00    +0.019 A 
ATOM     38  C   UNL     1      21.763 -14.251  -3.660  0.00  0.00    +0.120 A 
ATOM     39  N   UNL     1      22.591 -15.337  -3.924  0.00  0.00    -0.263 NA
ATOM     40  C   UNL     1      22.108 -16.652  -4.002  0.00  0.00    +0.111 A 
ENDBRANCH   4   3
ENDBRANCH  10   9
BRANCH  12  13
ATOM     13  N   UNL     1      12.706  -9.770  -2.235  0.00  0.00    -0.281 N 
ATOM     14  C   UNL     1      12.620  -8.493  -2.766  0.00  0.00    +0.248 C 
ATOM     30  O   UNL     1      13.263  -7.534  -2.367  0.00  0.00    -0.270 OA
ATOM     31  H   UNL     1      11.980 -10.426  -2.526  0.00  0.00    +0.155 HD
BRANCH  14  15
ATOM     15  C   UNL     1      11.671  -8.242  -3.894  0.00  0.00    +0.037 A 
ATOM     16  C   UNL     1      11.013  -6.944  -4.058  0.00  0.00    +0.013 A 
ATOM     17  C   UNL     1      10.090  -6.733  -5.145  0.00  0.00    +0.005 A 
ATOM     18  C   UNL     1       9.819  -7.826  -6.077  0.00  0.00    -0.033 A 
ATOM     28  C   UNL     1      10.490  -9.102  -5.893  0.00  0.00    +0.005 A 
ATOM     29  C   UNL     1      11.395  -9.312  -4.828  0.00  0.00    +0.013 A 
BRANCH  18  19
ATOM     19  C   UNL     1       8.833  -7.698  -7.252  0.00  0.00    +0.119 C 
BRANCH  19  20
ATOM     20  N   UNL     1       7.456  -7.209  -6.939  0.00  0.00    -0.302 NA
ATOM     21  C   UNL     1       6.773  -8.065  -5.869  0.00  0.00    +0.066 C 
ATOM     22  C   UNL     1       5.343  -7.526  -5.538  0.00  0.00    -0.064 C 
ATOM     23  N   UNL     1       4.506  -7.489  -6.818  0.00  0.00    +0.379 N 
ATOM     24  C   UNL     1       3.143  -7.039  -6.500  0.00  0.00    -0.096 C 
ATOM     25  H   UNL     1       4.435  -8.532  -7.206  0.00  0.00    -0.082 HD
ATOM     26  C   UNL     1       5.180  -6.643  -7.888  0.00  0.00    -0.064 C 
ATOM     27  C   UNL     1       6.611  -7.169  -8.189  0.00  0.00    +0.066 C 
ENDBRANCH  19  20
ENDBRANCH  18  19
ENDBRANCH  14  15
ENDBRANCH  12  13
TORSDOF 6
ENDMDL
MODEL 3
REMARK VINA RESULT:      -9.8      9.735     17.185
REMARK  Name = C:\Users\Docking\Desktop\test protocol\1iep_ligandH.pdb
REMARK  8 active torsions:
REMARK  status: ('A' for Active; 'I' for Inactive)
REMARK    1  A    between atoms: _5  and  _11
REMARK    2  A    between atoms: _19  and  _21
REMARK    3  A    between atoms: _22  and  _66
REMARK    4  A    between atoms: _27  and  _30
REMARK    5  A    between atoms: _32  and  _33
REMARK    6  A    between atoms: _38  and  _43
REMARK    7  A    between atoms: _43  and  _46
REMARK    8  A    between atoms: _53  and  _55
REMARK                            x       y       z     vdW  Elec       q    Type
REMARK                         _______ _______ _______ _____ _____    ______ ____
ROOT
ATOM     10  C   UNL     1      12.956 -12.149   5.105  0.00  0.00    +0.038 A 
ATOM     11  C   UNL     1      12.745 -11.291   3.996  0.00  0.00    +0.047 A 
ATOM     12  C   UNL     1      13.723 -11.194   2.923  0.00  0.00    +0.035 A 
ATOM     32  C   UNL     1      14.903 -11.987   3.011  0.00  0.00    +0.024 A 
ATOM     33  C   UNL     1      15.134 -12.865   4.132  0.00  0.00    +0.007 A 
ATOM     34  C   UNL     1      14.175 -12.963   5.194  0.00  0.00    -0.029 A 
ATOM     35  C   UNL     1      14.478 -13.915   6.375  0.00  0.00    +0.045 C 
ENDROOT
BRANCH  10   9
ATOM      4  C   UNL     1       8.722 -13.621   6.819  0.00  0.00    +0.077 A 
ATOM      5  C   UNL     1       8.406 -14.319   5.606  0.00  0.00    +0.048 A 
ATOM      6  C   UNL     1       9.358 -14.269   4.563  0.00  0.00    +0.116 A 
ATOM      7  N   UNL     1      10.533 -13.570   4.731  0.00  0.00    -0.223 NA
ATOM      8  C   UNL     1      10.805 -12.906   5.913  0.00  0.00    +0.220 A 
ATOM      9  N   UNL     1      11.985 -12.204   6.107  0.00  0.00    -0.283 N 
ATOM     36  H   UNL     1      12.144 -11.721   6.991  0.00  0.00    +0.155 HD
ATOM     37  N   UNL     1       9.912 -12.938   6.924  0.00  0.00    -0.214 NA
BRANCH   4   3
ATOM      1  C   UNL     1       5.546 -13.693   9.103  0.00  0.00    +0.020 A 
ATOM      2  C   UNL     1       6.373 -13.736   7.918  0.00  0.00    +0.013 A 
ATOM      3  C   UNL     1       7.819 -13.584   8.013  0.00  0.00    +0.019 A 
ATOM     38  C   UNL     1       8.403 -13.389   9.332  0.00  0.00    +0.120 A 
ATOM     39  N   UNL     1       7.582 -13.350  10.455  0.00  0.00    -0.263 NA
ATOM     40  C   UNL     1       6.188 -13.494  10.375  0.00  0.00    +0.111 A 
ENDBRANCH   4   3
ENDBRANCH  10   9
BRANCH  12  13
ATOM     13  N   UNL     1      13.567 -10.334   1.777  0.00  0.00    -0.281 N 
ATOM     14  C   UNL     1      14.032 -10.539   0.488  0.00  0.00    +0.248 C 
ATOM     30  O   UNL     1      14.842 -11.399   0.175  0.00  0.00    -0.270 OA
ATOM     31  H   UNL     1      13.050  -9.468   1.934  0.00  0.00    +0.155 HD
BRANCH  14  15
ATOM     15  C   UNL     1      13.538  -9.653  -0.609  0.00  0.00    +0.037 A 
ATOM     16  C   UNL     1      13.415  -8.205  -0.419  0.00  0.00    +0.013 A 
ATOM     17  C   UNL     1      12.919  -7.375  -1.487  0.00  0.00    +0.005 A 
ATOM     18  C   UNL     1      12.543  -7.991  -2.757  0.00  0.00    -0.033 A 
ATOM     28  C   UNL     1      12.679  -9.429  -2.920  0.00  0.00    +0.005 A 
ATOM     29  C   UNL     1      13.164 -10.246  -1.875  0.00  0.00    +0.013 A 
BRANCH  18  19
ATOM     19  C   UNL     1      11.984  -7.185  -3.945  0.00  0.00    +0.119 C 
BRANCH  19  20
ATOM     20  N   UNL     1      10.647  -7.587  -4.475  0.00  0.00    -0.302 NA
ATOM     21  C   UNL     1      10.751  -8.260  -5.846  0.00  0.00    +0.066 C 
ATOM     22  C   UNL     1       9.346  -8.694  -6.376  0.00  0.00    -0.064 C 
ATOM     23  N   UNL     1       8.429  -7.472  -6.442  0.00  0.00    +0.379 N 
ATOM     24  C   UNL     1       7.125  -7.866  -6.994  0.00  0.00    -0.096 C 
ATOM     25  H   UNL     1       8.889  -6.742  -7.148  0.00  0.00    -0.082 HD
ATOM     26  C   UNL     1       8.321  -6.794  -5.083  0.00  0.00    -0.064 C 
ATOM     27  C   UNL     1       9.726  -6.394  -4.552  0.00  0.00    +0.066 C 
ENDBRANCH  19  20
ENDBRANCH  18  19
ENDBRANCH  14  15
ENDBRANCH  12  13
TORSDOF 6
ENDMDL
MODEL 4
REMARK VINA RESULT:      -9.8     10.299     14.321
REMARK  Name = C:\Users\Docking\Desktop\test protocol\1iep_ligandH.pdb
REMARK  8 active torsions:
REMARK  status: ('A' for Active; 'I' for Inactive)
REMARK    1  A    between atoms: _5  and  _11
REMARK    2  A    between atoms: _19  and  _21
REMARK    3  A    between atoms: _22  and  _66
REMARK    4  A    between atoms: _27  and  _30
REMARK    5  A    between atoms: _32  and  _33
REMARK    6  A    between atoms: _38  and  _43
REMARK    7  A    between atoms: _43  and  _46
REMARK    8  A    between atoms: _53  and  _55
REMARK                            x       y       z     vdW  Elec       q    Type
REMARK                         _______ _______ _______ _____ _____    ______ ____
ROOT
ATOM     10  C   UNL     1      -2.978 -11.356  -7.709  0.00  0.00    +0.038 A 
ATOM     11  C   UNL     1      -4.226 -11.848  -7.250  0.00  0.00    +0.047 A 
ATOM     12  C   UNL     1      -4.733 -11.502  -5.931  0.00  0.00    +0.035 A 
ATOM     32  C   UNL     1      -3.943 -10.648  -5.106  0.00  0.00    +0.024 A 
ATOM     33  C   UNL     1      -2.671 -10.140  -5.557  0.00  0.00    +0.007 A 
ATOM     34  C   UNL     1      -2.165 -10.480  -6.856  0.00  0.00    -0.029 A 
ATOM     35  C   UNL     1      -0.792  -9.911  -7.284  0.00  0.00    +0.045 C 
ENDROOT
BRANCH  10   9
ATOM      4  C   UNL     1      -2.201 -10.408 -12.349  0.00  0.00    +0.077 A 
ATOM      5  C   UNL     1      -2.738  -9.083 -12.230  0.00  0.00    +0.048 A 
ATOM      6  C   UNL     1      -3.211  -8.687 -10.958  0.00  0.00    +0.116 A 
ATOM      7  N   UNL     1      -3.145  -9.559  -9.893  0.00  0.00    -0.223 NA
ATOM      8  C   UNL     1      -2.622 -10.830 -10.043  0.00  0.00    +0.220 A 
ATOM      9  N   UNL     1      -2.539 -11.721  -8.984  0.00  0.00    -0.283 N 
ATOM     36  H   UNL     1      -2.154 -12.652  -9.137  0.00  0.00    +0.155 HD
ATOM     37  N   UNL     1      -2.166 -11.233 -11.247  0.00  0.00    -0.214 NA
BRANCH   4   3
ATOM      1  C   UNL     1      -0.995 -12.895 -15.117  0.00  0.00    +0.020 A 
ATOM      2  C   UNL     1      -1.523 -12.403 -13.866  0.00  0.00    +0.013 A 
ATOM      3  C   UNL     1      -1.660 -10.971 -13.626  0.00  0.00    +0.019 A 
ATOM     38  C   UNL     1      -1.250 -10.058 -14.682  0.00  0.00    +0.120 A 
ATOM     39  N   UNL     1      -0.743 -10.561 -15.876  0.00  0.00    -0.263 NA
ATOM     40  C   UNL     1      -0.605 -11.936 -16.117  0.00  0.00    +0.111 A 
ENDBRANCH   4   3
ENDBRANCH  10   9
BRANCH  12  13
ATOM     13  N   UNL     1      -5.989 -11.978  -5.408  0.00  0.00    -0.281 N 
ATOM     14  C   UNL     1      -7.261 -11.749  -5.906  0.00  0.00    +0.248 C 
ATOM     30  O   UNL     1      -7.529 -10.918  -6.761  0.00  0.00    -0.270 OA
ATOM     31  H   UNL     1      -5.934 -12.554  -4.568  0.00  0.00    +0.155 HD
BRANCH  14  15
ATOM     15  C   UNL     1      -8.403 -12.549  -5.367  0.00  0.00    +0.037 A 
ATOM     16  C   UNL     1      -8.238 -13.958  -5.003  0.00  0.00    +0.013 A 
ATOM     17  C   UNL     1      -9.360 -14.711  -4.501  0.00  0.00    +0.005 A 
ATOM     18  C   UNL     1     -10.658 -14.055  -4.360  0.00  0.00    -0.033 A 
ATOM     28  C   UNL     1     -10.792 -12.654  -4.724  0.00  0.00    +0.005 A 
ATOM     29  C   UNL     1      -9.695 -11.913  -5.217  0.00  0.00    +0.013 A 
BRANCH  18  19
ATOM     19  C   UNL     1     -11.915 -14.786  -3.853  0.00  0.00    +0.119 C 
BRANCH  19  20
ATOM     20  N   UNL     1     -12.542 -14.278  -2.597  0.00  0.00    -0.302 NA
ATOM     21  C   UNL     1     -11.817 -14.784  -1.347  0.00  0.00    +0.066 C 
ATOM     22  C   UNL     1     -12.473 -14.224  -0.042  0.00  0.00    -0.064 C 
ATOM     23  N   UNL     1     -13.950 -14.618  -0.008  0.00  0.00    +0.379 N 
ATOM     24  C   UNL     1     -14.556 -14.143   1.244  0.00  0.00    -0.096 C 
ATOM     25  H   UNL     1     -14.003 -15.732  -0.009  0.00  0.00    -0.082 HD
ATOM     26  C   UNL     1     -14.678 -14.121  -1.249  0.00  0.00    -0.064 C 
ATOM     27  C   UNL     1     -14.001 -14.659  -2.540  0.00  0.00    +0.066 C 
ENDBRANCH  19  20
ENDBRANCH  18  19
ENDBRANCH  14  15
ENDBRANCH  12  13
TORSDOF 6
ENDMDL
MODEL 5
REMARK VINA RESULT:      -9.7     10.819     14.652
REMARK  Name = C:\Users\Docking\Desktop\test protocol\1iep_ligandH.pdb
REMARK  8 active torsions:
REMARK  status: ('A' for Active; 'I' for Inactive)
REMARK    1  A    between atoms: _5  and  _11
REMARK    2  A    between atoms: _19  and  _21
REMARK    3  A    between atoms: _22  and  _66
REMARK    4  A    between atoms: _27  and  _30
REMARK    5  A    between atoms: _32  and  _33
REMARK    6  A    between atoms: _38  and  _43
REMARK    7  A    between atoms: _43  and  _46
REMARK    8  A    between atoms: _53  and  _55
REMARK                            x       y       z     vdW  Elec       q    Type
REMARK                         _______ _______ _______ _____ _____    ______ ____
ROOT
ATOM     10  C   UNL     1      -3.522 -11.462  -7.073  0.00  0.00    +0.038 A 
ATOM     11  C   UNL     1      -4.824 -11.990  -6.880  0.00  0.00    +0.047 A 
ATOM     12  C   UNL     1      -5.596 -11.671  -5.689  0.00  0.00    +0.035 A 
ATOM     32  C   UNL     1      -5.012 -10.808  -4.716  0.00  0.00    +0.024 A 
ATOM     33  C   UNL     1      -3.689 -10.263  -4.896  0.00  0.00    +0.007 A 
ATOM     34  C   UNL     1      -2.922 -10.577  -6.068  0.00  0.00    -0.029 A 
ATOM     35  C   UNL     1      -1.506  -9.969  -6.205  0.00  0.00    +0.045 C 
ENDROOT
BRANCH  10   9
ATOM      4  C   UNL     1      -2.125 -10.582 -11.580  0.00  0.00    +0.077 A 
ATOM      5  C   UNL     1      -2.867  -9.355 -11.633  0.00  0.00    +0.048 A 
ATOM      6  C   UNL     1      -3.601  -8.990 -10.483  0.00  0.00    +0.116 A 
ATOM      7  N   UNL     1      -3.586  -9.799  -9.367  0.00  0.00    -0.223 NA
ATOM      8  C   UNL     1      -2.861 -10.977  -9.349  0.00  0.00    +0.220 A 
ATOM      9  N   UNL     1      -2.825 -11.801  -8.235  0.00  0.00    -0.283 N 
ATOM     36  H   UNL     1      -2.284 -12.665  -8.265  0.00  0.00    +0.155 HD
ATOM     37  N   UNL     1      -2.153 -11.348 -10.436  0.00  0.00    -0.214 NA
BRANCH   4   3
ATOM      1  C   UNL     1       0.850 -11.253 -14.030  0.00  0.00    +0.020 A 
ATOM      2  C   UNL     1       0.095 -10.723 -12.918  0.00  0.00    +0.013 A 
ATOM      3  C   UNL     1      -1.297 -11.101 -12.715  0.00  0.00    +0.019 A 
ATOM     38  C   UNL     1      -1.901 -12.026 -13.662  0.00  0.00    +0.120 A 
ATOM     39  N   UNL     1      -1.150 -12.520 -14.724  0.00  0.00    -0.263 NA
ATOM     40  C   UNL     1       0.190 -12.161 -14.931  0.00  0.00    +0.111 A 
ENDBRANCH   4   3
ENDBRANCH  10   9
BRANCH  12  13
ATOM     13  N   UNL     1      -6.919 -12.183  -5.434  0.00  0.00    -0.281 N 
ATOM     14  C   UNL     1      -7.391 -13.467  -5.651  0.00  0.00    +0.248 C 
ATOM     30  O   UNL     1      -6.803 -14.319  -6.301  0.00  0.00    -0.270 OA
ATOM     31  H   UNL     1      -7.589 -11.519  -5.047  0.00  0.00    +0.155 HD
BRANCH  14  15
ATOM     15  C   UNL     1      -8.715 -13.857  -5.076  0.00  0.00    +0.037 A 
ATOM     16  C   UNL     1      -9.003 -15.245  -4.705  0.00  0.00    +0.013 A 
ATOM     17  C   UNL     1     -10.293 -15.596  -4.168  0.00  0.00    +0.005 A 
ATOM     18  C   UNL     1     -11.306 -14.557  -3.997  0.00  0.00    -0.033 A 
ATOM     28  C   UNL     1     -10.991 -13.187  -4.369  0.00  0.00    +0.005 A 
ATOM     29  C   UNL     1      -9.728 -12.839  -4.897  0.00  0.00    +0.013 A 
BRANCH  18  19
ATOM     19  C   UNL     1     -12.717 -14.845  -3.451  0.00  0.00    +0.119 C 
BRANCH  19  20
ATOM     20  N   UNL     1     -13.076 -14.244  -2.132  0.00  0.00    -0.302 NA
ATOM     21  C   UNL     1     -12.102 -14.661  -1.027  0.00  0.00    +0.066 C 
ATOM     22  C   UNL     1     -12.480 -14.005   0.341  0.00  0.00    -0.064 C 
ATOM     23  N   UNL     1     -13.914 -14.388   0.709  0.00  0.00    +0.379 N 
ATOM     24  C   UNL     1     -14.252 -13.821   2.023  0.00  0.00    -0.096 C 
ATOM     25  H   UNL     1     -13.954 -15.499   0.800  0.00  0.00    -0.082 HD
ATOM     26  C   UNL     1     -14.888 -13.979  -0.386  0.00  0.00    -0.064 C 
ATOM     27  C   UNL     1     -14.487 -14.613  -1.747  0.00  0.00    +0.066 C 
ENDBRANCH  19  20
ENDBRANCH  18  19
ENDBRANCH  14  15
ENDBRANCH  12  13
TORSDOF 6
ENDMDL
