MODEL 1
REMARK VINA RESULT:     -10.2      0.000      0.000
REMARK  Name = C:\Users\Docking\Desktop\test protocol\1iep_ligandH.pdb
REMARK  8 active torsions:
REMARK  status: ('A' for Active; 'I' for Inactive)
REMARK    1  A    between atoms: _5  and  _11
REMARK    2  A    between atoms: _19  and  _21
REMARK    3  A    between atoms: _22  and  _66
REMARK    4  A    between atoms: _27  and  _30
REMARK    5  A    between atoms: _32  and  _33
REMARK    6  A    between atoms: _38  and  _43
REMARK    7  A    between atoms: _43  and  _46
REMARK    8  A    between atoms: _53  and  _55
REMARK                            x       y       z     vdW  Elec       q    Type
REMARK                         _______ _______ _______ _____ _____    ______ ____
ROOT
ATOM     10  C   UNL     1      12.975 -12.179   5.134  0.00  0.00    +0.038 A 
ATOM     11  C   UNL     1      12.767 -11.307   4.035  0.00  0.00    +0.047 A 
ATOM     12  C   UNL     1      13.744 -11.203   2.962  0.00  0.00    +0.035 A 
ATOM     32  C   UNL     1      14.921 -12.003   3.040  0.00  0.00    +0.024 A 
ATOM     33  C   UNL     1      15.148 -12.894   4.151  0.00  0.00    +0.007 A 
ATOM     34  C   UNL     1      14.189 -12.999   5.213  0.00  0.00    -0.029 A 
ATOM     35  C   UNL     1      14.489 -13.966   6.382  0.00  0.00    +0.045 C 
ENDROOT
BRANCH  10   9
ATOM      4  C   UNL     1       8.714 -13.611   6.818  0.00  0.00    +0.077 A 
ATOM      5  C   UNL     1       8.384 -14.271   5.588  0.00  0.00    +0.048 A 
ATOM      6  C   UNL     1       9.334 -14.213   4.544  0.00  0.00    +0.116 A 
ATOM      7  N   UNL     1      10.524 -13.542   4.728  0.00  0.00    -0.223 NA
ATOM      8  C   UNL     1      10.810 -12.914   5.926  0.00  0.00    +0.220 A 
ATOM      9  N   UNL     1      12.003 -12.240   6.136  0.00  0.00    -0.283 N 
ATOM     36  H   UNL     1      12.174 -11.783   7.032  0.00  0.00    +0.155 HD
ATOM     37  N   UNL     1       9.918 -12.954   6.938  0.00  0.00    -0.214 NA
BRANCH   4   3
ATOM      1  C   UNL     1       5.573 -13.882   9.133  0.00  0.00    +0.020 A 
ATOM      2  C   UNL     1       6.398 -13.921   7.947  0.00  0.00    +0.013 A 
ATOM      3  C   UNL     1       7.815 -13.587   8.014  0.00  0.00    +0.019 A 
ATOM     38  C   UNL     1       8.370 -13.215   9.307  0.00  0.00    +0.120 A 
ATOM     39  N   UNL     1       7.551 -13.185  10.431  0.00  0.00    -0.263 NA
ATOM     40  C   UNL     1       6.186 -13.503  10.378  0.00  0.00    +0.111 A 
ENDBRANCH   4   3
ENDBRANCH  10   9
BRANCH  12  13
ATOM     13  N   UNL     1      13.591 -10.329   1.825  0.00  0.00    -0.281 N 
ATOM     14  C   UNL     1      13.966 -10.566   0.513  0.00  0.00    +0.248 C 
ATOM     30  O   UNL     1      14.687 -11.485   0.155  0.00  0.00    -0.270 OA
ATOM     31  H   UNL     1      13.153  -9.427   2.010  0.00  0.00    +0.155 HD
BRANCH  14  15
ATOM     15  C   UNL     1      13.480  -9.640  -0.555  0.00  0.00    +0.037 A 
ATOM     16  C   UNL     1      13.334  -8.203  -0.307  0.00  0.00    +0.013 A 
ATOM     17  C   UNL     1      12.848  -7.335  -1.349  0.00  0.00    +0.005 A 
ATOM     18  C   UNL     1      12.505  -7.901  -2.652  0.00  0.00    -0.033 A 
ATOM     28  C   UNL     1      12.665  -9.329  -2.873  0.00  0.00    +0.005 A 
ATOM     29  C   UNL     1      13.140 -10.184  -1.853  0.00  0.00    +0.013 A 
BRANCH  18  19
ATOM     19  C   UNL     1      11.959  -7.053  -3.815  0.00  0.00    +0.119 C 
BRANCH  19  20
ATOM     20  N   UNL     1      10.614  -7.415  -4.354  0.00  0.00    -0.302 NA
ATOM     21  C   UNL     1      10.709  -8.104  -5.718  0.00  0.00    +0.066 C 
ATOM     22  C   UNL     1       9.294  -8.497  -6.256  0.00  0.00    -0.064 C 
ATOM     23  N   UNL     1       8.418  -7.246  -6.340  0.00  0.00    +0.379 N 
ATOM     24  C   UNL     1       7.106  -7.603  -6.901  0.00  0.00    -0.096 C 
ATOM     25  H   UNL     1       8.908  -6.538  -7.049  0.00  0.00    -0.082 HD
ATOM     26  C   UNL     1       8.321  -6.553  -4.989  0.00  0.00    -0.064 C 
ATOM     27  C   UNL     1       9.734  -6.194  -4.449  0.00  0.00    +0.066 C 
ENDBRANCH  19  20
ENDBRANCH  18  19
ENDBRANCH  14  15
ENDBRANCH  12  13
TORSDOF 6
ENDMDL
MODEL 2
REMARK VINA RESULT:     -10.2      6.817     10.232
REMARK  Name = C:\Users\Docking\Desktop\test protocol\1iep_ligandH.pdb
REMARK  8 active torsions:
REMARK  status: ('A' for Active; 'I' for Inactive)
REMARK    1  A    between atoms: _5  and  _11
REMARK    2  A    between atoms: _19  and  _21
REMARK    3  A    between atoms: _22  and  _66
REMARK    4  A    between atoms: _27  and  _30
REMARK    5  A    between atoms: _32  and  _33
REMARK    6  A    between atoms: _38  and  _43
REMARK    7  A    between atoms: _43  and  _46
REMARK    8  A    between atoms: _53  and  _55
REMARK                            x       y       z     vdW  Elec       q    Type
REMARK                         _______ _______ _______ _____ _____    ______ ____
ROOT
ATOM     10  C   UNL     1      15.390 -11.219  -0.986  0.00  0.00    +0.038 A 
ATOM     11  C   UNL     1      14.389 -10.830  -1.912  0.00  0.00    +0.047 A 
ATOM     12  C   UNL     1      13.455  -9.758  -1.605  0.00  0.00    +0.035 A 
ATOM     32  C   UNL     1      13.570  -9.102  -0.345  0.00  0.00    +0.024 A 
ATOM     33  C   UNL     1      14.580  -9.486   0.610  0.00  0.00    +0.007 A 
ATOM     34  C   UNL     1      15.503 -10.544   0.313  0.00  0.00    -0.029 A 
ATOM     35  C   UNL     1      16.562 -10.918   1.376  0.00  0.00    +0.045 C 
ENDROOT
BRANCH  10   9
ATOM      4  C   UNL     1      19.334 -12.884  -3.154  0.00  0.00    +0.077 A 
ATOM      5  C   UNL     1      19.675 -11.586  -3.662  0.00  0.00    +0.048 A 
ATOM      6  C   UNL     1      18.805 -10.518  -3.348  0.00  0.00    +0.116 A 
ATOM      7  N   UNL     1      17.681 -10.743  -2.582  0.00  0.00    -0.223 NA
ATOM      8  C   UNL     1      17.381 -12.007  -2.110  0.00  0.00    +0.220 A 
ATOM      9  N   UNL     1      16.260 -12.255  -1.333  0.00  0.00    -0.283 N 
ATOM     36  H   UNL     1      16.070 -13.203  -1.010  0.00  0.00    +0.155 HD
ATOM     37  N   UNL     1      18.195 -13.044  -2.398  0.00  0.00    -0.214 NA
BRANCH   4   3
ATOM      1  C   UNL     1      20.421 -16.604  -3.686  0.00  0.00    +0.020 A 
ATOM      2  C   UNL     1      19.583 -15.452  -3.447  0.00  0.00    +0.013 A 
ATOM      3  C   UNL     1      20.156 -14.112  -3.398  0.00  0.00    +0.019 A 
ATOM     38  C   UNL     1      21.590 -13.972  -3.597  0.00  0.00    +0.120 A 
ATOM     39  N   UNL     1      22.372 -15.101  -3.824  0.00  0.00    -0.263 NA
ATOM     40  C   UNL     1      21.833 -16.395  -3.871  0.00  0.00    +0.111 A 
ENDBRANCH   4   3
ENDBRANCH  10   9
BRANCH  12  13
ATOM     13  N   UNL     1      12.413  -9.325  -2.503  0.00  0.00    -0.281 N 
ATOM     14  C   UNL     1      12.376  -8.173  -3.272  0.00  0.00    +0.248 C 
ATOM     30  O   UNL     1      13.143  -7.230  -3.141  0.00  0.00    -0.270 OA
ATOM     31  H   UNL     1      11.605  -9.942  -2.582  0.00  0.00    +0.155 HD
BRANCH  14  15
ATOM     15  C   UNL     1      11.328  -8.044  -4.329  0.00  0.00    +0.037 A 
ATOM     16  C   UNL     1      10.566  -6.804  -4.496  0.00  0.00    +0.013 A 
ATOM     17  C   UNL     1       9.548  -6.711  -5.513  0.00  0.00    +0.005 A 
ATOM     18  C   UNL     1       9.288  -7.864  -6.372  0.00  0.00    -0.033 A 
ATOM     28  C   UNL     1      10.063  -9.080  -6.188  0.00  0.00    +0.005 A 
ATOM     29  C   UNL     1      11.060  -9.174  -5.192  0.00  0.00    +0.013 A 
BRANCH  18  19
ATOM     19  C   UNL     1       8.207  -7.862  -7.469  0.00  0.00    +0.119 C 
BRANCH  19  20
ATOM     20  N   UNL     1       6.875  -7.286  -7.116  0.00  0.00    -0.302 NA
ATOM     21  C   UNL     1       6.238  -8.004  -5.922  0.00  0.00    +0.066 C 
ATOM     22  C   UNL     1       4.855  -7.375  -5.552  0.00  0.00    -0.064 C 
ATOM     23  N   UNL     1       3.932  -7.425  -6.770  0.00  0.00    +0.379 N 
ATOM     24  C   UNL     1       2.613  -6.886  -6.409  0.00  0.00    -0.096 C 
ATOM     25  H   UNL     1       3.796  -8.496  -7.048  0.00  0.00    -0.082 HD
ATOM     26  C   UNL     1       4.560  -6.716  -7.962  0.00  0.00    -0.064 C 
ATOM     27  C   UNL     1       5.946  -7.330  -8.304  0.00  0.00    +0.066 C 
ENDBRANCH  19  20
ENDBRANCH  18  19
ENDBRANCH  14  15
ENDBRANCH  12  13
TORSDOF 6
ENDMDL
MODEL 3
REMARK VINA RESULT:     -10.2     10.272     17.316
REMARK  Name = C:\Users\Docking\Desktop\test protocol\1iep_ligandH.pdb
REMARK  8 active torsions:
REMARK  status: ('A' for Active; 'I' for Inactive)
REMARK    1  A    between atoms: _5  and  _11
REMARK    2  A    between atoms: _19  and  _21
REMARK    3  A    between atoms: _22  and  _66
REMARK    4  A    between atoms: _27  and  _30
REMARK    5  A    between atoms: _32  and  _33
REMARK    6  A    between atoms: _38  and  _43
REMARK    7  A    between atoms: _43  and  _46
REMARK    8  A    between atoms: _53  and  _55
REMARK                            x       y       z     vdW  Elec       q    Type
REMARK                         _______ _______ _______ _____ _____    ______ ____
ROOT
ATOM     10  C   UNL     1       5.997  -6.485 -10.775  0.00  0.00    +0.038 A 
ATOM     11  C   UNL     1       5.134  -7.584 -11.015  0.00  0.00    +0.047 A 
ATOM     12  C   UNL     1       3.900  -7.422 -11.768  0.00  0.00    +0.035 A 
ATOM     32  C   UNL     1       3.576  -6.125 -12.262  0.00  0.00    +0.024 A 
ATOM     33  C   UNL     1       4.441  -4.996 -12.026  0.00  0.00    +0.007 A 
ATOM     34  C   UNL     1       5.659  -5.150 -11.283  0.00  0.00    -0.029 A 
ATOM     35  C   UNL     1       6.545  -3.903 -11.054  0.00  0.00    +0.045 C 
ENDROOT
BRANCH  10   9
ATOM      4  C   UNL     1       8.329  -7.418  -6.684  0.00  0.00    +0.077 A 
ATOM      5  C   UNL     1       7.110  -7.457  -5.929  0.00  0.00    +0.048 A 
ATOM      6  C   UNL     1       5.905  -7.225  -6.630  0.00  0.00    +0.116 A 
ATOM      7  N   UNL     1       5.929  -6.974  -7.984  0.00  0.00    -0.223 NA
ATOM      8  C   UNL     1       7.122  -6.941  -8.682  0.00  0.00    +0.220 A 
ATOM      9  N   UNL     1       7.170  -6.698 -10.046  0.00  0.00    -0.283 N 
ATOM     36  H   UNL     1       8.071  -6.675 -10.524  0.00  0.00    +0.155 HD
ATOM     37  N   UNL     1       8.287  -7.158  -8.036  0.00  0.00    -0.214 NA
BRANCH   4   3
ATOM      1  C   UNL     1      11.479  -9.131  -5.122  0.00  0.00    +0.020 A 
ATOM      2  C   UNL     1      10.163  -8.965  -5.694  0.00  0.00    +0.013 A 
ATOM      3  C   UNL     1       9.683  -7.646  -6.087  0.00  0.00    +0.019 A 
ATOM     38  C   UNL     1      10.566  -6.508  -5.888  0.00  0.00    +0.120 A 
ATOM     39  N   UNL     1      11.828  -6.698  -5.333  0.00  0.00    -0.263 NA
ATOM     40  C   UNL     1      12.300  -7.962  -4.949  0.00  0.00    +0.111 A 
ENDBRANCH   4   3
ENDBRANCH  10   9
BRANCH  12  13
ATOM     13  N   UNL     1       2.981  -8.500 -12.036  0.00  0.00    -0.281 N 
ATOM     14  C   UNL     1       1.671  -8.629 -11.605  0.00  0.00    +0.248 C 
ATOM     30  O   UNL     1       1.156  -7.936 -10.740  0.00  0.00    -0.270 OA
ATOM     31  H   UNL     1       3.339  -9.259 -12.615  0.00  0.00    +0.155 HD
BRANCH  14  15
ATOM     15  C   UNL     1       0.813  -9.692 -12.211  0.00  0.00    +0.037 A 
ATOM     16  C   UNL     1       1.205 -10.371 -13.449  0.00  0.00    +0.013 A 
ATOM     17  C   UNL     1       0.350 -11.381 -14.022  0.00  0.00    +0.005 A 
ATOM     18  C   UNL     1      -0.905 -11.719 -13.356  0.00  0.00    -0.033 A 
ATOM     28  C   UNL     1      -1.267 -11.034 -12.126  0.00  0.00    +0.005 A 
ATOM     29  C   UNL     1      -0.433 -10.043 -11.562  0.00  0.00    +0.013 A 
BRANCH  18  19
ATOM     19  C   UNL     1      -1.889 -12.768 -13.907  0.00  0.00    +0.119 C 
BRANCH  19  20
ATOM     20  N   UNL     1      -1.515 -13.453 -15.180  0.00  0.00    -0.302 NA
ATOM     21  C   UNL     1      -2.624 -13.358 -16.231  0.00  0.00    +0.066 C 
ATOM     22  C   UNL     1      -2.207 -14.060 -17.564  0.00  0.00    -0.064 C 
ATOM     23  N   UNL     1      -1.855 -15.521 -17.279  0.00  0.00    +0.379 N 
ATOM     24  C   UNL     1      -1.518 -16.200 -18.540  0.00  0.00    -0.096 C 
ATOM     25  H   UNL     1      -2.765 -16.013 -16.863  0.00  0.00    -0.082 HD
ATOM     26  C   UNL     1      -0.754 -15.625 -16.233  0.00  0.00    -0.064 C 
ATOM     27  C   UNL     1      -1.167 -14.899 -14.923  0.00  0.00    +0.066 C 
ENDBRANCH  19  20
ENDBRANCH  18  19
ENDBRANCH  14  15
ENDBRANCH  12  13
TORSDOF 6
ENDMDL
MODEL 4
REMARK VINA RESULT:     -10.2     16.883     22.965
REMARK  Name = C:\Users\Docking\Desktop\test protocol\1iep_ligandH.pdb
REMARK  8 active torsions:
REMARK  status: ('A' for Active; 'I' for Inactive)
REMARK    1  A    between atoms: _5  and  _11
REMARK    2  A    between atoms: _19  and  _21
REMARK    3  A    between atoms: _22  and  _66
REMARK    4  A    between atoms: _27  and  _30
REMARK    5  A    between atoms: _32  and  _33
REMARK    6  A    between atoms: _38  and  _43
REMARK    7  A    between atoms: _43  and  _46
REMARK    8  A    between atoms: _53  and  _55
REMARK                            x       y       z     vdW  Elec       q    Type
REMARK                         _______ _______ _______ _____ _____    ______ ____
ROOT
ATOM     10  C   UNL     1      -3.592 -11.474  -7.005  0.00  0.00    +0.038 A 
ATOM     11  C   UNL     1      -4.900 -11.991  -6.823  0.00  0.00    +0.047 A 
ATOM     12  C   UNL     1      -5.677 -11.674  -5.635  0.00  0.00    +0.035 A 
ATOM     32  C   UNL     1      -5.090 -10.824  -4.652  0.00  0.00    +0.024 A 
ATOM     33  C   UNL     1      -3.761 -10.291  -4.819  0.00  0.00    +0.007 A 
ATOM     34  C   UNL     1      -2.990 -10.602  -5.989  0.00  0.00    -0.029 A 
ATOM     35  C   UNL     1      -1.568 -10.007  -6.113  0.00  0.00    +0.045 C 
ENDROOT
BRANCH  10   9
ATOM      4  C   UNL     1      -2.171 -10.580 -11.501  0.00  0.00    +0.077 A 
ATOM      5  C   UNL     1      -2.909  -9.350 -11.553  0.00  0.00    +0.048 A 
ATOM      6  C   UNL     1      -3.647  -8.987 -10.403  0.00  0.00    +0.116 A 
ATOM      7  N   UNL     1      -3.640  -9.801  -9.291  0.00  0.00    -0.223 NA
ATOM      8  C   UNL     1      -2.919 -10.981  -9.275  0.00  0.00    +0.220 A 
ATOM      9  N   UNL     1      -2.891 -11.811  -8.165  0.00  0.00    -0.283 N 
ATOM     36  H   UNL     1      -2.354 -12.676  -8.196  0.00  0.00    +0.155 HD
ATOM     37  N   UNL     1      -2.208 -11.350 -10.361  0.00  0.00    -0.214 NA
BRANCH   4   3
ATOM      1  C   UNL     1      -1.014 -12.485 -14.715  0.00  0.00    +0.020 A 
ATOM      2  C   UNL     1      -1.858 -12.016 -13.640  0.00  0.00    +0.013 A 
ATOM      3  C   UNL     1      -1.341 -11.097 -12.634  0.00  0.00    +0.019 A 
ATOM     38  C   UNL     1       0.045 -10.668 -12.746  0.00  0.00    +0.120 A 
ATOM     39  N   UNL     1       0.834 -11.138 -13.791  0.00  0.00    -0.263 NA
ATOM     40  C   UNL     1       0.348 -12.024 -14.764  0.00  0.00    +0.111 A 
ENDBRANCH   4   3
ENDBRANCH  10   9
BRANCH  12  13
ATOM     13  N   UNL     1      -7.006 -12.176  -5.392  0.00  0.00    -0.281 N 
ATOM     14  C   UNL     1      -7.480 -13.462  -5.591  0.00  0.00    +0.248 C 
ATOM     30  O   UNL     1      -6.885 -14.329  -6.214  0.00  0.00    -0.270 OA
ATOM     31  H   UNL     1      -7.680 -11.501  -5.029  0.00  0.00    +0.155 HD
BRANCH  14  15
ATOM     15  C   UNL     1      -8.815 -13.835  -5.031  0.00  0.00    +0.037 A 
ATOM     16  C   UNL     1      -9.128 -15.220  -4.670  0.00  0.00    +0.013 A 
ATOM     17  C   UNL     1     -10.428 -15.555  -4.147  0.00  0.00    +0.005 A 
ATOM     18  C   UNL     1     -11.426 -14.501  -3.980  0.00  0.00    -0.033 A 
ATOM     28  C   UNL     1     -11.088 -13.134  -4.341  0.00  0.00    +0.005 A 
ATOM     29  C   UNL     1      -9.814 -12.802  -4.855  0.00  0.00    +0.013 A 
BRANCH  18  19
ATOM     19  C   UNL     1     -12.847 -14.771  -3.449  0.00  0.00    +0.119 C 
BRANCH  19  20
ATOM     20  N   UNL     1     -13.197 -14.203  -2.113  0.00  0.00    -0.302 NA
ATOM     21  C   UNL     1     -12.203 -14.630  -1.029  0.00  0.00    +0.066 C 
ATOM     22  C   UNL     1     -12.571 -14.008   0.357  0.00  0.00    -0.064 C 
ATOM     23  N   UNL     1     -13.995 -14.420   0.735  0.00  0.00    +0.379 N 
ATOM     24  C   UNL     1     -14.324 -13.885   2.065  0.00  0.00    -0.096 C 
ATOM     25  H   UNL     1     -14.019 -15.532   0.803  0.00  0.00    -0.082 HD
ATOM     26  C   UNL     1     -14.990 -14.001  -0.339  0.00  0.00    -0.064 C 
ATOM     27  C   UNL     1     -14.598 -14.600  -1.718  0.00  0.00    +0.066 C 
ENDBRANCH  19  20
ENDBRANCH  18  19
ENDBRANCH  14  15
ENDBRANCH  12  13
TORSDOF 6
ENDMDL
MODEL 5
REMARK VINA RESULT:     -10.1     16.977     22.623
REMARK  Name = C:\Users\Docking\Desktop\test protocol\1iep_ligandH.pdb
REMARK  8 active torsions:
REMARK  status: ('A' for Active; 'I' for Inactive)
REMARK    1  A    between atoms: _5  and  _11
REMARK    2  A    between atoms: _19  and  _21
REMARK    3  A    between atoms: _22  and  _66
REMARK    4  A    between atoms: _27  and  _30
REMARK    5  A    between atoms: _32  and  _33
REMARK    6  A    between atoms: _38  and  _43
REMARK    7  A    between atoms: _43  and  _46
REMARK    8  A    between atoms: _53  and  _55
REMARK                            x       y       z     vdW  Elec       q    Type
REMARK                         _______ _______ _______ _____ _____    ______ ____
ROOT
ATOM     10  C   UNL     1      -3.040 -11.417  -7.577  0.00  0.00    +0.038 A 
ATOM     11  C   UNL     1      -4.265 -11.964  -7.116  0.00  0.00    +0.047 A 
ATOM     12  C   UNL     1      -4.842 -11.553  -5.846  0.00  0.00    +0.035 A 
ATOM     32  C   UNL     1      -4.147 -10.580  -5.071  0.00  0.00    +0.024 A 
ATOM     33  C   UNL     1      -2.900 -10.014  -5.523  0.00  0.00    +0.007 A 
ATOM     34  C   UNL     1      -2.325 -10.417  -6.774  0.00  0.00    -0.029 A 
ATOM     35  C   UNL     1      -0.983  -9.782  -7.207  0.00  0.00    +0.045 C 
ENDROOT
BRANCH  10   9
ATOM      4  C   UNL     1      -2.050 -10.731 -12.223  0.00  0.00    +0.077 A 
ATOM      5  C   UNL     1      -2.619  -9.414 -12.211  0.00  0.00    +0.048 A 
ATOM      6  C   UNL     1      -3.162  -8.953 -10.991  0.00  0.00    +0.116 A 
ATOM      7  N   UNL     1      -3.133  -9.758  -9.872  0.00  0.00    -0.223 NA
ATOM      8  C   UNL     1      -2.579 -11.024  -9.919  0.00  0.00    +0.220 A 
ATOM      9  N   UNL     1      -2.531 -11.847  -8.804  0.00  0.00    -0.283 N 
ATOM     36  H   UNL     1      -2.121 -12.777  -8.881  0.00  0.00    +0.155 HD
ATOM     37  N   UNL     1      -2.055 -11.488 -11.072  0.00  0.00    -0.214 NA
BRANCH   4   3
ATOM      1  C   UNL     1       0.242 -11.406 -15.320  0.00  0.00    +0.020 A 
ATOM      2  C   UNL     1      -0.316 -10.760 -14.155  0.00  0.00    +0.013 A 
ATOM      3  C   UNL     1      -1.434 -11.358 -13.435  0.00  0.00    +0.019 A 
ATOM     38  C   UNL     1      -1.968 -12.620 -13.924  0.00  0.00    +0.120 A 
ATOM     39  N   UNL     1      -1.410 -13.219 -15.050  0.00  0.00    -0.263 NA
ATOM     40  C   UNL     1      -0.336 -12.652 -15.751  0.00  0.00    +0.111 A 
ENDBRANCH   4   3
ENDBRANCH  10   9
BRANCH  12  13
ATOM     13  N   UNL     1      -6.078 -12.080  -5.323  0.00  0.00    -0.281 N 
ATOM     14  C   UNL     1      -7.354 -11.936  -5.844  0.00  0.00    +0.248 C 
ATOM     30  O   UNL     1      -7.654 -11.148  -6.729  0.00  0.00    -0.270 OA
ATOM     31  H   UNL     1      -6.004 -12.626  -4.465  0.00  0.00    +0.155 HD
BRANCH  14  15
ATOM     15  C   UNL     1      -8.458 -12.779  -5.294  0.00  0.00    +0.037 A 
ATOM     16  C   UNL     1      -9.784 -12.215  -5.027  0.00  0.00    +0.013 A 
ATOM     17  C   UNL     1     -10.827 -13.046  -4.480  0.00  0.00    +0.005 A 
ATOM     18  C   UNL     1     -10.548 -14.452  -4.197  0.00  0.00    -0.033 A 
ATOM     28  C   UNL     1      -9.225 -14.987  -4.476  0.00  0.00    +0.005 A 
ATOM     29  C   UNL     1      -8.200 -14.175  -5.012  0.00  0.00    +0.013 A 
BRANCH  18  19
ATOM     19  C   UNL     1     -11.594 -15.408  -3.594  0.00  0.00    +0.119 C 
BRANCH  19  20
ATOM     20  N   UNL     1     -11.717 -15.435  -2.105  0.00  0.00    -0.302 NA
ATOM     21  C   UNL     1     -12.549 -14.263  -1.576  0.00  0.00    +0.066 C 
ATOM     22  C   UNL     1     -12.686 -14.319  -0.020  0.00  0.00    -0.064 C 
ATOM     23  N   UNL     1     -11.293 -14.324   0.612  0.00  0.00    +0.379 N 
ATOM     24  C   UNL     1     -11.419 -14.318   2.077  0.00  0.00    -0.096 C 
ATOM     25  H   UNL     1     -10.783 -13.379   0.313  0.00  0.00    -0.082 HD
ATOM     26  C   UNL     1     -10.459 -15.485   0.090  0.00  0.00    -0.064 C 
ATOM     27  C   UNL     1     -10.353 -15.436  -1.460  0.00  0.00    +0.066 C 
ENDBRANCH  19  20
ENDBRANCH  18  19
ENDBRANCH  14  15
ENDBRANCH  12  13
TORSDOF 6
ENDMDL
