MODEL 1
REMARK VINA RESULT:     -10.0      0.000      0.000
REMARK  Name = C:\Users\Docking\Desktop\test protocol\1iep_ligandH.pdb
REMARK  8 active torsions:
REMARK  status: ('A' for Active; 'I' for Inactive)
REMARK    1  A    between atoms: _5  and  _11
REMARK    2  A    between atoms: _19  and  _21
REMARK    3  A    between atoms: _22  and  _66
REMARK    4  A    between atoms: _27  and  _30
REMARK    5  A    between atoms: _32  and  _33
REMARK    6  A    between atoms: _38  and  _43
REMARK    7  A    between atoms: _43  and  _46
REMARK    8  A    between atoms: _53  and  _55
REMARK                            x       y       z     vdW  Elec       q    Type
REMARK                         _______ _______ _______ _____ _____    ______ ____
ROOT
ATOM     10  C   UNL     1      15.530 -11.823  -0.885  0.00  0.00    +0.038 A 
ATOM     11  C   UNL     1      14.589 -11.314  -1.816  0.00  0.00    +0.047 A 
ATOM     12  C   UNL     1      13.623 -10.296  -1.431  0.00  0.00    +0.035 A 
ATOM     32  C   UNL     1      13.646  -9.818  -0.088  0.00  0.00    +0.024 A 
ATOM     33  C   UNL     1      14.595 -10.326   0.872  0.00  0.00    +0.007 A 
ATOM     34  C   UNL     1      15.548 -11.331   0.497  0.00  0.00    -0.029 A 
ATOM     35  C   UNL     1      16.538 -11.843   1.570  0.00  0.00    +0.045 C 
ENDROOT
BRANCH  10   9
ATOM      4  C   UNL     1      19.581 -13.173  -3.077  0.00  0.00    +0.077 A 
ATOM      5  C   UNL     1      19.910 -11.821  -3.430  0.00  0.00    +0.048 A 
ATOM      6  C   UNL     1      19.007 -10.809  -3.034  0.00  0.00    +0.116 A 
ATOM      7  N   UNL     1      17.863 -11.136  -2.338  0.00  0.00    -0.223 NA
ATOM      8  C   UNL     1      17.575 -12.449  -2.016  0.00  0.00    +0.220 A 
ATOM      9  N   UNL     1      16.434 -12.799  -1.310  0.00  0.00    -0.283 N 
ATOM     36  H   UNL     1      16.253 -13.780  -1.098  0.00  0.00    +0.155 HD
ATOM     37  N   UNL     1      18.420 -13.434  -2.384  0.00  0.00    -0.214 NA
BRANCH   4   3
ATOM      1  C   UNL     1      20.801 -16.823  -3.774  0.00  0.00    +0.020 A 
ATOM      2  C   UNL     1      19.933 -15.719  -3.434  0.00  0.00    +0.013 A 
ATOM      3  C   UNL     1      20.437 -14.352  -3.422  0.00  0.00    +0.019 A 
ATOM     38  C   UNL     1      21.835 -14.133  -3.761  0.00  0.00    +0.120 A 
ATOM     39  N   UNL     1      22.647 -15.216  -4.083  0.00  0.00    -0.263 NA
ATOM     40  C   UNL     1      22.174 -16.536  -4.097  0.00  0.00    +0.111 A 
ENDBRANCH   4   3
ENDBRANCH  10   9
BRANCH  12  13
ATOM     13  N   UNL     1      12.639  -9.747  -2.330  0.00  0.00    -0.281 N 
ATOM     14  C   UNL     1      12.592  -8.470  -2.864  0.00  0.00    +0.248 C 
ATOM     30  O   UNL     1      13.277  -7.534  -2.479  0.00  0.00    -0.270 OA
ATOM     31  H   UNL     1      11.886 -10.377  -2.606  0.00  0.00    +0.155 HD
BRANCH  14  15
ATOM     15  C   UNL     1      11.636  -8.188  -3.978  0.00  0.00    +0.037 A 
ATOM     16  C   UNL     1      11.042  -6.860  -4.151  0.00  0.00    +0.013 A 
ATOM     17  C   UNL     1      10.109  -6.620  -5.224  0.00  0.00    +0.005 A 
ATOM     18  C   UNL     1       9.767  -7.711  -6.133  0.00  0.00    -0.033 A 
ATOM     28  C   UNL     1      10.375  -9.017  -5.942  0.00  0.00    +0.005 A 
ATOM     29  C   UNL     1      11.289  -9.256  -4.891  0.00  0.00    +0.013 A 
BRANCH  18  19
ATOM     19  C   UNL     1       8.765  -7.550  -7.292  0.00  0.00    +0.119 C 
BRANCH  19  20
ATOM     20  N   UNL     1       7.381  -7.111  -6.944  0.00  0.00    -0.302 NA
ATOM     21  C   UNL     1       6.731  -8.031  -5.906  0.00  0.00    +0.066 C 
ATOM     22  C   UNL     1       5.292  -7.545  -5.537  0.00  0.00    -0.064 C 
ATOM     23  N   UNL     1       4.440  -7.472  -6.805  0.00  0.00    +0.379 N 
ATOM     24  C   UNL     1       3.070  -7.071  -6.453  0.00  0.00    -0.096 C 
ATOM     25  H   UNL     1       4.391  -8.498  -7.238  0.00  0.00    -0.082 HD
ATOM     26  C   UNL     1       5.080  -6.562  -7.844  0.00  0.00    -0.064 C 
ATOM     27  C   UNL     1       6.521  -7.037  -8.182  0.00  0.00    +0.066 C 
ENDBRANCH  19  20
ENDBRANCH  18  19
ENDBRANCH  14  15
ENDBRANCH  12  13
TORSDOF 6
ENDMDL
MODEL 2
REMARK VINA RESULT:      -9.9      6.551     10.201
REMARK  Name = C:\Users\Docking\Desktop\test protocol\1iep_ligandH.pdb
REMARK  8 active torsions:
REMARK  status: ('A' for Active; 'I' for Inactive)
REMARK    1  A    between atoms: _5  and  _11
REMARK    2  A    between atoms: _19  and  _21
REMARK    3  A    between atoms: _22  and  _66
REMARK    4  A    between atoms: _27  and  _30
REMARK    5  A    between atoms: _32  and  _33
REMARK    6  A    between atoms: _38  and  _43
REMARK    7  A    between atoms: _43  and  _46
REMARK    8  A    between atoms: _53  and  _55
REMARK                            x       y       z     vdW  Elec       q    Type
REMARK                         _______ _______ _______ _____ _____    ______ ____
ROOT
ATOM     10  C   UNL     1      13.032 -12.153   5.137  0.00  0.00    +0.038 A 
ATOM     11  C   UNL     1      12.807 -11.286   4.038  0.00  0.00    +0.047 A 
ATOM     12  C   UNL     1      13.761 -11.195   2.944  0.00  0.00    +0.035 A 
ATOM     32  C   UNL     1      14.934 -12.004   3.001  0.00  0.00    +0.024 A 
ATOM     33  C   UNL     1      15.179 -12.890   4.112  0.00  0.00    +0.007 A 
ATOM     34  C   UNL     1      14.242 -12.982   5.195  0.00  0.00    -0.029 A 
ATOM     35  C   UNL     1      14.559 -13.945   6.363  0.00  0.00    +0.045 C 
ENDROOT
BRANCH  10   9
ATOM      4  C   UNL     1       8.832 -13.609   6.948  0.00  0.00    +0.077 A 
ATOM      5  C   UNL     1       8.489 -14.310   5.745  0.00  0.00    +0.048 A 
ATOM      6  C   UNL     1       9.417 -14.266   4.681  0.00  0.00    +0.116 A 
ATOM      7  N   UNL     1      10.598 -13.569   4.821  0.00  0.00    -0.223 NA
ATOM      8  C   UNL     1      10.897 -12.902   5.995  0.00  0.00    +0.220 A 
ATOM      9  N   UNL     1      12.082 -12.201   6.160  0.00  0.00    -0.283 N 
ATOM     36  H   UNL     1      12.262 -11.716   7.039  0.00  0.00    +0.155 HD
ATOM     37  N   UNL     1      10.026 -12.928   7.025  0.00  0.00    -0.214 NA
BRANCH   4   3
ATOM      1  C   UNL     1       5.754 -13.133   9.315  0.00  0.00    +0.020 A 
ATOM      2  C   UNL     1       6.557 -13.158   8.114  0.00  0.00    +0.013 A 
ATOM      3  C   UNL     1       7.955 -13.564   8.162  0.00  0.00    +0.019 A 
ATOM     38  C   UNL     1       8.516 -13.943   9.450  0.00  0.00    +0.120 A 
ATOM     39  N   UNL     1       7.719 -13.908  10.590  0.00  0.00    -0.263 NA
ATOM     40  C   UNL     1       6.372 -13.517  10.557  0.00  0.00    +0.111 A 
ENDBRANCH   4   3
ENDBRANCH  10   9
BRANCH  12  13
ATOM     13  N   UNL     1      13.591 -10.326   1.806  0.00  0.00    -0.281 N 
ATOM     14  C   UNL     1      14.008 -10.539   0.502  0.00  0.00    +0.248 C 
ATOM     30  O   UNL     1      14.784 -11.419   0.160  0.00  0.00    -0.270 OA
ATOM     31  H   UNL     1      13.103  -9.448   1.983  0.00  0.00    +0.155 HD
BRANCH  14  15
ATOM     15  C   UNL     1      13.501  -9.635  -0.575  0.00  0.00    +0.037 A 
ATOM     16  C   UNL     1      13.294  -8.206  -0.332  0.00  0.00    +0.013 A 
ATOM     17  C   UNL     1      12.788  -7.359  -1.383  0.00  0.00    +0.005 A 
ATOM     18  C   UNL     1      12.487  -7.941  -2.689  0.00  0.00    -0.033 A 
ATOM     28  C   UNL     1      12.707  -9.362  -2.904  0.00  0.00    +0.005 A 
ATOM     29  C   UNL     1      13.201 -10.195  -1.876  0.00  0.00    +0.013 A 
BRANCH  18  19
ATOM     19  C   UNL     1      11.924  -7.118  -3.862  0.00  0.00    +0.119 C 
BRANCH  19  20
ATOM     20  N   UNL     1      10.615  -7.551  -4.436  0.00  0.00    -0.302 NA
ATOM     21  C   UNL     1      10.782  -8.227  -5.800  0.00  0.00    +0.066 C 
ATOM     22  C   UNL     1       9.405  -8.695  -6.376  0.00  0.00    -0.064 C 
ATOM     23  N   UNL     1       8.464  -7.493  -6.478  0.00  0.00    +0.379 N 
ATOM     24  C   UNL     1       7.188  -7.919  -7.073  0.00  0.00    -0.096 C 
ATOM     25  H   UNL     1       8.931  -6.756  -7.171  0.00  0.00    -0.082 HD
ATOM     26  C   UNL     1       8.295  -6.814  -5.126  0.00  0.00    -0.064 C 
ATOM     27  C   UNL     1       9.671  -6.380  -4.550  0.00  0.00    +0.066 C 
ENDBRANCH  19  20
ENDBRANCH  18  19
ENDBRANCH  14  15
ENDBRANCH  12  13
TORSDOF 6
ENDMDL
MODEL 3
REMARK VINA RESULT:      -9.8     17.280     21.986
REMARK  Name = C:\Users\Docking\Desktop\test protocol\1iep_ligandH.pdb
REMARK  8 active torsions:
REMARK  status: ('A' for Active; 'I' for Inactive)
REMARK    1  A    between atoms: _5  and  _11
REMARK    2  A    between atoms: _19  and  _21
REMARK    3  A    between atoms: _22  and  _66
REMARK    4  A    between atoms: _27  and  _30
REMARK    5  A    between atoms: _32  and  _33
REMARK    6  A    between atoms: _38  and  _43
REMARK    7  A    between atoms: _43  and  _46
REMARK    8  A    between atoms: _53  and  _55
REMARK                            x       y       z     vdW  Elec       q    Type
REMARK                         _______ _______ _______ _____ _____    ______ ____
ROOT
ATOM     10  C   UNL     1      -3.642 -11.456  -7.034  0.00  0.00    +0.038 A 
ATOM     11  C   UNL     1      -4.952 -11.973  -6.859  0.00  0.00    +0.047 A 
ATOM     12  C   UNL     1      -5.738 -11.647  -5.680  0.00  0.00    +0.035 A 
ATOM     32  C   UNL     1      -5.161 -10.789  -4.699  0.00  0.00    +0.024 A 
ATOM     33  C   UNL     1      -3.831 -10.255  -4.860  0.00  0.00    +0.007 A 
ATOM     34  C   UNL     1      -3.050 -10.576  -6.020  0.00  0.00    -0.029 A 
ATOM     35  C   UNL     1      -1.627  -9.981  -6.136  0.00  0.00    +0.045 C 
ENDROOT
BRANCH  10   9
ATOM      4  C   UNL     1      -2.176 -10.593 -11.522  0.00  0.00    +0.077 A 
ATOM      5  C   UNL     1      -2.910  -9.362 -11.588  0.00  0.00    +0.048 A 
ATOM      6  C   UNL     1      -3.657  -8.990 -10.448  0.00  0.00    +0.116 A 
ATOM      7  N   UNL     1      -3.663  -9.797  -9.331  0.00  0.00    -0.223 NA
ATOM      8  C   UNL     1      -2.946 -10.979  -9.301  0.00  0.00    +0.220 A 
ATOM      9  N   UNL     1      -2.932 -11.802  -8.185  0.00  0.00    -0.283 N 
ATOM     36  H   UNL     1      -2.396 -12.669  -8.206  0.00  0.00    +0.155 HD
ATOM     37  N   UNL     1      -2.226 -11.357 -10.377  0.00  0.00    -0.214 NA
BRANCH   4   3
ATOM      1  C   UNL     1      -0.975 -12.567 -14.677  0.00  0.00    +0.020 A 
ATOM      2  C   UNL     1      -1.827 -12.092 -13.612  0.00  0.00    +0.013 A 
ATOM      3  C   UNL     1      -1.336 -11.119 -12.644  0.00  0.00    +0.019 A 
ATOM     38  C   UNL     1       0.032 -10.644 -12.783  0.00  0.00    +0.120 A 
ATOM     39  N   UNL     1       0.830 -11.121 -13.819  0.00  0.00    -0.263 NA
ATOM     40  C   UNL     1       0.369 -12.058 -14.755  0.00  0.00    +0.111 A 
ENDBRANCH   4   3
ENDBRANCH  10   9
BRANCH  12  13
ATOM     13  N   UNL     1      -7.070 -12.148  -5.445  0.00  0.00    -0.281 N 
ATOM     14  C   UNL     1      -7.527 -13.448  -5.583  0.00  0.00    +0.248 C 
ATOM     30  O   UNL     1      -6.908 -14.343  -6.139  0.00  0.00    -0.270 OA
ATOM     31  H   UNL     1      -7.759 -11.460  -5.139  0.00  0.00    +0.155 HD
BRANCH  14  15
ATOM     15  C   UNL     1      -8.873 -13.802  -5.038  0.00  0.00    +0.037 A 
ATOM     16  C   UNL     1      -9.204 -15.180  -4.667  0.00  0.00    +0.013 A 
ATOM     17  C   UNL     1     -10.516 -15.497  -4.160  0.00  0.00    +0.005 A 
ATOM     18  C   UNL     1     -11.506 -14.432  -4.019  0.00  0.00    -0.033 A 
ATOM     28  C   UNL     1     -11.149 -13.073  -4.389  0.00  0.00    +0.005 A 
ATOM     29  C   UNL     1      -9.865 -12.759  -4.888  0.00  0.00    +0.013 A 
BRANCH  18  19
ATOM     19  C   UNL     1     -12.936 -14.683  -3.505  0.00  0.00    +0.119 C 
BRANCH  19  20
ATOM     20  N   UNL     1     -13.282 -14.147  -2.155  0.00  0.00    -0.302 NA
ATOM     21  C   UNL     1     -12.280 -14.593  -1.086  0.00  0.00    +0.066 C 
ATOM     22  C   UNL     1     -12.644 -14.005   0.316  0.00  0.00    -0.064 C 
ATOM     23  N   UNL     1     -14.063 -14.433   0.692  0.00  0.00    +0.379 N 
ATOM     24  C   UNL     1     -14.387 -13.931   2.035  0.00  0.00    -0.096 C 
ATOM     25  H   UNL     1     -14.080 -15.547   0.735  0.00  0.00    -0.082 HD
ATOM     26  C   UNL     1     -15.066 -13.997  -0.366  0.00  0.00    -0.064 C 
ATOM     27  C   UNL     1     -14.678 -14.562  -1.761  0.00  0.00    +0.066 C 
ENDBRANCH  19  20
ENDBRANCH  18  19
ENDBRANCH  14  15
ENDBRANCH  12  13
TORSDOF 6
ENDMDL
MODEL 4
REMARK VINA RESULT:      -9.7      3.221     14.000
REMARK  Name = C:\Users\Docking\Desktop\test protocol\1iep_ligandH.pdb
REMARK  8 active torsions:
REMARK  status: ('A' for Active; 'I' for Inactive)
REMARK    1  A    between atoms: _5  and  _11
REMARK    2  A    between atoms: _19  and  _21
REMARK    3  A    between atoms: _22  and  _66
REMARK    4  A    between atoms: _27  and  _30
REMARK    5  A    between atoms: _32  and  _33
REMARK    6  A    between atoms: _38  and  _43
REMARK    7  A    between atoms: _43  and  _46
REMARK    8  A    between atoms: _53  and  _55
REMARK                            x       y       z     vdW  Elec       q    Type
REMARK                         _______ _______ _______ _____ _____    ______ ____
ROOT
ATOM     10  C   UNL     1       6.818  -7.268  -6.576  0.00  0.00    +0.038 A 
ATOM     11  C   UNL     1       7.863  -7.739  -5.739  0.00  0.00    +0.047 A 
ATOM     12  C   UNL     1       9.215  -7.215  -5.857  0.00  0.00    +0.035 A 
ATOM     32  C   UNL     1       9.467  -6.210  -6.835  0.00  0.00    +0.024 A 
ATOM     33  C   UNL     1       8.418  -5.721  -7.694  0.00  0.00    +0.007 A 
ATOM     34  C   UNL     1       7.083  -6.236  -7.585  0.00  0.00    -0.029 A 
ATOM     35  C   UNL     1       5.998  -5.679  -8.536  0.00  0.00    +0.045 C 
ENDROOT
BRANCH  10   9
ATOM      4  C   UNL     1       2.582  -7.531  -4.335  0.00  0.00    +0.077 A 
ATOM      5  C   UNL     1       2.959  -6.532  -3.378  0.00  0.00    +0.048 A 
ATOM      6  C   UNL     1       4.255  -5.980  -3.493  0.00  0.00    +0.116 A 
ATOM      7  N   UNL     1       5.101  -6.404  -4.494  0.00  0.00    -0.223 NA
ATOM      8  C   UNL     1       4.707  -7.371  -5.400  0.00  0.00    +0.220 A 
ATOM      9  N   UNL     1       5.539  -7.806  -6.420  0.00  0.00    -0.283 N 
ATOM     36  H   UNL     1       5.213  -8.527  -7.063  0.00  0.00    +0.155 HD
ATOM     37  N   UNL     1       3.475  -7.914  -5.311  0.00  0.00    -0.214 NA
BRANCH   4   3
ATOM      1  C   UNL     1      -0.277 -10.143  -4.890  0.00  0.00    +0.020 A 
ATOM      2  C   UNL     1       1.034  -9.536  -4.904  0.00  0.00    +0.013 A 
ATOM      3  C   UNL     1       1.245  -8.206  -4.347  0.00  0.00    +0.019 A 
ATOM     38  C   UNL     1       0.100  -7.512  -3.779  0.00  0.00    +0.120 A 
ATOM     39  N   UNL     1      -1.151  -8.120  -3.781  0.00  0.00    -0.263 NA
ATOM     40  C   UNL     1      -1.367  -9.399  -4.315  0.00  0.00    +0.111 A 
ENDBRANCH   4   3
ENDBRANCH  10   9
BRANCH  12  13
ATOM     13  N   UNL     1      10.317  -7.660  -5.041  0.00  0.00    -0.281 N 
ATOM     14  C   UNL     1      11.092  -8.797  -5.204  0.00  0.00    +0.248 C 
ATOM     30  O   UNL     1      10.817  -9.719  -5.956  0.00  0.00    -0.270 OA
ATOM     31  H   UNL     1      10.554  -7.066  -4.247  0.00  0.00    +0.155 HD
BRANCH  14  15
ATOM     15  C   UNL     1      12.348  -8.935  -4.404  0.00  0.00    +0.037 A 
ATOM     16  C   UNL     1      13.664  -8.722  -5.013  0.00  0.00    +0.013 A 
ATOM     17  C   UNL     1      14.859  -8.879  -4.223  0.00  0.00    +0.005 A 
ATOM     18  C   UNL     1      14.744  -9.248  -2.814  0.00  0.00    -0.033 A 
ATOM     28  C   UNL     1      13.426  -9.448  -2.235  0.00  0.00    +0.005 A 
ATOM     29  C   UNL     1      12.252  -9.297  -3.006  0.00  0.00    +0.013 A 
BRANCH  18  19
ATOM     19  C   UNL     1      15.967  -9.457  -1.902  0.00  0.00    +0.119 C 
BRANCH  19  20
ATOM     20  N   UNL     1      15.941 -10.634  -0.983  0.00  0.00    -0.302 NA
ATOM     21  C   UNL     1      16.673 -10.352   0.332  0.00  0.00    +0.066 C 
ATOM     22  C   UNL     1      16.617 -11.585   1.291  0.00  0.00    -0.064 C 
ATOM     23  N   UNL     1      17.218 -12.803   0.587  0.00  0.00    +0.379 N 
ATOM     24  C   UNL     1      17.219 -13.950   1.507  0.00  0.00    -0.096 C 
ATOM     25  H   UNL     1      18.279 -12.563   0.344  0.00  0.00    -0.082 HD
ATOM     26  C   UNL     1      16.498 -13.089  -0.722  0.00  0.00    -0.064 C 
ATOM     27  C   UNL     1      16.534 -11.847  -1.656  0.00  0.00    +0.066 C 
ENDBRANCH  19  20
ENDBRANCH  18  19
ENDBRANCH  14  15
ENDBRANCH  12  13
TORSDOF 6
ENDMDL
MODEL 5
REMARK VINA RESULT:      -9.6      3.867      6.314
REMARK  Name = C:\Users\Docking\Desktop\test protocol\1iep_ligandH.pdb
REMARK  8 active torsions:
REMARK  status: ('A' for Active; 'I' for Inactive)
REMARK    1  A    between atoms: _5  and  _11
REMARK    2  A    between atoms: _19  and  _21
REMARK    3  A    between atoms: _22  and  _66
REMARK    4  A    between atoms: _27  and  _30
REMARK    5  A    between atoms: _32  and  _33
REMARK    6  A    between atoms: _38  and  _43
REMARK    7  A    between atoms: _43  and  _46
REMARK    8  A    between atoms: _53  and  _55
REMARK                            x       y       z     vdW  Elec       q    Type
REMARK                         _______ _______ _______ _____ _____    ______ ____
ROOT
ATOM     10  C   UNL     1      13.906  -9.966  -2.428  0.00  0.00    +0.038 A 
ATOM     11  C   UNL     1      12.653  -9.442  -2.835  0.00  0.00    +0.047 A 
ATOM     12  C   UNL     1      12.536  -8.604  -4.018  0.00  0.00    +0.035 A 
ATOM     32  C   UNL     1      13.716  -8.322  -4.765  0.00  0.00    +0.024 A 
ATOM     33  C   UNL     1      14.999  -8.845  -4.365  0.00  0.00    +0.007 A 
ATOM     34  C   UNL     1      15.121  -9.670  -3.198  0.00  0.00    -0.029 A 
ATOM     35  C   UNL     1      16.522 -10.199  -2.812  0.00  0.00    +0.045 C 
ENDROOT
BRANCH  10   9
ATOM      4  C   UNL     1      14.031 -10.533   2.337  0.00  0.00    +0.077 A 
ATOM      5  C   UNL     1      14.014  -9.117   2.565  0.00  0.00    +0.048 A 
ATOM      6  C   UNL     1      13.979  -8.277   1.430  0.00  0.00    +0.116 A 
ATOM      7  N   UNL     1      13.964  -8.824   0.165  0.00  0.00    -0.223 NA
ATOM      8  C   UNL     1      13.984 -10.194  -0.021  0.00  0.00    +0.220 A 
ATOM      9  N   UNL     1      13.961 -10.765  -1.284  0.00  0.00    -0.283 N 
ATOM     36  H   UNL     1      13.984 -11.780  -1.378  0.00  0.00    +0.155 HD
ATOM     37  N   UNL     1      14.018 -11.017   1.048  0.00  0.00    -0.214 NA
BRANCH   4   3
ATOM      1  C   UNL     1      15.232 -12.807   5.285  0.00  0.00    +0.020 A 
ATOM      2  C   UNL     1      15.253 -11.814   4.235  0.00  0.00    +0.013 A 
ATOM      3  C   UNL     1      14.064 -11.550   3.435  0.00  0.00    +0.019 A 
ATOM     38  C   UNL     1      12.860 -12.314   3.724  0.00  0.00    +0.120 A 
ATOM     39  N   UNL     1      12.869 -13.265   4.740  0.00  0.00    -0.263 NA
ATOM     40  C   UNL     1      14.008 -13.529   5.516  0.00  0.00    +0.111 A 
ENDBRANCH   4   3
ENDBRANCH  10   9
BRANCH  12  13
ATOM     13  N   UNL     1      11.291  -8.038  -4.475  0.00  0.00    -0.281 N 
ATOM     14  C   UNL     1      10.383  -8.585  -5.367  0.00  0.00    +0.248 C 
ATOM     30  O   UNL     1      10.608  -9.556  -6.074  0.00  0.00    -0.270 OA
ATOM     31  H   UNL     1      11.051  -7.122  -4.096  0.00  0.00    +0.155 HD
BRANCH  14  15
ATOM     15  C   UNL     1       9.035  -7.953  -5.503  0.00  0.00    +0.037 A 
ATOM     16  C   UNL     1       8.685  -6.740  -4.759  0.00  0.00    +0.013 A 
ATOM     17  C   UNL     1       7.372  -6.161  -4.896  0.00  0.00    +0.005 A 
ATOM     18  C   UNL     1       6.399  -6.795  -5.782  0.00  0.00    -0.033 A 
ATOM     28  C   UNL     1       6.774  -7.995  -6.512  0.00  0.00    +0.005 A 
ATOM     29  C   UNL     1       8.060  -8.566  -6.380  0.00  0.00    +0.013 A 
BRANCH  18  19
ATOM     19  C   UNL     1       4.968  -6.259  -5.973  0.00  0.00    +0.119 C 
BRANCH  19  20
ATOM     20  N   UNL     1       3.843  -7.154  -5.571  0.00  0.00    -0.302 NA
ATOM     21  C   UNL     1       2.698  -7.131  -6.588  0.00  0.00    +0.066 C 
ATOM     22  C   UNL     1       1.539  -8.091  -6.163  0.00  0.00    -0.064 C 
ATOM     23  N   UNL     1       1.037  -7.695  -4.773  0.00  0.00    +0.379 N 
ATOM     24  C   UNL     1      -0.091  -8.558  -4.395  0.00  0.00    -0.096 C 
ATOM     25  H   UNL     1       0.656  -6.649  -4.837  0.00  0.00    -0.082 HD
ATOM     26  C   UNL     1       2.169  -7.713  -3.756  0.00  0.00    -0.064 C 
ATOM     27  C   UNL     1       3.328  -6.778  -4.203  0.00  0.00    +0.066 C 
ENDBRANCH  19  20
ENDBRANCH  18  19
ENDBRANCH  14  15
ENDBRANCH  12  13
TORSDOF 6
ENDMDL
