MODEL 1
REMARK VINA RESULT:      -9.4      0.000      0.000
REMARK  Name = C:\Users\Docking\Desktop\test protocol\1iep_ligandH.pdb
REMARK  8 active torsions:
REMARK  status: ('A' for Active; 'I' for Inactive)
REMARK    1  A    between atoms: _5  and  _11
REMARK    2  A    between atoms: _19  and  _21
REMARK    3  A    between atoms: _22  and  _66
REMARK    4  A    between atoms: _27  and  _30
REMARK    5  A    between atoms: _32  and  _33
REMARK    6  A    between atoms: _38  and  _43
REMARK    7  A    between atoms: _43  and  _46
REMARK    8  A    between atoms: _53  and  _55
REMARK                            x       y       z     vdW  Elec       q    Type
REMARK                         _______ _______ _______ _____ _____    ______ ____
ROOT
ATOM     10  C   UNL     1      -5.588  -0.406   6.199  0.00  0.00    +0.038 A 
ATOM     11  C   UNL     1      -4.755   0.688   6.544  0.00  0.00    +0.047 A 
ATOM     12  C   UNL     1      -4.055   0.729   7.819  0.00  0.00    +0.035 A 
ATOM     32  C   UNL     1      -4.224  -0.365   8.717  0.00  0.00    +0.024 A 
ATOM     33  C   UNL     1      -5.068  -1.485   8.383  0.00  0.00    +0.007 A 
ATOM     34  C   UNL     1      -5.763  -1.529   7.129  0.00  0.00    -0.029 A 
ATOM     35  C   UNL     1      -6.660  -2.752   6.826  0.00  0.00    +0.045 C 
ENDROOT
BRANCH  10   9
ATOM      4  C   UNL     1      -9.120   1.038   3.287  0.00  0.00    +0.077 A 
ATOM      5  C   UNL     1      -9.740   1.810   4.325  0.00  0.00    +0.048 A 
ATOM      6  C   UNL     1      -9.123   1.804   5.596  0.00  0.00    +0.116 A 
ATOM      7  N   UNL     1      -7.971   1.076   5.802  0.00  0.00    -0.223 NA
ATOM      8  C   UNL     1      -7.399   0.340   4.780  0.00  0.00    +0.220 A 
ATOM      9  N   UNL     1      -6.237  -0.393   4.962  0.00  0.00    -0.283 N 
ATOM     36  H   UNL     1      -5.851  -0.928   4.185  0.00  0.00    +0.155 HD
ATOM     37  N   UNL     1      -7.971   0.329   3.557  0.00  0.00    -0.214 NA
BRANCH   4   3
ATOM      1  C   UNL     1     -11.255   0.052   0.162  0.00  0.00    +0.020 A 
ATOM      2  C   UNL     1     -10.781   0.103   1.525  0.00  0.00    +0.013 A 
ATOM      3  C   UNL     1      -9.651   0.947   1.890  0.00  0.00    +0.019 A 
ATOM     38  C   UNL     1      -9.018   1.735   0.843  0.00  0.00    +0.120 A 
ATOM     39  N   UNL     1      -9.495   1.665  -0.462  0.00  0.00    -0.263 NA
ATOM     40  C   UNL     1     -10.581   0.854  -0.825  0.00  0.00    +0.111 A 
ENDBRANCH   4   3
ENDBRANCH  10   9
BRANCH  12  13
ATOM     13  N   UNL     1      -3.202   1.817   8.227  0.00  0.00    -0.281 N 
ATOM     14  C   UNL     1      -2.418   1.904   9.366  0.00  0.00    +0.248 C 
ATOM     30  O   UNL     1      -2.498   1.143  10.319  0.00  0.00    -0.270 OA
ATOM     31  H   UNL     1      -3.172   2.621   7.600  0.00  0.00    +0.155 HD
BRANCH  14  15
ATOM     15  C   UNL     1      -1.411   3.004   9.468  0.00  0.00    +0.037 A 
ATOM     16  C   UNL     1      -1.679   4.333   8.912  0.00  0.00    +0.013 A 
ATOM     17  C   UNL     1      -0.683   5.371   9.009  0.00  0.00    +0.005 A 
ATOM     18  C   UNL     1       0.590   5.083   9.665  0.00  0.00    -0.033 A 
ATOM     28  C   UNL     1       0.827   3.758  10.212  0.00  0.00    +0.005 A 
ATOM     29  C   UNL     1      -0.146   2.737  10.118  0.00  0.00    +0.013 A 
BRANCH  18  19
ATOM     19  C   UNL     1       1.718   6.124   9.795  0.00  0.00    +0.119 C 
BRANCH  19  20
ATOM     20  N   UNL     1       1.327   7.510  10.190  0.00  0.00    -0.302 NA
ATOM     21  C   UNL     1       1.759   8.547   9.149  0.00  0.00    +0.066 C 
ATOM     22  C   UNL     1       1.322   9.989   9.567  0.00  0.00    -0.064 C 
ATOM     23  N   UNL     1       1.913  10.320  10.939  0.00  0.00    +0.379 N 
ATOM     24  C   UNL     1       1.552  11.697  11.308  0.00  0.00    -0.096 C 
ATOM     25  H   UNL     1       3.023  10.274  10.849  0.00  0.00    -0.082 HD
ATOM     26  C   UNL     1       1.490   9.293  11.979  0.00  0.00    -0.064 C 
ATOM     27  C   UNL     1       1.903   7.860  11.540  0.00  0.00    +0.066 C 
ENDBRANCH  19  20
ENDBRANCH  18  19
ENDBRANCH  14  15
ENDBRANCH  12  13
TORSDOF 6
ENDMDL
MODEL 2
REMARK VINA RESULT:      -9.4      4.101     14.667
REMARK  Name = C:\Users\Docking\Desktop\test protocol\1iep_ligandH.pdb
REMARK  8 active torsions:
REMARK  status: ('A' for Active; 'I' for Inactive)
REMARK    1  A    between atoms: _5  and  _11
REMARK    2  A    between atoms: _19  and  _21
REMARK    3  A    between atoms: _22  and  _66
REMARK    4  A    between atoms: _27  and  _30
REMARK    5  A    between atoms: _32  and  _33
REMARK    6  A    between atoms: _38  and  _43
REMARK    7  A    between atoms: _43  and  _46
REMARK    8  A    between atoms: _53  and  _55
REMARK                            x       y       z     vdW  Elec       q    Type
REMARK                         _______ _______ _______ _____ _____    ______ ____
ROOT
ATOM     10  C   UNL     1       2.214   7.377  10.575  0.00  0.00    +0.038 A 
ATOM     11  C   UNL     1       1.417   6.214  10.732  0.00  0.00    +0.047 A 
ATOM     12  C   UNL     1       0.587   5.718   9.645  0.00  0.00    +0.035 A 
ATOM     32  C   UNL     1       0.594   6.430   8.411  0.00  0.00    +0.024 A 
ATOM     33  C   UNL     1       1.397   7.614   8.234  0.00  0.00    +0.007 A 
ATOM     34  C   UNL     1       2.216   8.110   9.303  0.00  0.00    -0.029 A 
ATOM     35  C   UNL     1       3.051   9.388   9.060  0.00  0.00    +0.045 C 
ENDROOT
BRANCH  10   9
ATOM      4  C   UNL     1       2.883  10.028  14.520  0.00  0.00    +0.077 A 
ATOM      5  C   UNL     1       1.583  10.624  14.411  0.00  0.00    +0.048 A 
ATOM      6  C   UNL     1       0.775  10.226  13.322  0.00  0.00    +0.116 A 
ATOM      7  N   UNL     1       1.244   9.301  12.415  0.00  0.00    -0.223 NA
ATOM      8  C   UNL     1       2.503   8.747  12.548  0.00  0.00    +0.220 A 
ATOM      9  N   UNL     1       2.992   7.808  11.652  0.00  0.00    -0.283 N 
ATOM     36  H   UNL     1       3.929   7.429  11.780  0.00  0.00    +0.155 HD
ATOM     37  N   UNL     1       3.294   9.111  13.578  0.00  0.00    -0.214 NA
BRANCH   4   3
ATOM      1  C   UNL     1       5.198  11.953  17.016  0.00  0.00    +0.020 A 
ATOM      2  C   UNL     1       4.260  11.703  15.947  0.00  0.00    +0.013 A 
ATOM      3  C   UNL     1       3.851  10.343  15.617  0.00  0.00    +0.019 A 
ATOM     38  C   UNL     1       4.415   9.251  16.396  0.00  0.00    +0.120 A 
ATOM     39  N   UNL     1       5.317   9.522  17.419  0.00  0.00    -0.263 NA
ATOM     40  C   UNL     1       5.719  10.826  17.744  0.00  0.00    +0.111 A 
ENDBRANCH   4   3
ENDBRANCH  10   9
BRANCH  12  13
ATOM     13  N   UNL     1      -0.249   4.547   9.749  0.00  0.00    -0.281 N 
ATOM     14  C   UNL     1      -1.522   4.362   9.237  0.00  0.00    +0.248 C 
ATOM     30  O   UNL     1      -2.225   5.257   8.792  0.00  0.00    -0.270 OA
ATOM     31  H   UNL     1       0.147   3.759  10.262  0.00  0.00    +0.155 HD
BRANCH  14  15
ATOM     15  C   UNL     1      -2.105   2.986   9.231  0.00  0.00    +0.037 A 
ATOM     16  C   UNL     1      -1.946   2.089  10.379  0.00  0.00    +0.013 A 
ATOM     17  C   UNL     1      -2.504   0.760  10.341  0.00  0.00    +0.005 A 
ATOM     18  C   UNL     1      -3.228   0.321   9.150  0.00  0.00    -0.033 A 
ATOM     28  C   UNL     1      -3.375   1.233   8.028  0.00  0.00    +0.005 A 
ATOM     29  C   UNL     1      -2.829   2.536   8.061  0.00  0.00    +0.013 A 
BRANCH  18  19
ATOM     19  C   UNL     1      -3.838  -1.087   9.014  0.00  0.00    +0.119 C 
BRANCH  19  20
ATOM     20  N   UNL     1      -5.277  -1.173   8.622  0.00  0.00    -0.302 NA
ATOM     21  C   UNL     1      -6.141  -1.771   9.736  0.00  0.00    +0.066 C 
ATOM     22  C   UNL     1      -7.646  -1.834   9.318  0.00  0.00    -0.064 C 
ATOM     23  N   UNL     1      -7.781  -2.649   8.031  0.00  0.00    +0.379 N 
ATOM     24  C   UNL     1      -9.201  -2.759   7.666  0.00  0.00    -0.096 C 
ATOM     25  H   UNL     1      -7.405  -3.678   8.241  0.00  0.00    -0.082 HD
ATOM     26  C   UNL     1      -6.923  -2.064   6.918  0.00  0.00    -0.064 C 
ATOM     27  C   UNL     1      -5.434  -1.978   7.355  0.00  0.00    +0.066 C 
ENDBRANCH  19  20
ENDBRANCH  18  19
ENDBRANCH  14  15
ENDBRANCH  12  13
TORSDOF 6
ENDMDL
MODEL 3
REMARK VINA RESULT:      -9.2     11.853     15.227
REMARK  Name = C:\Users\Docking\Desktop\test protocol\1iep_ligandH.pdb
REMARK  8 active torsions:
REMARK  status: ('A' for Active; 'I' for Inactive)
REMARK    1  A    between atoms: _5  and  _11
REMARK    2  A    between atoms: _19  and  _21
REMARK    3  A    between atoms: _22  and  _66
REMARK    4  A    between atoms: _27  and  _30
REMARK    5  A    between atoms: _32  and  _33
REMARK    6  A    between atoms: _38  and  _43
REMARK    7  A    between atoms: _43  and  _46
REMARK    8  A    between atoms: _53  and  _55
REMARK                            x       y       z     vdW  Elec       q    Type
REMARK                         _______ _______ _______ _____ _____    ______ ____
ROOT
ATOM     10  C   UNL     1      -6.580  10.857   5.069  0.00  0.00    +0.038 A 
ATOM     11  C   UNL     1      -6.762  11.374   3.760  0.00  0.00    +0.047 A 
ATOM     12  C   UNL     1      -7.012  12.789   3.538  0.00  0.00    +0.035 A 
ATOM     32  C   UNL     1      -7.067  13.652   4.671  0.00  0.00    +0.024 A 
ATOM     33  C   UNL     1      -6.886  13.144   6.008  0.00  0.00    +0.007 A 
ATOM     34  C   UNL     1      -6.641  11.748   6.234  0.00  0.00    -0.029 A 
ATOM     35  C   UNL     1      -6.460  11.258   7.690  0.00  0.00    +0.045 C 
ENDROOT
BRANCH  10   9
ATOM      4  C   UNL     1      -3.630   7.093   5.481  0.00  0.00    +0.077 A 
ATOM      5  C   UNL     1      -2.464   7.917   5.348  0.00  0.00    +0.048 A 
ATOM      6  C   UNL     1      -2.666   9.304   5.168  0.00  0.00    +0.116 A 
ATOM      7  N   UNL     1      -3.945   9.817   5.126  0.00  0.00    -0.223 NA
ATOM      8  C   UNL     1      -5.048   8.994   5.256  0.00  0.00    +0.220 A 
ATOM      9  N   UNL     1      -6.342   9.490   5.224  0.00  0.00    -0.283 N 
ATOM     36  H   UNL     1      -7.130   8.849   5.316  0.00  0.00    +0.155 HD
ATOM     37  N   UNL     1      -4.881   7.666   5.427  0.00  0.00    -0.214 NA
BRANCH   4   3
ATOM      1  C   UNL     1      -2.891   3.548   6.959  0.00  0.00    +0.020 A 
ATOM      2  C   UNL     1      -2.910   4.985   6.813  0.00  0.00    +0.013 A 
ATOM      3  C   UNL     1      -3.580   5.610   5.680  0.00  0.00    +0.019 A 
ATOM     38  C   UNL     1      -4.227   4.746   4.705  0.00  0.00    +0.120 A 
ATOM     39  N   UNL     1      -4.191   3.365   4.870  0.00  0.00    -0.263 NA
ATOM     40  C   UNL     1      -3.548   2.752   5.956  0.00  0.00    +0.111 A 
ENDBRANCH   4   3
ENDBRANCH  10   9
BRANCH  12  13
ATOM     13  N   UNL     1      -7.212  13.369   2.233  0.00  0.00    -0.281 N 
ATOM     14  C   UNL     1      -8.413  13.658   1.605  0.00  0.00    +0.248 C 
ATOM     30  O   UNL     1      -9.505  13.261   1.985  0.00  0.00    -0.270 OA
ATOM     31  H   UNL     1      -6.367  13.595   1.709  0.00  0.00    +0.155 HD
BRANCH  14  15
ATOM     15  C   UNL     1      -8.397  14.496   0.367  0.00  0.00    +0.037 A 
ATOM     16  C   UNL     1      -8.776  13.937  -0.933  0.00  0.00    +0.013 A 
ATOM     17  C   UNL     1      -8.735  14.763  -2.114  0.00  0.00    +0.005 A 
ATOM     18  C   UNL     1      -8.315  16.158  -1.999  0.00  0.00    -0.033 A 
ATOM     28  C   UNL     1      -7.950  16.687  -0.695  0.00  0.00    +0.005 A 
ATOM     29  C   UNL     1      -7.988  15.881   0.464  0.00  0.00    +0.013 A 
BRANCH  18  19
ATOM     19  C   UNL     1      -8.222  17.106  -3.209  0.00  0.00    +0.119 C 
BRANCH  19  20
ATOM     20  N   UNL     1      -9.503  17.508  -3.863  0.00  0.00    -0.302 NA
ATOM     21  C   UNL     1      -9.266  18.309  -5.147  0.00  0.00    +0.066 C 
ATOM     22  C   UNL     1     -10.617  18.701  -5.830  0.00  0.00    -0.064 C 
ATOM     23  N   UNL     1     -11.471  19.500  -4.843  0.00  0.00    +0.379 N 
ATOM     24  C   UNL     1     -12.717  19.920  -5.501  0.00  0.00    -0.096 C 
ATOM     25  H   UNL     1     -10.904  20.420  -4.573  0.00  0.00    -0.082 HD
ATOM     26  C   UNL     1     -11.709  18.712  -3.563  0.00  0.00    -0.064 C 
ATOM     27  C   UNL     1     -10.361  18.301  -2.908  0.00  0.00    +0.066 C 
ENDBRANCH  19  20
ENDBRANCH  18  19
ENDBRANCH  14  15
ENDBRANCH  12  13
TORSDOF 6
ENDMDL
MODEL 4
REMARK VINA RESULT:      -9.0      3.890     14.620
REMARK  Name = C:\Users\Docking\Desktop\test protocol\1iep_ligandH.pdb
REMARK  8 active torsions:
REMARK  status: ('A' for Active; 'I' for Inactive)
REMARK    1  A    between atoms: _5  and  _11
REMARK    2  A    between atoms: _19  and  _21
REMARK    3  A    between atoms: _22  and  _66
REMARK    4  A    between atoms: _27  and  _30
REMARK    5  A    between atoms: _32  and  _33
REMARK    6  A    between atoms: _38  and  _43
REMARK    7  A    between atoms: _43  and  _46
REMARK    8  A    between atoms: _53  and  _55
REMARK                            x       y       z     vdW  Elec       q    Type
REMARK                         _______ _______ _______ _____ _____    ______ ____
ROOT
ATOM     10  C   UNL     1       2.223   8.905  10.529  0.00  0.00    +0.038 A 
ATOM     11  C   UNL     1       1.502   7.686  10.601  0.00  0.00    +0.047 A 
ATOM     12  C   UNL     1       1.043   7.011   9.396  0.00  0.00    +0.035 A 
ATOM     32  C   UNL     1       1.340   7.605   8.135  0.00  0.00    +0.024 A 
ATOM     33  C   UNL     1       2.071   8.844   8.044  0.00  0.00    +0.007 A 
ATOM     34  C   UNL     1       2.524   9.516   9.229  0.00  0.00    -0.029 A 
ATOM     35  C   UNL     1       3.298  10.845   9.071  0.00  0.00    +0.045 C 
ENDROOT
BRANCH  10   9
ATOM      4  C   UNL     1       3.498   8.719  15.153  0.00  0.00    +0.077 A 
ATOM      5  C   UNL     1       3.291   7.301  15.214  0.00  0.00    +0.048 A 
ATOM      6  C   UNL     1       2.850   6.658  14.036  0.00  0.00    +0.116 A 
ATOM      7  N   UNL     1       2.635   7.389  12.887  0.00  0.00    -0.223 NA
ATOM      8  C   UNL     1       2.842   8.756  12.863  0.00  0.00    +0.220 A 
ATOM      9  N   UNL     1       2.639   9.510  11.717  0.00  0.00    -0.283 N 
ATOM     36  H   UNL     1       2.796  10.517  11.742  0.00  0.00    +0.155 HD
ATOM     37  N   UNL     1       3.262   9.394  13.976  0.00  0.00    -0.214 NA
BRANCH   4   3
ATOM      1  C   UNL     1       5.136   9.813  18.532  0.00  0.00    +0.020 A 
ATOM      2  C   UNL     1       4.707   8.977  17.435  0.00  0.00    +0.013 A 
ATOM      3  C   UNL     1       3.966   9.540  16.314  0.00  0.00    +0.019 A 
ATOM     38  C   UNL     1       3.674  10.966  16.333  0.00  0.00    +0.120 A 
ATOM     39  N   UNL     1       4.099  11.747  17.403  0.00  0.00    -0.263 NA
ATOM     40  C   UNL     1       4.811  11.215  18.489  0.00  0.00    +0.111 A 
ENDBRANCH   4   3
ENDBRANCH  10   9
BRANCH  12  13
ATOM     13  N   UNL     1       0.300   5.776   9.407  0.00  0.00    -0.281 N 
ATOM     14  C   UNL     1       0.787   4.490   9.574  0.00  0.00    +0.248 C 
ATOM     30  O   UNL     1       1.970   4.188   9.526  0.00  0.00    -0.270 OA
ATOM     31  H   UNL     1      -0.709   5.860   9.275  0.00  0.00    +0.155 HD
BRANCH  14  15
ATOM     15  C   UNL     1      -0.181   3.377   9.815  0.00  0.00    +0.037 A 
ATOM     16  C   UNL     1       0.266   2.078  10.324  0.00  0.00    +0.013 A 
ATOM     17  C   UNL     1      -0.686   1.016  10.531  0.00  0.00    +0.005 A 
ATOM     18  C   UNL     1      -2.096   1.249  10.229  0.00  0.00    -0.033 A 
ATOM     28  C   UNL     1      -2.513   2.549   9.730  0.00  0.00    +0.005 A 
ATOM     29  C   UNL     1      -1.583   3.592   9.525  0.00  0.00    +0.013 A 
BRANCH  18  19
ATOM     19  C   UNL     1      -3.178   0.166  10.400  0.00  0.00    +0.119 C 
BRANCH  19  20
ATOM     20  N   UNL     1      -4.121  -0.044   9.261  0.00  0.00    -0.302 NA
ATOM     21  C   UNL     1      -5.304  -0.934   9.651  0.00  0.00    +0.066 C 
ATOM     22  C   UNL     1      -6.292  -1.125   8.455  0.00  0.00    -0.064 C 
ATOM     23  N   UNL     1      -5.537  -1.718   7.264  0.00  0.00    +0.379 N 
ATOM     24  C   UNL     1      -6.476  -1.952   6.156  0.00  0.00    -0.096 C 
ATOM     25  H   UNL     1      -5.132  -2.707   7.579  0.00  0.00    -0.082 HD
ATOM     26  C   UNL     1      -4.358  -0.840   6.871  0.00  0.00    -0.064 C 
ATOM     27  C   UNL     1      -3.397  -0.633   8.075  0.00  0.00    +0.066 C 
ENDBRANCH  19  20
ENDBRANCH  18  19
ENDBRANCH  14  15
ENDBRANCH  12  13
TORSDOF 6
ENDMDL
MODEL 5
REMARK VINA RESULT:      -8.9      9.325     14.723
REMARK  Name = C:\Users\Docking\Desktop\test protocol\1iep_ligandH.pdb
REMARK  8 active torsions:
REMARK  status: ('A' for Active; 'I' for Inactive)
REMARK    1  A    between atoms: _5  and  _11
REMARK    2  A    between atoms: _19  and  _21
REMARK    3  A    between atoms: _22  and  _66
REMARK    4  A    between atoms: _27  and  _30
REMARK    5  A    between atoms: _32  and  _33
REMARK    6  A    between atoms: _38  and  _43
REMARK    7  A    between atoms: _43  and  _46
REMARK    8  A    between atoms: _53  and  _55
REMARK                            x       y       z     vdW  Elec       q    Type
REMARK                         _______ _______ _______ _____ _____    ______ ____
ROOT
ATOM     10  C   UNL     1      -8.261  11.542   3.217  0.00  0.00    +0.038 A 
ATOM     11  C   UNL     1      -8.469  10.190   2.842  0.00  0.00    +0.047 A 
ATOM     12  C   UNL     1      -7.652   9.122   3.395  0.00  0.00    +0.035 A 
ATOM     32  C   UNL     1      -6.633   9.465   4.331  0.00  0.00    +0.024 A 
ATOM     33  C   UNL     1      -6.407  10.835   4.723  0.00  0.00    +0.007 A 
ATOM     34  C   UNL     1      -7.208  11.893   4.178  0.00  0.00    -0.029 A 
ATOM     35  C   UNL     1      -6.917  13.344   4.629  0.00  0.00    +0.045 C 
ENDROOT
BRANCH  10   9
ATOM      4  C   UNL     1      -9.577  14.371  -0.430  0.00  0.00    +0.077 A 
ATOM      5  C   UNL     1      -8.538  13.861  -1.278  0.00  0.00    +0.048 A 
ATOM      6  C   UNL     1      -7.682  12.877  -0.735  0.00  0.00    +0.116 A 
ATOM      7  N   UNL     1      -7.861  12.442   0.560  0.00  0.00    -0.223 NA
ATOM      8  C   UNL     1      -8.871  12.956   1.352  0.00  0.00    +0.220 A 
ATOM      9  N   UNL     1      -9.074  12.528   2.655  0.00  0.00    -0.283 N 
ATOM     36  H   UNL     1      -9.826  12.938   3.208  0.00  0.00    +0.155 HD
ATOM     37  N   UNL     1      -9.701  13.898   0.857  0.00  0.00    -0.214 NA
BRANCH   4   3
ATOM      1  C   UNL     1     -11.171  17.747  -1.599  0.00  0.00    +0.020 A 
ATOM      2  C   UNL     1     -10.179  16.780  -1.187  0.00  0.00    +0.013 A 
ATOM      3  C   UNL     1     -10.563  15.412  -0.861  0.00  0.00    +0.019 A 
ATOM     38  C   UNL     1     -11.969  15.052  -0.962  0.00  0.00    +0.120 A 
ATOM     39  N   UNL     1     -12.902  16.005  -1.359  0.00  0.00    -0.263 NA
ATOM     40  C   UNL     1     -12.545  17.324  -1.674  0.00  0.00    +0.111 A 
ENDBRANCH   4   3
ENDBRANCH  10   9
BRANCH  12  13
ATOM     13  N   UNL     1      -7.811   7.732   3.045  0.00  0.00    -0.281 N 
ATOM     14  C   UNL     1      -8.831   6.872   3.417  0.00  0.00    +0.248 C 
ATOM     30  O   UNL     1      -9.655   7.112   4.287  0.00  0.00    -0.270 OA
ATOM     31  H   UNL     1      -7.083   7.334   2.452  0.00  0.00    +0.155 HD
BRANCH  14  15
ATOM     15  C   UNL     1      -8.945   5.548   2.734  0.00  0.00    +0.037 A 
ATOM     16  C   UNL     1      -7.769   4.699   2.522  0.00  0.00    +0.013 A 
ATOM     17  C   UNL     1      -7.903   3.433   1.845  0.00  0.00    +0.005 A 
ATOM     18  C   UNL     1      -9.220   3.009   1.375  0.00  0.00    -0.033 A 
ATOM     28  C   UNL     1     -10.370   3.868   1.603  0.00  0.00    +0.005 A 
ATOM     29  C   UNL     1     -10.242   5.109   2.266  0.00  0.00    +0.013 A 
BRANCH  18  19
ATOM     19  C   UNL     1      -9.453   1.684   0.624  0.00  0.00    +0.119 C 
BRANCH  19  20
ATOM     20  N   UNL     1     -10.827   1.102   0.675  0.00  0.00    -0.302 NA
ATOM     21  C   UNL     1     -10.823  -0.333   1.210  0.00  0.00    +0.066 C 
ATOM     22  C   UNL     1     -12.271  -0.919   1.278  0.00  0.00    -0.064 C 
ATOM     23  N   UNL     1     -12.907  -0.861  -0.112  0.00  0.00    +0.379 N 
ATOM     24  C   UNL     1     -14.247  -1.464  -0.063  0.00  0.00    -0.096 C 
ATOM     25  H   UNL     1     -12.282  -1.480  -0.795  0.00  0.00    -0.082 HD
ATOM     26  C   UNL     1     -12.913   0.562  -0.653  0.00  0.00    -0.064 C 
ATOM     27  C   UNL     1     -11.472   1.145  -0.688  0.00  0.00    +0.066 C 
ENDBRANCH  19  20
ENDBRANCH  18  19
ENDBRANCH  14  15
ENDBRANCH  12  13
TORSDOF 6
ENDMDL
