MODEL 1
REMARK VINA RESULT:      -9.5      0.000      0.000
REMARK  Name = C:\Users\Docking\Desktop\test protocol\1iep_ligandH.pdb
REMARK  8 active torsions:
REMARK  status: ('A' for Active; 'I' for Inactive)
REMARK    1  A    between atoms: _5  and  _11
REMARK    2  A    between atoms: _19  and  _21
REMARK    3  A    between atoms: _22  and  _66
REMARK    4  A    between atoms: _27  and  _30
REMARK    5  A    between atoms: _32  and  _33
REMARK    6  A    between atoms: _38  and  _43
REMARK    7  A    between atoms: _43  and  _46
REMARK    8  A    between atoms: _53  and  _55
REMARK                            x       y       z     vdW  Elec       q    Type
REMARK                         _______ _______ _______ _____ _____    ______ ____
ROOT
ATOM     10  C   UNL     1      -5.327  -0.299   6.332  0.00  0.00    +0.038 A 
ATOM     11  C   UNL     1      -4.494   0.819   6.590  0.00  0.00    +0.047 A 
ATOM     12  C   UNL     1      -3.742   0.927   7.831  0.00  0.00    +0.035 A 
ATOM     32  C   UNL     1      -3.861  -0.124   8.786  0.00  0.00    +0.024 A 
ATOM     33  C   UNL     1      -4.705  -1.267   8.541  0.00  0.00    +0.007 A 
ATOM     34  C   UNL     1      -5.450  -1.378   7.320  0.00  0.00    -0.029 A 
ATOM     35  C   UNL     1      -6.344  -2.623   7.112  0.00  0.00    +0.045 C 
ENDROOT
BRANCH  10   9
ATOM      4  C   UNL     1      -8.679   1.330   3.307  0.00  0.00    +0.077 A 
ATOM      5  C   UNL     1      -9.092   2.354   4.222  0.00  0.00    +0.048 A 
ATOM      6  C   UNL     1      -8.420   2.424   5.464  0.00  0.00    +0.116 A 
ATOM      7  N   UNL     1      -7.413   1.530   5.757  0.00  0.00    -0.223 NA
ATOM      8  C   UNL     1      -7.041   0.553   4.853  0.00  0.00    +0.220 A 
ATOM      9  N   UNL     1      -6.026  -0.351   5.124  0.00  0.00    -0.283 N 
ATOM     36  H   UNL     1      -5.786  -1.062   4.433  0.00  0.00    +0.155 HD
ATOM     37  N   UNL     1      -7.668   0.465   3.661  0.00  0.00    -0.214 NA
BRANCH   4   3
ATOM      1  C   UNL     1     -10.965   0.074   0.392  0.00  0.00    +0.020 A 
ATOM      2  C   UNL     1     -10.412   0.230   1.717  0.00  0.00    +0.013 A 
ATOM      3  C   UNL     1      -9.290   1.130   1.955  0.00  0.00    +0.019 A 
ATOM     38  C   UNL     1      -8.748   1.864   0.821  0.00  0.00    +0.120 A 
ATOM     39  N   UNL     1      -9.300   1.692  -0.444  0.00  0.00    -0.263 NA
ATOM     40  C   UNL     1     -10.379   0.828  -0.685  0.00  0.00    +0.111 A 
ENDBRANCH   4   3
ENDBRANCH  10   9
BRANCH  12  13
ATOM     13  N   UNL     1      -2.886   2.042   8.152  0.00  0.00    -0.281 N 
ATOM     14  C   UNL     1      -2.275   2.326   9.362  0.00  0.00    +0.248 C 
ATOM     30  O   UNL     1      -2.546   1.775  10.419  0.00  0.00    -0.270 OA
ATOM     31  H   UNL     1      -2.710   2.702   7.395  0.00  0.00    +0.155 HD
BRANCH  14  15
ATOM     15  C   UNL     1      -1.221   3.385   9.408  0.00  0.00    +0.037 A 
ATOM     16  C   UNL     1       0.089   3.127  10.011  0.00  0.00    +0.013 A 
ATOM     17  C   UNL     1       1.081   4.171  10.058  0.00  0.00    +0.005 A 
ATOM     18  C   UNL     1       0.767   5.484   9.497  0.00  0.00    -0.033 A 
ATOM     28  C   UNL     1      -0.538   5.710   8.900  0.00  0.00    +0.005 A 
ATOM     29  C   UNL     1      -1.514   4.689   8.854  0.00  0.00    +0.013 A 
BRANCH  18  19
ATOM     19  C   UNL     1       1.758   6.663   9.522  0.00  0.00    +0.119 C 
BRANCH  19  20
ATOM     20  N   UNL     1       1.399   7.840  10.368  0.00  0.00    -0.302 NA
ATOM     21  C   UNL     1       1.964   9.146   9.804  0.00  0.00    +0.066 C 
ATOM     22  C   UNL     1       1.560  10.370  10.689  0.00  0.00    -0.064 C 
ATOM     23  N   UNL     1       2.047  10.143  12.121  0.00  0.00    +0.379 N 
ATOM     24  C   UNL     1       1.720  11.318  12.943  0.00  0.00    -0.096 C 
ATOM     25  H   UNL     1       3.157  10.051  12.090  0.00  0.00    -0.082 HD
ATOM     26  C   UNL     1       1.492   8.844  12.689  0.00  0.00    -0.064 C 
ATOM     27  C   UNL     1       1.874   7.638  11.786  0.00  0.00    +0.066 C 
ENDBRANCH  19  20
ENDBRANCH  18  19
ENDBRANCH  14  15
ENDBRANCH  12  13
TORSDOF 6
ENDMDL
MODEL 2
REMARK VINA RESULT:      -9.2      3.697      4.365
REMARK  Name = C:\Users\Docking\Desktop\test protocol\1iep_ligandH.pdb
REMARK  8 active torsions:
REMARK  status: ('A' for Active; 'I' for Inactive)
REMARK    1  A    between atoms: _5  and  _11
REMARK    2  A    between atoms: _19  and  _21
REMARK    3  A    between atoms: _22  and  _66
REMARK    4  A    between atoms: _27  and  _30
REMARK    5  A    between atoms: _32  and  _33
REMARK    6  A    between atoms: _38  and  _43
REMARK    7  A    between atoms: _43  and  _46
REMARK    8  A    between atoms: _53  and  _55
REMARK                            x       y       z     vdW  Elec       q    Type
REMARK                         _______ _______ _______ _____ _____    ______ ____
ROOT
ATOM     10  C   UNL     1      -5.467  -0.760  10.439  0.00  0.00    +0.038 A 
ATOM     11  C   UNL     1      -4.798   0.470  10.219  0.00  0.00    +0.047 A 
ATOM     12  C   UNL     1      -3.360   0.589  10.406  0.00  0.00    +0.035 A 
ATOM     32  C   UNL     1      -2.634  -0.567  10.817  0.00  0.00    +0.024 A 
ATOM     33  C   UNL     1      -3.299  -1.826  11.046  0.00  0.00    +0.007 A 
ATOM     34  C   UNL     1      -4.717  -1.948  10.865  0.00  0.00    -0.029 A 
ATOM     35  C   UNL     1      -5.378  -3.321  11.132  0.00  0.00    +0.045 C 
ENDROOT
BRANCH  10   9
ATOM      4  C   UNL     1      -9.329  -1.918   7.835  0.00  0.00    +0.077 A 
ATOM      5  C   UNL     1      -8.525  -2.427   6.761  0.00  0.00    +0.048 A 
ATOM      6  C   UNL     1      -7.122  -2.366   6.915  0.00  0.00    +0.116 A 
ATOM      7  N   UNL     1      -6.574  -1.834   8.062  0.00  0.00    -0.223 NA
ATOM      8  C   UNL     1      -7.378  -1.350   9.078  0.00  0.00    +0.220 A 
ATOM      9  N   UNL     1      -6.849  -0.818  10.244  0.00  0.00    -0.283 N 
ATOM     36  H   UNL     1      -7.475  -0.465  10.967  0.00  0.00    +0.155 HD
ATOM     37  N   UNL     1      -8.721  -1.396   8.954  0.00  0.00    -0.214 NA
BRANCH   4   3
ATOM      1  C   UNL     1     -13.071  -2.478   8.825  0.00  0.00    +0.020 A 
ATOM      2  C   UNL     1     -11.628  -2.508   8.885  0.00  0.00    +0.013 A 
ATOM      3  C   UNL     1     -10.826  -1.916   7.822  0.00  0.00    +0.019 A 
ATOM     38  C   UNL     1     -11.521  -1.297   6.703  0.00  0.00    +0.120 A 
ATOM     39  N   UNL     1     -12.912  -1.285   6.671  0.00  0.00    -0.263 NA
ATOM     40  C   UNL     1     -13.694  -1.853   7.688  0.00  0.00    +0.111 A 
ENDBRANCH   4   3
ENDBRANCH  10   9
BRANCH  12  13
ATOM     13  N   UNL     1      -2.627   1.815  10.205  0.00  0.00    -0.281 N 
ATOM     14  C   UNL     1      -1.262   2.019  10.320  0.00  0.00    +0.248 C 
ATOM     30  O   UNL     1      -0.484   1.223  10.824  0.00  0.00    -0.270 OA
ATOM     31  H   UNL     1      -3.182   2.631   9.947  0.00  0.00    +0.155 HD
BRANCH  14  15
ATOM     15  C   UNL     1      -0.678   3.299   9.815  0.00  0.00    +0.037 A 
ATOM     16  C   UNL     1       0.746   3.601   9.976  0.00  0.00    +0.013 A 
ATOM     17  C   UNL     1       1.280   4.850   9.494  0.00  0.00    +0.005 A 
ATOM     18  C   UNL     1       0.387   5.808   8.845  0.00  0.00    -0.033 A 
ATOM     28  C   UNL     1      -1.021   5.480   8.694  0.00  0.00    +0.005 A 
ATOM     29  C   UNL     1      -1.548   4.257   9.165  0.00  0.00    +0.013 A 
BRANCH  18  19
ATOM     19  C   UNL     1       0.866   7.174   8.320  0.00  0.00    +0.119 C 
BRANCH  19  20
ATOM     20  N   UNL     1       1.005   8.278   9.315  0.00  0.00    -0.302 NA
ATOM     21  C   UNL     1       1.026   9.656   8.646  0.00  0.00    +0.066 C 
ATOM     22  C   UNL     1       1.150  10.801   9.704  0.00  0.00    -0.064 C 
ATOM     23  N   UNL     1       2.413  10.585  10.539  0.00  0.00    +0.379 N 
ATOM     24  C   UNL     1       2.563  11.691  11.496  0.00  0.00    -0.096 C 
ATOM     25  H   UNL     1       3.285  10.616   9.846  0.00  0.00    -0.082 HD
ATOM     26  C   UNL     1       2.402   9.217  11.206  0.00  0.00    -0.064 C 
ATOM     27  C   UNL     1       2.249   8.088  10.149  0.00  0.00    +0.066 C 
ENDBRANCH  19  20
ENDBRANCH  18  19
ENDBRANCH  14  15
ENDBRANCH  12  13
TORSDOF 6
ENDMDL
MODEL 3
REMARK VINA RESULT:      -9.0      9.164     14.763
REMARK  Name = C:\Users\Docking\Desktop\test protocol\1iep_ligandH.pdb
REMARK  8 active torsions:
REMARK  status: ('A' for Active; 'I' for Inactive)
REMARK    1  A    between atoms: _5  and  _11
REMARK    2  A    between atoms: _19  and  _21
REMARK    3  A    between atoms: _22  and  _66
REMARK    4  A    between atoms: _27  and  _30
REMARK    5  A    between atoms: _32  and  _33
REMARK    6  A    between atoms: _38  and  _43
REMARK    7  A    between atoms: _43  and  _46
REMARK    8  A    between atoms: _53  and  _55
REMARK                            x       y       z     vdW  Elec       q    Type
REMARK                         _______ _______ _______ _____ _____    ______ ____
ROOT
ATOM     10  C   UNL     1      -8.282  11.520   3.221  0.00  0.00    +0.038 A 
ATOM     11  C   UNL     1      -8.473  10.173   2.822  0.00  0.00    +0.047 A 
ATOM     12  C   UNL     1      -7.654   9.102   3.369  0.00  0.00    +0.035 A 
ATOM     32  C   UNL     1      -6.651   9.440   4.324  0.00  0.00    +0.024 A 
ATOM     33  C   UNL     1      -6.443  10.805   4.740  0.00  0.00    +0.007 A 
ATOM     34  C   UNL     1      -7.246  11.865   4.202  0.00  0.00    -0.029 A 
ATOM     35  C   UNL     1      -6.974  13.310   4.679  0.00  0.00    +0.045 C 
ENDROOT
BRANCH  10   9
ATOM      4  C   UNL     1      -9.581  14.386  -0.403  0.00  0.00    +0.077 A 
ATOM      5  C   UNL     1      -8.531  13.893  -1.248  0.00  0.00    +0.048 A 
ATOM      6  C   UNL     1      -7.674  12.908  -0.709  0.00  0.00    +0.116 A 
ATOM      7  N   UNL     1      -7.863  12.456   0.579  0.00  0.00    -0.223 NA
ATOM      8  C   UNL     1      -8.884  12.953   1.367  0.00  0.00    +0.220 A 
ATOM      9  N   UNL     1      -9.097  12.508   2.663  0.00  0.00    -0.283 N 
ATOM     36  H   UNL     1      -9.857  12.905   3.214  0.00  0.00    +0.155 HD
ATOM     37  N   UNL     1      -9.715  13.896   0.876  0.00  0.00    -0.214 NA
BRANCH   4   3
ATOM      1  C   UNL     1     -11.188  17.768  -1.536  0.00  0.00    +0.020 A 
ATOM      2  C   UNL     1     -10.194  16.803  -1.127  0.00  0.00    +0.013 A 
ATOM      3  C   UNL     1     -10.570  15.426  -0.830  0.00  0.00    +0.019 A 
ATOM     38  C   UNL     1     -11.971  15.056  -0.959  0.00  0.00    +0.120 A 
ATOM     39  N   UNL     1     -12.907  16.007  -1.354  0.00  0.00    -0.263 NA
ATOM     40  C   UNL     1     -12.557  17.335  -1.640  0.00  0.00    +0.111 A 
ENDBRANCH   4   3
ENDBRANCH  10   9
BRANCH  12  13
ATOM     13  N   UNL     1      -7.797   7.717   2.996  0.00  0.00    -0.281 N 
ATOM     14  C   UNL     1      -8.714   6.795   3.475  0.00  0.00    +0.248 C 
ATOM     30  O   UNL     1      -9.417   6.968   4.460  0.00  0.00    -0.270 OA
ATOM     31  H   UNL     1      -7.142   7.374   2.292  0.00  0.00    +0.155 HD
BRANCH  14  15
ATOM     15  C   UNL     1      -8.860   5.487   2.767  0.00  0.00    +0.037 A 
ATOM     16  C   UNL     1      -7.711   4.604   2.557  0.00  0.00    +0.013 A 
ATOM     17  C   UNL     1      -7.877   3.355   1.856  0.00  0.00    +0.005 A 
ATOM     18  C   UNL     1      -9.200   2.983   1.360  0.00  0.00    -0.033 A 
ATOM     28  C   UNL     1     -10.324   3.876   1.587  0.00  0.00    +0.005 A 
ATOM     29  C   UNL     1     -10.165   5.101   2.273  0.00  0.00    +0.013 A 
BRANCH  18  19
ATOM     19  C   UNL     1      -9.465   1.680   0.583  0.00  0.00    +0.119 C 
BRANCH  19  20
ATOM     20  N   UNL     1     -10.838   1.100   0.669  0.00  0.00    -0.302 NA
ATOM     21  C   UNL     1     -10.822  -0.342   1.186  0.00  0.00    +0.066 C 
ATOM     22  C   UNL     1     -12.269  -0.925   1.291  0.00  0.00    -0.064 C 
ATOM     23  N   UNL     1     -12.948  -0.848  -0.077  0.00  0.00    +0.379 N 
ATOM     24  C   UNL     1     -14.287  -1.449   0.005  0.00  0.00    -0.096 C 
ATOM     25  H   UNL     1     -12.345  -1.460  -0.788  0.00  0.00    -0.082 HD
ATOM     26  C   UNL     1     -12.966   0.582  -0.599  0.00  0.00    -0.064 C 
ATOM     27  C   UNL     1     -11.526   1.162  -0.672  0.00  0.00    +0.066 C 
ENDBRANCH  19  20
ENDBRANCH  18  19
ENDBRANCH  14  15
ENDBRANCH  12  13
TORSDOF 6
ENDMDL
MODEL 4
REMARK VINA RESULT:      -8.9     11.887     15.330
REMARK  Name = C:\Users\Docking\Desktop\test protocol\1iep_ligandH.pdb
REMARK  8 active torsions:
REMARK  status: ('A' for Active; 'I' for Inactive)
REMARK    1  A    between atoms: _5  and  _11
REMARK    2  A    between atoms: _19  and  _21
REMARK    3  A    between atoms: _22  and  _66
REMARK    4  A    between atoms: _27  and  _30
REMARK    5  A    between atoms: _32  and  _33
REMARK    6  A    between atoms: _38  and  _43
REMARK    7  A    between atoms: _43  and  _46
REMARK    8  A    between atoms: _53  and  _55
REMARK                            x       y       z     vdW  Elec       q    Type
REMARK                         _______ _______ _______ _____ _____    ______ ____
ROOT
ATOM     10  C   UNL     1      -6.618  11.039   4.906  0.00  0.00    +0.038 A 
ATOM     11  C   UNL     1      -6.781  11.553   3.594  0.00  0.00    +0.047 A 
ATOM     12  C   UNL     1      -6.961  12.977   3.361  0.00  0.00    +0.035 A 
ATOM     32  C   UNL     1      -6.968  13.851   4.487  0.00  0.00    +0.024 A 
ATOM     33  C   UNL     1      -6.805  13.345   5.827  0.00  0.00    +0.007 A 
ATOM     34  C   UNL     1      -6.629  11.941   6.064  0.00  0.00    -0.029 A 
ATOM     35  C   UNL     1      -6.465  11.454   7.522  0.00  0.00    +0.045 C 
ENDROOT
BRANCH  10   9
ATOM      4  C   UNL     1      -3.859   7.152   5.464  0.00  0.00    +0.077 A 
ATOM      5  C   UNL     1      -2.652   7.925   5.393  0.00  0.00    +0.048 A 
ATOM      6  C   UNL     1      -2.785   9.319   5.205  0.00  0.00    +0.116 A 
ATOM      7  N   UNL     1      -4.036   9.887   5.097  0.00  0.00    -0.223 NA
ATOM      8  C   UNL     1      -5.180   9.112   5.169  0.00  0.00    +0.220 A 
ATOM      9  N   UNL     1      -6.448   9.663   5.072  0.00  0.00    -0.283 N 
ATOM     36  H   UNL     1      -7.266   9.056   5.122  0.00  0.00    +0.155 HD
ATOM     37  N   UNL     1      -5.079   7.778   5.347  0.00  0.00    -0.214 NA
BRANCH   4   3
ATOM      1  C   UNL     1      -4.835   3.370   5.243  0.00  0.00    +0.020 A 
ATOM      2  C   UNL     1      -4.856   4.797   5.017  0.00  0.00    +0.013 A 
ATOM      3  C   UNL     1      -3.883   5.668   5.664  0.00  0.00    +0.019 A 
ATOM     38  C   UNL     1      -2.894   5.059   6.541  0.00  0.00    +0.120 A 
ATOM     39  N   UNL     1      -2.899   3.682   6.741  0.00  0.00    -0.263 NA
ATOM     40  C   UNL     1      -3.832   2.834   6.124  0.00  0.00    +0.111 A 
ENDBRANCH   4   3
ENDBRANCH  10   9
BRANCH  12  13
ATOM     13  N   UNL     1      -7.139  13.556   2.052  0.00  0.00    -0.281 N 
ATOM     14  C   UNL     1      -8.327  13.903   1.429  0.00  0.00    +0.248 C 
ATOM     30  O   UNL     1      -9.436  13.570   1.820  0.00  0.00    -0.270 OA
ATOM     31  H   UNL     1      -6.286  13.731   1.520  0.00  0.00    +0.155 HD
BRANCH  14  15
ATOM     15  C   UNL     1      -8.275  14.729   0.184  0.00  0.00    +0.037 A 
ATOM     16  C   UNL     1      -7.874  16.137   0.222  0.00  0.00    +0.013 A 
ATOM     17  C   UNL     1      -7.849  16.915  -0.991  0.00  0.00    +0.005 A 
ATOM     18  C   UNL     1      -8.224  16.284  -2.254  0.00  0.00    -0.033 A 
ATOM     28  C   UNL     1      -8.612  14.884  -2.265  0.00  0.00    +0.005 A 
ATOM     29  C   UNL     1      -8.639  14.118  -1.077  0.00  0.00    +0.013 A 
BRANCH  18  19
ATOM     19  C   UNL     1      -8.246  17.043  -3.594  0.00  0.00    +0.119 C 
BRANCH  19  20
ATOM     20  N   UNL     1      -9.570  17.532  -4.082  0.00  0.00    -0.302 NA
ATOM     21  C   UNL     1      -9.438  18.380  -5.350  0.00  0.00    +0.066 C 
ATOM     22  C   UNL     1     -10.835  18.864  -5.859  0.00  0.00    -0.064 C 
ATOM     23  N   UNL     1     -11.533  19.654  -4.750  0.00  0.00    +0.379 N 
ATOM     24  C   UNL     1     -12.822  20.160  -5.244  0.00  0.00    -0.096 C 
ATOM     25  H   UNL     1     -10.894  20.534  -4.508  0.00  0.00    -0.082 HD
ATOM     26  C   UNL     1     -11.666  18.819  -3.484  0.00  0.00    -0.064 C 
ATOM     27  C   UNL     1     -10.275  18.318  -3.003  0.00  0.00    +0.066 C 
ENDBRANCH  19  20
ENDBRANCH  18  19
ENDBRANCH  14  15
ENDBRANCH  12  13
TORSDOF 6
ENDMDL
MODEL 5
REMARK VINA RESULT:      -8.8      9.757     15.186
REMARK  Name = C:\Users\Docking\Desktop\test protocol\1iep_ligandH.pdb
REMARK  8 active torsions:
REMARK  status: ('A' for Active; 'I' for Inactive)
REMARK    1  A    between atoms: _5  and  _11
REMARK    2  A    between atoms: _19  and  _21
REMARK    3  A    between atoms: _22  and  _66
REMARK    4  A    between atoms: _27  and  _30
REMARK    5  A    between atoms: _32  and  _33
REMARK    6  A    between atoms: _38  and  _43
REMARK    7  A    between atoms: _43  and  _46
REMARK    8  A    between atoms: _53  and  _55
REMARK                            x       y       z     vdW  Elec       q    Type
REMARK                         _______ _______ _______ _____ _____    ______ ____
ROOT
ATOM     10  C   UNL     1      -7.321  11.914   2.191  0.00  0.00    +0.038 A 
ATOM     11  C   UNL     1      -7.637  10.554   1.943  0.00  0.00    +0.047 A 
ATOM     12  C   UNL     1      -7.639   9.574   3.018  0.00  0.00    +0.035 A 
ATOM     32  C   UNL     1      -7.317  10.015   4.334  0.00  0.00    +0.024 A 
ATOM     33  C   UNL     1      -6.993  11.393   4.604  0.00  0.00    +0.007 A 
ATOM     34  C   UNL     1      -6.986  12.364   3.547  0.00  0.00    -0.029 A 
ATOM     35  C   UNL     1      -6.624  13.827   3.893  0.00  0.00    +0.045 C 
ENDROOT
BRANCH  10   9
ATOM      4  C   UNL     1      -9.451  15.287  -0.479  0.00  0.00    +0.077 A 
ATOM      5  C   UNL     1     -10.649  15.236   0.307  0.00  0.00    +0.048 A 
ATOM      6  C   UNL     1     -10.680  14.323   1.386  0.00  0.00    +0.116 A 
ATOM      7  N   UNL     1      -9.587  13.526   1.649  0.00  0.00    -0.223 NA
ATOM      8  C   UNL     1      -8.447  13.599   0.870  0.00  0.00    +0.220 A 
ATOM      9  N   UNL     1      -7.333  12.812   1.121  0.00  0.00    -0.283 N 
ATOM     36  H   UNL     1      -6.514  12.891   0.519  0.00  0.00    +0.155 HD
ATOM     37  N   UNL     1      -8.393  14.461  -0.167  0.00  0.00    -0.214 NA
BRANCH   4   3
ATOM      1  C   UNL     1      -8.254  16.799  -3.882  0.00  0.00    +0.020 A 
ATOM      2  C   UNL     1      -8.398  15.880  -2.776  0.00  0.00    +0.013 A 
ATOM      3  C   UNL     1      -9.264  16.202  -1.649  0.00  0.00    +0.019 A 
ATOM     38  C   UNL     1      -9.975  17.471  -1.672  0.00  0.00    +0.120 A 
ATOM     39  N   UNL     1      -9.815  18.337  -2.749  0.00  0.00    -0.263 NA
ATOM     40  C   UNL     1      -8.984  18.038  -3.839  0.00  0.00    +0.111 A 
ENDBRANCH   4   3
ENDBRANCH  10   9
BRANCH  12  13
ATOM     13  N   UNL     1      -7.944   8.178   2.825  0.00  0.00    -0.281 N 
ATOM     14  C   UNL     1      -9.169   7.546   2.967  0.00  0.00    +0.248 C 
ATOM     30  O   UNL     1     -10.150   8.051   3.491  0.00  0.00    -0.270 OA
ATOM     31  H   UNL     1      -7.162   7.583   2.550  0.00  0.00    +0.155 HD
BRANCH  14  15
ATOM     15  C   UNL     1      -9.321   6.146   2.466  0.00  0.00    +0.037 A 
ATOM     16  C   UNL     1     -10.645   5.556   2.250  0.00  0.00    +0.013 A 
ATOM     17  C   UNL     1     -10.764   4.198   1.783  0.00  0.00    +0.005 A 
ATOM     18  C   UNL     1      -9.554   3.420   1.527  0.00  0.00    -0.033 A 
ATOM     28  C   UNL     1      -8.254   4.032   1.744  0.00  0.00    +0.005 A 
ATOM     29  C   UNL     1      -8.133   5.363   2.203  0.00  0.00    +0.013 A 
BRANCH  18  19
ATOM     19  C   UNL     1      -9.587   1.957   1.047  0.00  0.00    +0.119 C 
BRANCH  19  20
ATOM     20  N   UNL     1     -10.923   1.296   0.956  0.00  0.00    -0.302 NA
ATOM     21  C   UNL     1     -10.916  -0.102   1.579  0.00  0.00    +0.066 C 
ATOM     22  C   UNL     1     -12.327  -0.770   1.496  0.00  0.00    -0.064 C 
ATOM     23  N   UNL     1     -12.774  -0.830   0.034  0.00  0.00    +0.379 N 
ATOM     24  C   UNL     1     -14.075  -1.509  -0.053  0.00  0.00    -0.096 C 
ATOM     25  H   UNL     1     -12.032  -1.449  -0.521  0.00  0.00    -0.082 HD
ATOM     26  C   UNL     1     -12.782   0.556  -0.594  0.00  0.00    -0.064 C 
ATOM     27  C   UNL     1     -11.382   1.223  -0.479  0.00  0.00    +0.066 C 
ENDBRANCH  19  20
ENDBRANCH  18  19
ENDBRANCH  14  15
ENDBRANCH  12  13
TORSDOF 6
ENDMDL
