MODEL 1
REMARK VINA RESULT:      -9.2      0.000      0.000
REMARK  Name = C:\Users\Docking\Desktop\test protocol\1iep_ligandH.pdb
REMARK  8 active torsions:
REMARK  status: ('A' for Active; 'I' for Inactive)
REMARK    1  A    between atoms: _5  and  _11
REMARK    2  A    between atoms: _19  and  _21
REMARK    3  A    between atoms: _22  and  _66
REMARK    4  A    between atoms: _27  and  _30
REMARK    5  A    between atoms: _32  and  _33
REMARK    6  A    between atoms: _38  and  _43
REMARK    7  A    between atoms: _43  and  _46
REMARK    8  A    between atoms: _53  and  _55
REMARK                            x       y       z     vdW  Elec       q    Type
REMARK                         _______ _______ _______ _____ _____    ______ ____
ROOT
ATOM     10  C   UNL     1       2.117   7.401  10.543  0.00  0.00    +0.038 A 
ATOM     11  C   UNL     1       1.339   6.222  10.667  0.00  0.00    +0.047 A 
ATOM     12  C   UNL     1       0.505   5.751   9.572  0.00  0.00    +0.035 A 
ATOM     32  C   UNL     1       0.490   6.504   8.362  0.00  0.00    +0.024 A 
ATOM     33  C   UNL     1       1.273   7.706   8.219  0.00  0.00    +0.007 A 
ATOM     34  C   UNL     1       2.096   8.177   9.297  0.00  0.00    -0.029 A 
ATOM     35  C   UNL     1       2.910   9.475   9.089  0.00  0.00    +0.045 C 
ENDROOT
BRANCH  10   9
ATOM      4  C   UNL     1       2.813   9.982  14.529  0.00  0.00    +0.077 A 
ATOM      5  C   UNL     1       1.518  10.592  14.431  0.00  0.00    +0.048 A 
ATOM      6  C   UNL     1       0.707  10.221  13.335  0.00  0.00    +0.116 A 
ATOM      7  N   UNL     1       1.166   9.305  12.413  0.00  0.00    -0.223 NA
ATOM      8  C   UNL     1       2.420   8.736  12.537  0.00  0.00    +0.220 A 
ATOM      9  N   UNL     1       2.899   7.807  11.626  0.00  0.00    -0.283 N 
ATOM     36  H   UNL     1       3.833   7.416  11.748  0.00  0.00    +0.155 HD
ATOM     37  N   UNL     1       3.215   9.076  13.573  0.00  0.00    -0.214 NA
BRANCH   4   3
ATOM      1  C   UNL     1       5.310   9.557  17.510  0.00  0.00    +0.020 A 
ATOM      2  C   UNL     1       4.376   9.225  16.458  0.00  0.00    +0.013 A 
ATOM      3  C   UNL     1       3.784  10.269  15.631  0.00  0.00    +0.019 A 
ATOM     38  C   UNL     1       4.162  11.649  15.896  0.00  0.00    +0.120 A 
ATOM     39  N   UNL     1       5.063  11.939  16.916  0.00  0.00    -0.263 NA
ATOM     40  C   UNL     1       5.637  10.942  17.720  0.00  0.00    +0.111 A 
ENDBRANCH   4   3
ENDBRANCH  10   9
BRANCH  12  13
ATOM     13  N   UNL     1      -0.313   4.565   9.644  0.00  0.00    -0.281 N 
ATOM     14  C   UNL     1      -1.579   4.371   9.118  0.00  0.00    +0.248 C 
ATOM     30  O   UNL     1      -2.293   5.265   8.687  0.00  0.00    -0.270 OA
ATOM     31  H   UNL     1       0.092   3.772  10.143  0.00  0.00    +0.155 HD
BRANCH  14  15
ATOM     15  C   UNL     1      -2.140   2.986   9.078  0.00  0.00    +0.037 A 
ATOM     16  C   UNL     1      -1.949   2.056  10.194  0.00  0.00    +0.013 A 
ATOM     17  C   UNL     1      -2.486   0.721  10.122  0.00  0.00    +0.005 A 
ATOM     18  C   UNL     1      -3.221   0.307   8.929  0.00  0.00    -0.033 A 
ATOM     28  C   UNL     1      -3.401   1.252   7.839  0.00  0.00    +0.005 A 
ATOM     29  C   UNL     1      -2.875   2.562   7.905  0.00  0.00    +0.013 A 
BRANCH  18  19
ATOM     19  C   UNL     1      -3.811  -1.105   8.757  0.00  0.00    +0.119 C 
BRANCH  19  20
ATOM     20  N   UNL     1      -5.250  -1.203   8.370  0.00  0.00    -0.302 NA
ATOM     21  C   UNL     1      -6.143  -1.553   9.563  0.00  0.00    +0.066 C 
ATOM     22  C   UNL     1      -7.648  -1.630   9.144  0.00  0.00    -0.064 C 
ATOM     23  N   UNL     1      -7.811  -2.659   8.025  0.00  0.00    +0.379 N 
ATOM     24  C   UNL     1      -9.233  -2.775   7.669  0.00  0.00    -0.096 C 
ATOM     25  H   UNL     1      -7.480  -3.646   8.423  0.00  0.00    -0.082 HD
ATOM     26  C   UNL     1      -6.924  -2.320   6.836  0.00  0.00    -0.064 C 
ATOM     27  C   UNL     1      -5.435  -2.218   7.268  0.00  0.00    +0.066 C 
ENDBRANCH  19  20
ENDBRANCH  18  19
ENDBRANCH  14  15
ENDBRANCH  12  13
TORSDOF 6
ENDMDL
MODEL 2
REMARK VINA RESULT:      -8.9      1.619      2.321
REMARK  Name = C:\Users\Docking\Desktop\test protocol\1iep_ligandH.pdb
REMARK  8 active torsions:
REMARK  status: ('A' for Active; 'I' for Inactive)
REMARK    1  A    between atoms: _5  and  _11
REMARK    2  A    between atoms: _19  and  _21
REMARK    3  A    between atoms: _22  and  _66
REMARK    4  A    between atoms: _27  and  _30
REMARK    5  A    between atoms: _32  and  _33
REMARK    6  A    between atoms: _38  and  _43
REMARK    7  A    between atoms: _43  and  _46
REMARK    8  A    between atoms: _53  and  _55
REMARK                            x       y       z     vdW  Elec       q    Type
REMARK                         _______ _______ _______ _____ _____    ______ ____
ROOT
ATOM     10  C   UNL     1       2.255   9.103  10.551  0.00  0.00    +0.038 A 
ATOM     11  C   UNL     1       1.553   7.871  10.579  0.00  0.00    +0.047 A 
ATOM     12  C   UNL     1       1.099   7.236   9.351  0.00  0.00    +0.035 A 
ATOM     32  C   UNL     1       1.381   7.881   8.112  0.00  0.00    +0.024 A 
ATOM     33  C   UNL     1       2.093   9.134   8.066  0.00  0.00    +0.007 A 
ATOM     34  C   UNL     1       2.541   9.767   9.273  0.00  0.00    -0.029 A 
ATOM     35  C   UNL     1       3.294  11.113   9.164  0.00  0.00    +0.045 C 
ENDROOT
BRANCH  10   9
ATOM      4  C   UNL     1       3.501   8.767  15.174  0.00  0.00    +0.077 A 
ATOM      5  C   UNL     1       3.286   7.348  15.190  0.00  0.00    +0.048 A 
ATOM      6  C   UNL     1       2.849   6.745  13.990  0.00  0.00    +0.116 A 
ATOM      7  N   UNL     1       2.644   7.512  12.863  0.00  0.00    -0.223 NA
ATOM      8  C   UNL     1       2.859   8.878  12.883  0.00  0.00    +0.220 A 
ATOM      9  N   UNL     1       2.667   9.668  11.760  0.00  0.00    -0.283 N 
ATOM     36  H   UNL     1       2.829  10.673  11.817  0.00  0.00    +0.155 HD
ATOM     37  N   UNL     1       3.276   9.478  14.017  0.00  0.00    -0.214 NA
BRANCH   4   3
ATOM      1  C   UNL     1       5.378   9.842  18.433  0.00  0.00    +0.020 A 
ATOM      2  C   UNL     1       4.962   9.047  17.301  0.00  0.00    +0.013 A 
ATOM      3  C   UNL     1       3.966   9.549  16.363  0.00  0.00    +0.019 A 
ATOM     38  C   UNL     1       3.406  10.870  16.600  0.00  0.00    +0.120 A 
ATOM     39  N   UNL     1       3.824  11.613  17.700  0.00  0.00    -0.263 NA
ATOM     40  C   UNL     1       4.781  11.140  18.610  0.00  0.00    +0.111 A 
ENDBRANCH   4   3
ENDBRANCH  10   9
BRANCH  12  13
ATOM     13  N   UNL     1       0.374   5.990   9.318  0.00  0.00    -0.281 N 
ATOM     14  C   UNL     1       0.849   4.720   9.606  0.00  0.00    +0.248 C 
ATOM     30  O   UNL     1       2.031   4.436   9.730  0.00  0.00    -0.270 OA
ATOM     31  H   UNL     1      -0.608   6.051   9.049  0.00  0.00    +0.155 HD
BRANCH  14  15
ATOM     15  C   UNL     1      -0.130   3.602   9.764  0.00  0.00    +0.037 A 
ATOM     16  C   UNL     1      -1.528   3.752   9.352  0.00  0.00    +0.013 A 
ATOM     17  C   UNL     1      -2.456   2.663   9.532  0.00  0.00    +0.005 A 
ATOM     18  C   UNL     1      -1.987   1.414  10.126  0.00  0.00    -0.033 A 
ATOM     28  C   UNL     1      -0.594   1.291  10.521  0.00  0.00    +0.005 A 
ATOM     29  C   UNL     1       0.318   2.356  10.348  0.00  0.00    +0.013 A 
BRANCH  18  19
ATOM     19  C   UNL     1      -2.912   0.208  10.375  0.00  0.00    +0.119 C 
BRANCH  19  20
ATOM     20  N   UNL     1      -3.926  -0.105   9.324  0.00  0.00    -0.302 NA
ATOM     21  C   UNL     1      -4.882  -1.219   9.761  0.00  0.00    +0.066 C 
ATOM     22  C   UNL     1      -5.950  -1.517   8.659  0.00  0.00    -0.064 C 
ATOM     23  N   UNL     1      -5.243  -1.890   7.355  0.00  0.00    +0.379 N 
ATOM     24  C   UNL     1      -6.245  -2.228   6.333  0.00  0.00    -0.096 C 
ATOM     25  H   UNL     1      -4.636  -2.805   7.550  0.00  0.00    -0.082 HD
ATOM     26  C   UNL     1      -4.289  -0.789   6.915  0.00  0.00    -0.064 C 
ATOM     27  C   UNL     1      -3.250  -0.480   8.029  0.00  0.00    +0.066 C 
ENDBRANCH  19  20
ENDBRANCH  18  19
ENDBRANCH  14  15
ENDBRANCH  12  13
TORSDOF 6
ENDMDL
MODEL 3
REMARK VINA RESULT:      -8.8     13.195     16.837
REMARK  Name = C:\Users\Docking\Desktop\test protocol\1iep_ligandH.pdb
REMARK  8 active torsions:
REMARK  status: ('A' for Active; 'I' for Inactive)
REMARK    1  A    between atoms: _5  and  _11
REMARK    2  A    between atoms: _19  and  _21
REMARK    3  A    between atoms: _22  and  _66
REMARK    4  A    between atoms: _27  and  _30
REMARK    5  A    between atoms: _32  and  _33
REMARK    6  A    between atoms: _38  and  _43
REMARK    7  A    between atoms: _43  and  _46
REMARK    8  A    between atoms: _53  and  _55
REMARK                            x       y       z     vdW  Elec       q    Type
REMARK                         _______ _______ _______ _____ _____    ______ ____
ROOT
ATOM     10  C   UNL     1      -6.543  10.845   4.811  0.00  0.00    +0.038 A 
ATOM     11  C   UNL     1      -6.736  11.335   3.494  0.00  0.00    +0.047 A 
ATOM     12  C   UNL     1      -6.982  12.747   3.245  0.00  0.00    +0.035 A 
ATOM     32  C   UNL     1      -7.023  13.633   4.361  0.00  0.00    +0.024 A 
ATOM     33  C   UNL     1      -6.831  13.152   5.706  0.00  0.00    +0.007 A 
ATOM     34  C   UNL     1      -6.590  11.759   5.959  0.00  0.00    -0.029 A 
ATOM     35  C   UNL     1      -6.398  11.299   7.422  0.00  0.00    +0.045 C 
ENDROOT
BRANCH  10   9
ATOM      4  C   UNL     1      -3.612   7.103   5.475  0.00  0.00    +0.077 A 
ATOM      5  C   UNL     1      -2.444   7.934   5.430  0.00  0.00    +0.048 A 
ATOM      6  C   UNL     1      -2.640   9.319   5.227  0.00  0.00    +0.116 A 
ATOM      7  N   UNL     1      -3.914   9.823   5.081  0.00  0.00    -0.223 NA
ATOM      8  C   UNL     1      -5.019   8.993   5.129  0.00  0.00    +0.220 A 
ATOM      9  N   UNL     1      -6.311   9.480   4.993  0.00  0.00    -0.283 N 
ATOM     36  H   UNL     1      -7.099   8.834   5.026  0.00  0.00    +0.155 HD
ATOM     37  N   UNL     1      -4.858   7.667   5.320  0.00  0.00    -0.214 NA
BRANCH   4   3
ATOM      1  C   UNL     1      -2.896   3.567   6.986  0.00  0.00    +0.020 A 
ATOM      2  C   UNL     1      -2.909   5.003   6.829  0.00  0.00    +0.013 A 
ATOM      3  C   UNL     1      -3.568   5.621   5.686  0.00  0.00    +0.019 A 
ATOM     38  C   UNL     1      -4.211   4.751   4.712  0.00  0.00    +0.120 A 
ATOM     39  N   UNL     1      -4.180   3.372   4.889  0.00  0.00    -0.263 NA
ATOM     40  C   UNL     1      -3.548   2.765   5.984  0.00  0.00    +0.111 A 
ENDBRANCH   4   3
ENDBRANCH  10   9
BRANCH  12  13
ATOM     13  N   UNL     1      -7.192  13.301   1.931  0.00  0.00    -0.281 N 
ATOM     14  C   UNL     1      -8.391  13.676   1.346  0.00  0.00    +0.248 C 
ATOM     30  O   UNL     1      -9.494  13.392   1.789  0.00  0.00    -0.270 OA
ATOM     31  H   UNL     1      -6.356  13.432   1.361  0.00  0.00    +0.155 HD
BRANCH  14  15
ATOM     15  C   UNL     1      -8.360  14.470   0.080  0.00  0.00    +0.037 A 
ATOM     16  C   UNL     1      -8.103  15.912   0.093  0.00  0.00    +0.013 A 
ATOM     17  C   UNL     1      -8.095  16.657  -1.141  0.00  0.00    +0.005 A 
ATOM     18  C   UNL     1      -8.344  15.958  -2.400  0.00  0.00    -0.033 A 
ATOM     28  C   UNL     1      -8.591  14.526  -2.385  0.00  0.00    +0.005 A 
ATOM     29  C   UNL     1      -8.600  13.793  -1.177  0.00  0.00    +0.013 A 
BRANCH  18  19
ATOM     19  C   UNL     1      -8.376  16.676  -3.762  0.00  0.00    +0.119 C 
BRANCH  19  20
ATOM     20  N   UNL     1      -8.619  18.150  -3.753  0.00  0.00    -0.302 NA
ATOM     21  C   UNL     1     -10.096  18.490  -3.971  0.00  0.00    +0.066 C 
ATOM     22  C   UNL     1     -10.335  20.034  -3.936  0.00  0.00    -0.064 C 
ATOM     23  N   UNL     1      -9.463  20.707  -4.997  0.00  0.00    +0.379 N 
ATOM     24  C   UNL     1      -9.729  22.153  -5.006  0.00  0.00    -0.096 C 
ATOM     25  H   UNL     1      -9.766  20.301  -5.990  0.00  0.00    -0.082 HD
ATOM     26  C   UNL     1      -7.993  20.372  -4.790  0.00  0.00    -0.064 C 
ATOM     27  C   UNL     1      -7.770  18.834  -4.797  0.00  0.00    +0.066 C 
ENDBRANCH  19  20
ENDBRANCH  18  19
ENDBRANCH  14  15
ENDBRANCH  12  13
TORSDOF 6
ENDMDL
MODEL 4
REMARK VINA RESULT:      -8.7     12.203     15.090
REMARK  Name = C:\Users\Docking\Desktop\test protocol\1iep_ligandH.pdb
REMARK  8 active torsions:
REMARK  status: ('A' for Active; 'I' for Inactive)
REMARK    1  A    between atoms: _5  and  _11
REMARK    2  A    between atoms: _19  and  _21
REMARK    3  A    between atoms: _22  and  _66
REMARK    4  A    between atoms: _27  and  _30
REMARK    5  A    between atoms: _32  and  _33
REMARK    6  A    between atoms: _38  and  _43
REMARK    7  A    between atoms: _43  and  _46
REMARK    8  A    between atoms: _53  and  _55
REMARK                            x       y       z     vdW  Elec       q    Type
REMARK                         _______ _______ _______ _____ _____    ______ ____
ROOT
ATOM     10  C   UNL     1      -8.265  11.571   3.212  0.00  0.00    +0.038 A 
ATOM     11  C   UNL     1      -8.476  10.217   2.847  0.00  0.00    +0.047 A 
ATOM     12  C   UNL     1      -7.657   9.151   3.405  0.00  0.00    +0.035 A 
ATOM     32  C   UNL     1      -6.633   9.501   4.333  0.00  0.00    +0.024 A 
ATOM     33  C   UNL     1      -6.404  10.873   4.713  0.00  0.00    +0.007 A 
ATOM     34  C   UNL     1      -7.207  11.928   4.165  0.00  0.00    -0.029 A 
ATOM     35  C   UNL     1      -6.913  13.382   4.604  0.00  0.00    +0.045 C 
ENDROOT
BRANCH  10   9
ATOM      4  C   UNL     1      -9.574  14.399  -0.439  0.00  0.00    +0.077 A 
ATOM      5  C   UNL     1      -8.527  13.896  -1.282  0.00  0.00    +0.048 A 
ATOM      6  C   UNL     1      -7.670  12.915  -0.735  0.00  0.00    +0.116 A 
ATOM      7  N   UNL     1      -7.854  12.477   0.558  0.00  0.00    -0.223 NA
ATOM      8  C   UNL     1      -8.872  12.985   1.345  0.00  0.00    +0.220 A 
ATOM      9  N   UNL     1      -9.080  12.554   2.646  0.00  0.00    -0.283 N 
ATOM     36  H   UNL     1      -9.838  12.958   3.196  0.00  0.00    +0.155 HD
ATOM     37  N   UNL     1      -9.703  13.923   0.847  0.00  0.00    -0.214 NA
BRANCH   4   3
ATOM      1  C   UNL     1     -11.176  17.762  -1.632  0.00  0.00    +0.020 A 
ATOM      2  C   UNL     1     -10.182  16.800  -1.217  0.00  0.00    +0.013 A 
ATOM      3  C   UNL     1     -10.563  15.435  -0.874  0.00  0.00    +0.019 A 
ATOM     38  C   UNL     1     -11.970  15.074  -0.962  0.00  0.00    +0.120 A 
ATOM     39  N   UNL     1     -12.905  16.023  -1.363  0.00  0.00    -0.263 NA
ATOM     40  C   UNL     1     -12.551  17.339  -1.694  0.00  0.00    +0.111 A 
ENDBRANCH   4   3
ENDBRANCH  10   9
BRANCH  12  13
ATOM     13  N   UNL     1      -7.819   7.759   3.066  0.00  0.00    -0.281 N 
ATOM     14  C   UNL     1      -8.870   6.919   3.397  0.00  0.00    +0.248 C 
ATOM     30  O   UNL     1      -9.734   7.184   4.220  0.00  0.00    -0.270 OA
ATOM     31  H   UNL     1      -7.068   7.342   2.516  0.00  0.00    +0.155 HD
BRANCH  14  15
ATOM     15  C   UNL     1      -8.968   5.587   2.726  0.00  0.00    +0.037 A 
ATOM     16  C   UNL     1      -7.774   4.782   2.458  0.00  0.00    +0.013 A 
ATOM     17  C   UNL     1      -7.895   3.508   1.794  0.00  0.00    +0.005 A 
ATOM     18  C   UNL     1      -9.217   3.031   1.396  0.00  0.00    -0.033 A 
ATOM     28  C   UNL     1     -10.386   3.848   1.679  0.00  0.00    +0.005 A 
ATOM     29  C   UNL     1     -10.271   5.097   2.328  0.00  0.00    +0.013 A 
BRANCH  18  19
ATOM     19  C   UNL     1      -9.438   1.693   0.664  0.00  0.00    +0.119 C 
BRANCH  19  20
ATOM     20  N   UNL     1     -10.814   1.113   0.701  0.00  0.00    -0.302 NA
ATOM     21  C   UNL     1     -10.818  -0.320   1.240  0.00  0.00    +0.066 C 
ATOM     22  C   UNL     1     -12.268  -0.904   1.293  0.00  0.00    -0.064 C 
ATOM     23  N   UNL     1     -12.888  -0.849  -0.104  0.00  0.00    +0.379 N 
ATOM     24  C   UNL     1     -14.229  -1.450  -0.069  0.00  0.00    -0.096 C 
ATOM     25  H   UNL     1     -12.256  -1.471  -0.779  0.00  0.00    -0.082 HD
ATOM     26  C   UNL     1     -12.885   0.572  -0.649  0.00  0.00    -0.064 C 
ATOM     27  C   UNL     1     -11.444   1.153  -0.669  0.00  0.00    +0.066 C 
ENDBRANCH  19  20
ENDBRANCH  18  19
ENDBRANCH  14  15
ENDBRANCH  12  13
TORSDOF 6
ENDMDL
MODEL 5
REMARK VINA RESULT:      -8.6      4.256      5.540
REMARK  Name = C:\Users\Docking\Desktop\test protocol\1iep_ligandH.pdb
REMARK  8 active torsions:
REMARK  status: ('A' for Active; 'I' for Inactive)
REMARK    1  A    between atoms: _5  and  _11
REMARK    2  A    between atoms: _19  and  _21
REMARK    3  A    between atoms: _22  and  _66
REMARK    4  A    between atoms: _27  and  _30
REMARK    5  A    between atoms: _32  and  _33
REMARK    6  A    between atoms: _38  and  _43
REMARK    7  A    between atoms: _43  and  _46
REMARK    8  A    between atoms: _53  and  _55
REMARK                            x       y       z     vdW  Elec       q    Type
REMARK                         _______ _______ _______ _____ _____    ______ ____
ROOT
ATOM     10  C   UNL     1       1.963   8.324   9.826  0.00  0.00    +0.038 A 
ATOM     11  C   UNL     1       1.089   7.783   8.848  0.00  0.00    +0.047 A 
ATOM     12  C   UNL     1       0.472   6.478   9.030  0.00  0.00    +0.035 A 
ATOM     32  C   UNL     1       0.766   5.752  10.221  0.00  0.00    +0.024 A 
ATOM     33  C   UNL     1       1.653   6.287  11.225  0.00  0.00    +0.007 A 
ATOM     34  C   UNL     1       2.266   7.572  11.050  0.00  0.00    -0.029 A 
ATOM     35  C   UNL     1       3.213   8.093  12.155  0.00  0.00    +0.045 C 
ENDROOT
BRANCH  10   9
ATOM      4  C   UNL     1       1.838  13.118  10.030  0.00  0.00    +0.077 A 
ATOM      5  C   UNL     1       0.527  13.118  10.611  0.00  0.00    +0.048 A 
ATOM      6  C   UNL     1      -0.084  11.863  10.835  0.00  0.00    +0.116 A 
ATOM      7  N   UNL     1       0.577  10.702  10.499  0.00  0.00    -0.223 NA
ATOM      8  C   UNL     1       1.841  10.737   9.938  0.00  0.00    +0.220 A 
ATOM      9  N   UNL     1       2.527   9.581   9.600  0.00  0.00    -0.283 N 
ATOM     36  H   UNL     1       3.454   9.650   9.181  0.00  0.00    +0.155 HD
ATOM     37  N   UNL     1       2.445  11.923   9.713  0.00  0.00    -0.214 NA
BRANCH   4   3
ATOM      1  C   UNL     1       4.723  15.578   9.069  0.00  0.00    +0.020 A 
ATOM      2  C   UNL     1       4.019  14.347   9.342  0.00  0.00    +0.013 A 
ATOM      3  C   UNL     1       2.615  14.363   9.735  0.00  0.00    +0.019 A 
ATOM     38  C   UNL     1       1.949  15.652   9.843  0.00  0.00    +0.120 A 
ATOM     39  N   UNL     1       2.653  16.821   9.574  0.00  0.00    -0.263 NA
ATOM     40  C   UNL     1       4.004  16.818   9.197  0.00  0.00    +0.111 A 
ENDBRANCH   4   3
ENDBRANCH  10   9
BRANCH  12  13
ATOM     13  N   UNL     1      -0.417   5.874   8.069  0.00  0.00    -0.281 N 
ATOM     14  C   UNL     1      -1.618   5.227   8.309  0.00  0.00    +0.248 C 
ATOM     30  O   UNL     1      -2.007   4.880   9.414  0.00  0.00    -0.270 OA
ATOM     31  H   UNL     1      -0.125   5.930   7.093  0.00  0.00    +0.155 HD
BRANCH  14  15
ATOM     15  C   UNL     1      -2.508   4.905   7.152  0.00  0.00    +0.037 A 
ATOM     16  C   UNL     1      -2.927   3.529   6.875  0.00  0.00    +0.013 A 
ATOM     17  C   UNL     1      -3.773   3.244   5.743  0.00  0.00    +0.005 A 
ATOM     18  C   UNL     1      -4.206   4.340   4.879  0.00  0.00    -0.033 A 
ATOM     28  C   UNL     1      -3.780   5.696   5.180  0.00  0.00    +0.005 A 
ATOM     29  C   UNL     1      -2.950   5.979   6.288  0.00  0.00    +0.013 A 
BRANCH  18  19
ATOM     19  C   UNL     1      -5.091   4.126   3.637  0.00  0.00    +0.119 C 
BRANCH  19  20
ATOM     20  N   UNL     1      -6.137   3.063   3.718  0.00  0.00    -0.302 NA
ATOM     21  C   UNL     1      -6.771   2.776   2.354  0.00  0.00    +0.066 C 
ATOM     22  C   UNL     1      -7.847   1.646   2.453  0.00  0.00    -0.064 C 
ATOM     23  N   UNL     1      -8.914   2.049   3.472  0.00  0.00    +0.379 N 
ATOM     24  C   UNL     1      -9.958   1.015   3.525  0.00  0.00    -0.096 C 
ATOM     25  H   UNL     1      -9.389   2.991   3.110  0.00  0.00    -0.082 HD
ATOM     26  C   UNL     1      -8.292   2.339   4.831  0.00  0.00    -0.064 C 
ATOM     27  C   UNL     1      -7.203   3.442   4.716  0.00  0.00    +0.066 C 
ENDBRANCH  19  20
ENDBRANCH  18  19
ENDBRANCH  14  15
ENDBRANCH  12  13
TORSDOF 6
ENDMDL
