MODEL 1
REMARK VINA RESULT:      -8.5      0.000      0.000
REMARK  Name = C:\Users\Docking\Desktop\test protocol\1iep_ligandH.pdb
REMARK  8 active torsions:
REMARK  status: ('A' for Active; 'I' for Inactive)
REMARK    1  A    between atoms: _5  and  _11
REMARK    2  A    between atoms: _19  and  _21
REMARK    3  A    between atoms: _22  and  _66
REMARK    4  A    between atoms: _27  and  _30
REMARK    5  A    between atoms: _32  and  _33
REMARK    6  A    between atoms: _38  and  _43
REMARK    7  A    between atoms: _43  and  _46
REMARK    8  A    between atoms: _53  and  _55
REMARK                            x       y       z     vdW  Elec       q    Type
REMARK                         _______ _______ _______ _____ _____    ______ ____
ROOT
ATOM     10  C   UNL     1      -1.245  -0.097 -39.754  0.00  0.00    +0.038 A 
ATOM     11  C   UNL     1      -1.454  -1.499 -39.707  0.00  0.00    +0.047 A 
ATOM     12  C   UNL     1      -2.655  -2.100 -40.267  0.00  0.00    +0.035 A 
ATOM     32  C   UNL     1      -3.621  -1.243 -40.871  0.00  0.00    +0.024 A 
ATOM     33  C   UNL     1      -3.424   0.184 -40.926  0.00  0.00    +0.007 A 
ATOM     34  C   UNL     1      -2.243   0.783 -40.373  0.00  0.00    -0.029 A 
ATOM     35  C   UNL     1      -2.089   2.319 -40.455  0.00  0.00    +0.045 C 
ENDROOT
BRANCH  10   9
ATOM      4  C   UNL     1       3.490   0.687 -39.829  0.00  0.00    +0.077 A 
ATOM      5  C   UNL     1       3.648  -0.029 -41.062  0.00  0.00    +0.048 A 
ATOM      6  C   UNL     1       2.488  -0.590 -41.640  0.00  0.00    +0.116 A 
ATOM      7  N   UNL     1       1.265  -0.440 -41.023  0.00  0.00    -0.223 NA
ATOM      8  C   UNL     1       1.147   0.255 -39.834  0.00  0.00    +0.220 A 
ATOM      9  N   UNL     1      -0.074   0.426 -39.200  0.00  0.00    -0.283 N 
ATOM     36  H   UNL     1      -0.118   0.939 -38.320  0.00  0.00    +0.155 HD
ATOM     37  N   UNL     1       2.241   0.799 -39.261  0.00  0.00    -0.214 NA
BRANCH   4   3
ATOM      1  C   UNL     1       5.603   2.526 -37.099  0.00  0.00    +0.020 A 
ATOM      2  C   UNL     1       4.478   1.907 -37.762  0.00  0.00    +0.013 A 
ATOM      3  C   UNL     1       4.621   1.339 -39.097  0.00  0.00    +0.019 A 
ATOM     38  C   UNL     1       5.926   1.413 -39.738  0.00  0.00    +0.120 A 
ATOM     39  N   UNL     1       6.990   2.017 -39.075  0.00  0.00    -0.263 NA
ATOM     40  C   UNL     1       6.864   2.568 -37.791  0.00  0.00    +0.111 A 
ENDBRANCH   4   3
ENDBRANCH  10   9
BRANCH  12  13
ATOM     13  N   UNL     1      -2.926  -3.516 -40.242  0.00  0.00    -0.281 N 
ATOM     14  C   UNL     1      -4.088  -4.154 -39.840  0.00  0.00    +0.248 C 
ATOM     30  O   UNL     1      -5.001  -3.610 -39.237  0.00  0.00    -0.270 OA
ATOM     31  H   UNL     1      -2.168  -4.122 -40.558  0.00  0.00    +0.155 HD
BRANCH  14  15
ATOM     15  C   UNL     1      -4.254  -5.609 -40.139  0.00  0.00    +0.037 A 
ATOM     16  C   UNL     1      -5.030  -6.482 -39.256  0.00  0.00    +0.013 A 
ATOM     17  C   UNL     1      -5.160  -7.886 -39.558  0.00  0.00    +0.005 A 
ATOM     18  C   UNL     1      -4.513  -8.424 -40.752  0.00  0.00    -0.033 A 
ATOM     28  C   UNL     1      -3.753  -7.533 -41.614  0.00  0.00    +0.005 A 
ATOM     29  C   UNL     1      -3.622  -6.158 -41.320  0.00  0.00    +0.013 A 
BRANCH  18  19
ATOM     19  C   UNL     1      -4.580  -9.912 -41.142  0.00  0.00    +0.119 C 
BRANCH  19  20
ATOM     20  N   UNL     1      -4.248 -10.266 -42.554  0.00  0.00    -0.302 NA
ATOM     21  C   UNL     1      -5.332 -11.134 -43.199  0.00  0.00    +0.066 C 
ATOM     22  C   UNL     1      -4.979 -11.475 -44.684  0.00  0.00    -0.064 C 
ATOM     23  N   UNL     1      -3.621 -12.178 -44.733  0.00  0.00    +0.379 N 
ATOM     24  C   UNL     1      -3.312 -12.552 -46.121  0.00  0.00    -0.096 C 
ATOM     25  H   UNL     1      -3.705 -13.118 -44.140  0.00  0.00    -0.082 HD
ATOM     26  C   UNL     1      -2.538 -11.322 -44.091  0.00  0.00    -0.064 C 
ATOM     27  C   UNL     1      -2.912 -10.964 -42.626  0.00  0.00    +0.066 C 
ENDBRANCH  19  20
ENDBRANCH  18  19
ENDBRANCH  14  15
ENDBRANCH  12  13
TORSDOF 6
ENDMDL
MODEL 2
REMARK VINA RESULT:      -8.4     21.783     25.898
REMARK  Name = C:\Users\Docking\Desktop\test protocol\1iep_ligandH.pdb
REMARK  8 active torsions:
REMARK  status: ('A' for Active; 'I' for Inactive)
REMARK    1  A    between atoms: _5  and  _11
REMARK    2  A    between atoms: _19  and  _21
REMARK    3  A    between atoms: _22  and  _66
REMARK    4  A    between atoms: _27  and  _30
REMARK    5  A    between atoms: _32  and  _33
REMARK    6  A    between atoms: _38  and  _43
REMARK    7  A    between atoms: _43  and  _46
REMARK    8  A    between atoms: _53  and  _55
REMARK                            x       y       z     vdW  Elec       q    Type
REMARK                         _______ _______ _______ _____ _____    ______ ____
ROOT
ATOM     10  C   UNL     1      20.287  -0.225 -51.268  0.00  0.00    +0.038 A 
ATOM     11  C   UNL     1      19.872   1.120 -51.099  0.00  0.00    +0.047 A 
ATOM     12  C   UNL     1      20.142   1.842 -49.865  0.00  0.00    +0.035 A 
ATOM     32  C   UNL     1      20.841   1.163 -48.825  0.00  0.00    +0.024 A 
ATOM     33  C   UNL     1      21.269  -0.205 -48.979  0.00  0.00    +0.007 A 
ATOM     34  C   UNL     1      21.003  -0.923 -50.193  0.00  0.00    -0.029 A 
ATOM     35  C   UNL     1      21.480  -2.390 -50.301  0.00  0.00    +0.045 C 
ENDROOT
BRANCH  10   9
ATOM      4  C   UNL     1      17.452  -2.900 -54.069  0.00  0.00    +0.077 A 
ATOM      5  C   UNL     1      16.470  -3.048 -53.034  0.00  0.00    +0.048 A 
ATOM      6  C   UNL     1      16.735  -2.427 -51.793  0.00  0.00    +0.116 A 
ATOM      7  N   UNL     1      17.900  -1.712 -51.612  0.00  0.00    -0.223 NA
ATOM      8  C   UNL     1      18.827  -1.590 -52.631  0.00  0.00    +0.220 A 
ATOM      9  N   UNL     1      20.001  -0.870 -52.474  0.00  0.00    -0.283 N 
ATOM     36  H   UNL     1      20.663  -0.810 -53.247  0.00  0.00    +0.155 HD
ATOM     37  N   UNL     1      18.597  -2.176 -53.825  0.00  0.00    -0.214 NA
BRANCH   4   3
ATOM      1  C   UNL     1      17.645  -5.354 -57.109  0.00  0.00    +0.020 A 
ATOM      2  C   UNL     1      17.804  -4.826 -55.774  0.00  0.00    +0.013 A 
ATOM      3  C   UNL     1      17.313  -3.496 -55.435  0.00  0.00    +0.019 A 
ATOM     38  C   UNL     1      16.660  -2.721 -56.479  0.00  0.00    +0.120 A 
ATOM     39  N   UNL     1      16.522  -3.255 -57.756  0.00  0.00    -0.263 NA
ATOM     40  C   UNL     1      16.992  -4.533 -58.094  0.00  0.00    +0.111 A 
ENDBRANCH   4   3
ENDBRANCH  10   9
BRANCH  12  13
ATOM     13  N   UNL     1      19.738   3.206 -49.633  0.00  0.00    -0.281 N 
ATOM     14  C   UNL     1      18.715   3.665 -48.819  0.00  0.00    +0.248 C 
ATOM     30  O   UNL     1      17.850   2.954 -48.330  0.00  0.00    -0.270 OA
ATOM     31  H   UNL     1      20.271   3.921 -50.129  0.00  0.00    +0.155 HD
BRANCH  14  15
ATOM     15  C   UNL     1      18.633   5.126 -48.517  0.00  0.00    +0.037 A 
ATOM     16  C   UNL     1      17.447   5.910 -48.872  0.00  0.00    +0.013 A 
ATOM     17  C   UNL     1      17.401   7.322 -48.585  0.00  0.00    +0.005 A 
ATOM     18  C   UNL     1      18.544   7.959 -47.936  0.00  0.00    -0.033 A 
ATOM     28  C   UNL     1      19.706   7.156 -47.590  0.00  0.00    +0.005 A 
ATOM     29  C   UNL     1      19.755   5.773 -47.871  0.00  0.00    +0.013 A 
BRANCH  18  19
ATOM     19  C   UNL     1      18.590   9.463 -47.611  0.00  0.00    +0.119 C 
BRANCH  19  20
ATOM     20  N   UNL     1      17.404  10.284 -48.000  0.00  0.00    -0.302 NA
ATOM     21  C   UNL     1      17.808  11.661 -48.533  0.00  0.00    +0.066 C 
ATOM     22  C   UNL     1      16.557  12.497 -48.956  0.00  0.00    -0.064 C 
ATOM     23  N   UNL     1      15.611  12.634 -47.761  0.00  0.00    +0.379 N 
ATOM     24  C   UNL     1      14.461  13.469 -48.140  0.00  0.00    -0.096 C 
ATOM     25  H   UNL     1      16.164  13.166 -46.952  0.00  0.00    -0.082 HD
ATOM     26  C   UNL     1      15.207  11.269 -47.224  0.00  0.00    -0.064 C 
ATOM     27  C   UNL     1      16.459  10.435 -46.834  0.00  0.00    +0.066 C 
ENDBRANCH  19  20
ENDBRANCH  18  19
ENDBRANCH  14  15
ENDBRANCH  12  13
TORSDOF 6
ENDMDL
MODEL 3
REMARK VINA RESULT:      -8.2     21.745     24.687
REMARK  Name = C:\Users\Docking\Desktop\test protocol\1iep_ligandH.pdb
REMARK  8 active torsions:
REMARK  status: ('A' for Active; 'I' for Inactive)
REMARK    1  A    between atoms: _5  and  _11
REMARK    2  A    between atoms: _19  and  _21
REMARK    3  A    between atoms: _22  and  _66
REMARK    4  A    between atoms: _27  and  _30
REMARK    5  A    between atoms: _32  and  _33
REMARK    6  A    between atoms: _38  and  _43
REMARK    7  A    between atoms: _43  and  _46
REMARK    8  A    between atoms: _53  and  _55
REMARK                            x       y       z     vdW  Elec       q    Type
REMARK                         _______ _______ _______ _____ _____    ______ ____
ROOT
ATOM     10  C   UNL     1      17.878  -3.968 -51.461  0.00  0.00    +0.038 A 
ATOM     11  C   UNL     1      18.730  -5.030 -51.062  0.00  0.00    +0.047 A 
ATOM     12  C   UNL     1      18.897  -6.213 -51.891  0.00  0.00    +0.035 A 
ATOM     32  C   UNL     1      18.182  -6.282 -53.122  0.00  0.00    +0.024 A 
ATOM     33  C   UNL     1      17.310  -5.213 -53.543  0.00  0.00    +0.007 A 
ATOM     34  C   UNL     1      17.141  -4.044 -52.728  0.00  0.00    -0.029 A 
ATOM     35  C   UNL     1      16.189  -2.931 -53.225  0.00  0.00    +0.045 C 
ENDROOT
BRANCH  10   9
ATOM      4  C   UNL     1      19.399   0.277 -49.817  0.00  0.00    +0.077 A 
ATOM      5  C   UNL     1      20.549   0.263 -50.674  0.00  0.00    +0.048 A 
ATOM      6  C   UNL     1      20.717  -0.858 -51.518  0.00  0.00    +0.116 A 
ATOM      7  N   UNL     1      19.796  -1.883 -51.497  0.00  0.00    -0.223 NA
ATOM      8  C   UNL     1      18.698  -1.839 -50.657  0.00  0.00    +0.220 A 
ATOM      9  N   UNL     1      17.756  -2.855 -50.626  0.00  0.00    -0.283 N 
ATOM     36  H   UNL     1      16.964  -2.789 -49.987  0.00  0.00    +0.155 HD
ATOM     37  N   UNL     1      18.517  -0.780 -49.841  0.00  0.00    -0.214 NA
BRANCH   4   3
ATOM      1  C   UNL     1      18.633   2.309 -46.563  0.00  0.00    +0.020 A 
ATOM      2  C   UNL     1      18.939   1.197 -47.433  0.00  0.00    +0.013 A 
ATOM      3  C   UNL     1      19.082   1.393 -48.870  0.00  0.00    +0.019 A 
ATOM     38  C   UNL     1      18.910   2.738 -49.399  0.00  0.00    +0.120 A 
ATOM     39  N   UNL     1      18.614   3.789 -48.537  0.00  0.00    -0.263 NA
ATOM     40  C   UNL     1      18.472   3.612 -47.153  0.00  0.00    +0.111 A 
ENDBRANCH   4   3
ENDBRANCH  10   9
BRANCH  12  13
ATOM     13  N   UNL     1      19.741  -7.326 -51.534  0.00  0.00    -0.281 N 
ATOM     14  C   UNL     1      21.125  -7.358 -51.467  0.00  0.00    +0.248 C 
ATOM     30  O   UNL     1      21.858  -6.488 -51.914  0.00  0.00    -0.270 OA
ATOM     31  H   UNL     1      19.261  -8.196 -51.302  0.00  0.00    +0.155 HD
BRANCH  14  15
ATOM     15  C   UNL     1      21.790  -8.532 -50.824  0.00  0.00    +0.037 A 
ATOM     16  C   UNL     1      22.836  -9.287 -51.519  0.00  0.00    +0.013 A 
ATOM     17  C   UNL     1      23.449 -10.426 -50.882  0.00  0.00    +0.005 A 
ATOM     18  C   UNL     1      23.018 -10.815 -49.542  0.00  0.00    -0.033 A 
ATOM     28  C   UNL     1      21.982 -10.045 -48.873  0.00  0.00    +0.005 A 
ATOM     29  C   UNL     1      21.378  -8.929 -49.495  0.00  0.00    +0.013 A 
BRANCH  18  19
ATOM     19  C   UNL     1      23.602 -12.029 -48.795  0.00  0.00    +0.119 C 
BRANCH  19  20
ATOM     20  N   UNL     1      24.244 -11.773 -47.471  0.00  0.00    -0.302 NA
ATOM     21  C   UNL     1      25.636 -12.405 -47.376  0.00  0.00    +0.066 C 
ATOM     22  C   UNL     1      26.302 -12.109 -45.993  0.00  0.00    -0.064 C 
ATOM     23  N   UNL     1      25.397 -12.623 -44.873  0.00  0.00    +0.379 N 
ATOM     24  C   UNL     1      26.047 -12.398 -43.574  0.00  0.00    -0.096 C 
ATOM     25  H   UNL     1      25.283 -13.724 -45.009  0.00  0.00    -0.082 HD
ATOM     26  C   UNL     1      24.010 -12.002 -44.962  0.00  0.00    -0.064 C 
ATOM     27  C   UNL     1      23.368 -12.277 -46.350  0.00  0.00    +0.066 C 
ENDBRANCH  19  20
ENDBRANCH  18  19
ENDBRANCH  14  15
ENDBRANCH  12  13
TORSDOF 6
ENDMDL
MODEL 4
REMARK VINA RESULT:      -8.2     22.090     23.368
REMARK  Name = C:\Users\Docking\Desktop\test protocol\1iep_ligandH.pdb
REMARK  8 active torsions:
REMARK  status: ('A' for Active; 'I' for Inactive)
REMARK    1  A    between atoms: _5  and  _11
REMARK    2  A    between atoms: _19  and  _21
REMARK    3  A    between atoms: _22  and  _66
REMARK    4  A    between atoms: _27  and  _30
REMARK    5  A    between atoms: _32  and  _33
REMARK    6  A    between atoms: _38  and  _43
REMARK    7  A    between atoms: _43  and  _46
REMARK    8  A    between atoms: _53  and  _55
REMARK                            x       y       z     vdW  Elec       q    Type
REMARK                         _______ _______ _______ _____ _____    ______ ____
ROOT
ATOM     10  C   UNL     1      18.967   4.539 -47.841  0.00  0.00    +0.038 A 
ATOM     11  C   UNL     1      18.526   3.631 -48.837  0.00  0.00    +0.047 A 
ATOM     12  C   UNL     1      19.308   2.454 -49.182  0.00  0.00    +0.035 A 
ATOM     32  C   UNL     1      20.533   2.230 -48.489  0.00  0.00    +0.024 A 
ATOM     33  C   UNL     1      20.997   3.143 -47.474  0.00  0.00    +0.007 A 
ATOM     34  C   UNL     1      20.231   4.308 -47.132  0.00  0.00    -0.029 A 
ATOM     35  C   UNL     1      20.780   5.255 -46.040  0.00  0.00    +0.045 C 
ENDROOT
BRANCH  10   9
ATOM      4  C   UNL     1      17.962   9.220 -48.181  0.00  0.00    +0.077 A 
ATOM      5  C   UNL     1      19.123   9.471 -48.984  0.00  0.00    +0.048 A 
ATOM      6  C   UNL     1      19.958   8.371 -49.281  0.00  0.00    +0.116 A 
ATOM      7  N   UNL     1      19.644   7.116 -48.805  0.00  0.00    -0.223 NA
ATOM      8  C   UNL     1      18.516   6.908 -48.032  0.00  0.00    +0.220 A 
ATOM      9  N   UNL     1      18.177   5.653 -47.550  0.00  0.00    -0.283 N 
ATOM     36  H   UNL     1      17.341   5.543 -46.977  0.00  0.00    +0.155 HD
ATOM     37  N   UNL     1      17.704   7.943 -47.733  0.00  0.00    -0.214 NA
BRANCH   4   3
ATOM      1  C   UNL     1      16.150  12.662 -47.765  0.00  0.00    +0.020 A 
ATOM      2  C   UNL     1      17.126  11.677 -48.174  0.00  0.00    +0.013 A 
ATOM      3  C   UNL     1      16.981  10.280 -47.785  0.00  0.00    +0.019 A 
ATOM     38  C   UNL     1      15.829   9.908 -46.978  0.00  0.00    +0.120 A 
ATOM     39  N   UNL     1      14.906  10.878 -46.599  0.00  0.00    -0.263 NA
ATOM     40  C   UNL     1      15.036  12.227 -46.965  0.00  0.00    +0.111 A 
ENDBRANCH   4   3
ENDBRANCH  10   9
BRANCH  12  13
ATOM     13  N   UNL     1      18.914   1.502 -50.190  0.00  0.00    -0.281 N 
ATOM     14  C   UNL     1      19.645   1.071 -51.286  0.00  0.00    +0.248 C 
ATOM     30  O   UNL     1      20.670   1.604 -51.686  0.00  0.00    -0.270 OA
ATOM     31  H   UNL     1      17.985   1.095 -50.083  0.00  0.00    +0.155 HD
BRANCH  14  15
ATOM     15  C   UNL     1      19.158  -0.112 -52.059  0.00  0.00    +0.037 A 
ATOM     16  C   UNL     1      19.413  -0.239 -53.496  0.00  0.00    +0.013 A 
ATOM     17  C   UNL     1      18.918  -1.382 -54.220  0.00  0.00    +0.005 A 
ATOM     18  C   UNL     1      18.163  -2.410 -53.507  0.00  0.00    -0.033 A 
ATOM     28  C   UNL     1      17.929  -2.261 -52.080  0.00  0.00    +0.005 A 
ATOM     29  C   UNL     1      18.412  -1.141 -51.367  0.00  0.00    +0.013 A 
BRANCH  18  19
ATOM     19  C   UNL     1      17.579  -3.653 -54.204  0.00  0.00    +0.119 C 
BRANCH  19  20
ATOM     20  N   UNL     1      18.419  -4.887 -54.218  0.00  0.00    -0.302 NA
ATOM     21  C   UNL     1      18.146  -5.754 -55.450  0.00  0.00    +0.066 C 
ATOM     22  C   UNL     1      19.050  -7.030 -55.460  0.00  0.00    -0.064 C 
ATOM     23  N   UNL     1      18.818  -7.826 -54.175  0.00  0.00    +0.379 N 
ATOM     24  C   UNL     1      19.623  -9.056 -54.208  0.00  0.00    -0.096 C 
ATOM     25  H   UNL     1      17.744  -8.125 -54.152  0.00  0.00    -0.082 HD
ATOM     26  C   UNL     1      19.085  -6.971 -52.945  0.00  0.00    -0.064 C 
ATOM     27  C   UNL     1      18.202  -5.691 -52.959  0.00  0.00    +0.066 C 
ENDBRANCH  19  20
ENDBRANCH  18  19
ENDBRANCH  14  15
ENDBRANCH  12  13
TORSDOF 6
ENDMDL
MODEL 5
REMARK VINA RESULT:      -8.2     22.110     25.953
REMARK  Name = C:\Users\Docking\Desktop\test protocol\1iep_ligandH.pdb
REMARK  8 active torsions:
REMARK  status: ('A' for Active; 'I' for Inactive)
REMARK    1  A    between atoms: _5  and  _11
REMARK    2  A    between atoms: _19  and  _21
REMARK    3  A    between atoms: _22  and  _66
REMARK    4  A    between atoms: _27  and  _30
REMARK    5  A    between atoms: _32  and  _33
REMARK    6  A    between atoms: _38  and  _43
REMARK    7  A    between atoms: _43  and  _46
REMARK    8  A    between atoms: _53  and  _55
REMARK                            x       y       z     vdW  Elec       q    Type
REMARK                         _______ _______ _______ _____ _____    ______ ____
ROOT
ATOM     10  C   UNL     1      17.471  -2.933 -52.943  0.00  0.00    +0.038 A 
ATOM     11  C   UNL     1      17.651  -1.795 -52.116  0.00  0.00    +0.047 A 
ATOM     12  C   UNL     1      18.114  -1.928 -50.744  0.00  0.00    +0.035 A 
ATOM     32  C   UNL     1      18.387  -3.235 -50.246  0.00  0.00    +0.024 A 
ATOM     33  C   UNL     1      18.209  -4.403 -51.073  0.00  0.00    +0.007 A 
ATOM     34  C   UNL     1      17.750  -4.279 -52.427  0.00  0.00    -0.029 A 
ATOM     35  C   UNL     1      17.570  -5.566 -53.265  0.00  0.00    +0.045 C 
ENDROOT
BRANCH  10   9
ATOM      4  C   UNL     1      18.002  -1.212 -57.392  0.00  0.00    +0.077 A 
ATOM      5  C   UNL     1      19.263  -0.608 -57.072  0.00  0.00    +0.048 A 
ATOM      6  C   UNL     1      19.737  -0.758 -55.749  0.00  0.00    +0.116 A 
ATOM      7  N   UNL     1      18.996  -1.461 -54.824  0.00  0.00    -0.223 NA
ATOM      8  C   UNL     1      17.782  -2.029 -55.166  0.00  0.00    +0.220 A 
ATOM      9  N   UNL     1      17.024  -2.747 -54.254  0.00  0.00    -0.283 N 
ATOM     36  H   UNL     1      16.131  -3.144 -54.543  0.00  0.00    +0.155 HD
ATOM     37  N   UNL     1      17.308  -1.899 -56.422  0.00  0.00    -0.214 NA
BRANCH   4   3
ATOM      1  C   UNL     1      16.922   0.001 -60.951  0.00  0.00    +0.020 A 
ATOM      2  C   UNL     1      17.554  -0.015 -59.652  0.00  0.00    +0.013 A 
ATOM      3  C   UNL     1      17.370  -1.144 -58.748  0.00  0.00    +0.019 A 
ATOM     38  C   UNL     1      16.534  -2.248 -59.192  0.00  0.00    +0.120 A 
ATOM     39  N   UNL     1      15.937  -2.205 -60.448  0.00  0.00    -0.263 NA
ATOM     40  C   UNL     1      16.105  -1.124 -61.326  0.00  0.00    +0.111 A 
ENDBRANCH   4   3
ENDBRANCH  10   9
BRANCH  12  13
ATOM     13  N   UNL     1      18.307  -0.809 -49.854  0.00  0.00    -0.281 N 
ATOM     14  C   UNL     1      19.473  -0.098 -49.622  0.00  0.00    +0.248 C 
ATOM     30  O   UNL     1      20.584  -0.453 -49.987  0.00  0.00    -0.270 OA
ATOM     31  H   UNL     1      17.485  -0.506 -49.333  0.00  0.00    +0.155 HD
BRANCH  14  15
ATOM     15  C   UNL     1      19.395   1.187 -48.862  0.00  0.00    +0.037 A 
ATOM     16  C   UNL     1      19.174   1.201 -47.414  0.00  0.00    +0.013 A 
ATOM     17  C   UNL     1      19.086   2.455 -46.708  0.00  0.00    +0.005 A 
ATOM     18  C   UNL     1      19.221   3.706 -47.451  0.00  0.00    -0.033 A 
ATOM     28  C   UNL     1      19.445   3.663 -48.886  0.00  0.00    +0.005 A 
ATOM     29  C   UNL     1      19.531   2.436 -49.582  0.00  0.00    +0.013 A 
BRANCH  18  19
ATOM     19  C   UNL     1      19.120   5.090 -46.783  0.00  0.00    +0.119 C 
BRANCH  19  20
ATOM     20  N   UNL     1      19.421   6.282 -47.630  0.00  0.00    -0.302 NA
ATOM     21  C   UNL     1      20.402   7.239 -46.948  0.00  0.00    +0.066 C 
ATOM     22  C   UNL     1      20.724   8.469 -47.858  0.00  0.00    -0.064 C 
ATOM     23  N   UNL     1      19.423   9.190 -48.214  0.00  0.00    +0.379 N 
ATOM     24  C   UNL     1      19.727  10.381 -49.021  0.00  0.00    -0.096 C 
ATOM     25  H   UNL     1      18.957   9.537 -47.262  0.00  0.00    -0.082 HD
ATOM     26  C   UNL     1      18.440   8.245 -48.891  0.00  0.00    -0.064 C 
ATOM     27  C   UNL     1      18.151   7.012 -47.990  0.00  0.00    +0.066 C 
ENDBRANCH  19  20
ENDBRANCH  18  19
ENDBRANCH  14  15
ENDBRANCH  12  13
TORSDOF 6
ENDMDL
