MODEL 1
REMARK VINA RESULT:      -8.4      0.000      0.000
REMARK  Name = C:\Users\Docking\Desktop\test protocol\1iep_ligandH.pdb
REMARK  8 active torsions:
REMARK  status: ('A' for Active; 'I' for Inactive)
REMARK    1  A    between atoms: _5  and  _11
REMARK    2  A    between atoms: _19  and  _21
REMARK    3  A    between atoms: _22  and  _66
REMARK    4  A    between atoms: _27  and  _30
REMARK    5  A    between atoms: _32  and  _33
REMARK    6  A    between atoms: _38  and  _43
REMARK    7  A    between atoms: _43  and  _46
REMARK    8  A    between atoms: _53  and  _55
REMARK                            x       y       z     vdW  Elec       q    Type
REMARK                         _______ _______ _______ _____ _____    ______ ____
ROOT
ATOM     10  C   UNL     1      -1.280  -0.253 -39.718  0.00  0.00    +0.038 A 
ATOM     11  C   UNL     1      -1.473  -1.658 -39.710  0.00  0.00    +0.047 A 
ATOM     12  C   UNL     1      -2.669  -2.258 -40.281  0.00  0.00    +0.035 A 
ATOM     32  C   UNL     1      -3.648  -1.396 -40.855  0.00  0.00    +0.024 A 
ATOM     33  C   UNL     1      -3.469   0.035 -40.871  0.00  0.00    +0.007 A 
ATOM     34  C   UNL     1      -2.293   0.632 -40.306  0.00  0.00    -0.029 A 
ATOM     35  C   UNL     1      -2.157   2.172 -40.346  0.00  0.00    +0.045 C 
ENDROOT
BRANCH  10   9
ATOM      4  C   UNL     1       3.417   0.724 -39.862  0.00  0.00    +0.077 A 
ATOM      5  C   UNL     1       3.563   0.121 -41.155  0.00  0.00    +0.048 A 
ATOM      6  C   UNL     1       2.406  -0.436 -41.746  0.00  0.00    +0.116 A 
ATOM      7  N   UNL     1       1.199  -0.387 -41.083  0.00  0.00    -0.223 NA
ATOM      8  C   UNL     1       1.093   0.201 -39.836  0.00  0.00    +0.220 A 
ATOM      9  N   UNL     1      -0.113   0.268 -39.156  0.00  0.00    -0.283 N 
ATOM     36  H   UNL     1      -0.148   0.704 -38.234  0.00  0.00    +0.155 HD
ATOM     37  N   UNL     1       2.183   0.738 -39.250  0.00  0.00    -0.214 NA
BRANCH   4   3
ATOM      1  C   UNL     1       5.519   2.500 -37.082  0.00  0.00    +0.020 A 
ATOM      2  C   UNL     1       4.396   1.898 -37.764  0.00  0.00    +0.013 A 
ATOM      3  C   UNL     1       4.545   1.358 -39.110  0.00  0.00    +0.019 A 
ATOM     38  C   UNL     1       5.854   1.442 -39.741  0.00  0.00    +0.120 A 
ATOM     39  N   UNL     1       6.916   2.029 -39.060  0.00  0.00    -0.263 NA
ATOM     40  C   UNL     1       6.784   2.553 -37.766  0.00  0.00    +0.111 A 
ENDBRANCH   4   3
ENDBRANCH  10   9
BRANCH  12  13
ATOM     13  N   UNL     1      -2.922  -3.677 -40.294  0.00  0.00    -0.281 N 
ATOM     14  C   UNL     1      -4.058  -4.343 -39.863  0.00  0.00    +0.248 C 
ATOM     30  O   UNL     1      -4.948  -3.833 -39.200  0.00  0.00    -0.270 OA
ATOM     31  H   UNL     1      -2.174  -4.262 -40.666  0.00  0.00    +0.155 HD
BRANCH  14  15
ATOM     15  C   UNL     1      -4.221  -5.789 -40.206  0.00  0.00    +0.037 A 
ATOM     16  C   UNL     1      -5.065  -6.672 -39.397  0.00  0.00    +0.013 A 
ATOM     17  C   UNL     1      -5.191  -8.066 -39.741  0.00  0.00    +0.005 A 
ATOM     18  C   UNL     1      -4.472  -8.586 -40.901  0.00  0.00    -0.033 A 
ATOM     28  C   UNL     1      -3.646  -7.687 -41.690  0.00  0.00    +0.005 A 
ATOM     29  C   UNL     1      -3.518  -6.320 -41.355  0.00  0.00    +0.013 A 
BRANCH  18  19
ATOM     19  C   UNL     1      -4.532 -10.064 -41.329  0.00  0.00    +0.119 C 
BRANCH  19  20
ATOM     20  N   UNL     1      -4.187 -10.380 -42.747  0.00  0.00    -0.302 NA
ATOM     21  C   UNL     1      -5.293 -11.178 -43.444  0.00  0.00    +0.066 C 
ATOM     22  C   UNL     1      -4.925 -11.480 -44.933  0.00  0.00    -0.064 C 
ATOM     23  N   UNL     1      -3.598 -12.237 -44.984  0.00  0.00    +0.379 N 
ATOM     24  C   UNL     1      -3.278 -12.574 -46.379  0.00  0.00    -0.096 C 
ATOM     25  H   UNL     1      -3.732 -13.194 -44.427  0.00  0.00    -0.082 HD
ATOM     26  C   UNL     1      -2.492 -11.452 -44.291  0.00  0.00    -0.064 C 
ATOM     27  C   UNL     1      -2.881 -11.132 -42.821  0.00  0.00    +0.066 C 
ENDBRANCH  19  20
ENDBRANCH  18  19
ENDBRANCH  14  15
ENDBRANCH  12  13
TORSDOF 6
ENDMDL
MODEL 2
REMARK VINA RESULT:      -8.2     21.746     24.637
REMARK  Name = C:\Users\Docking\Desktop\test protocol\1iep_ligandH.pdb
REMARK  8 active torsions:
REMARK  status: ('A' for Active; 'I' for Inactive)
REMARK    1  A    between atoms: _5  and  _11
REMARK    2  A    between atoms: _19  and  _21
REMARK    3  A    between atoms: _22  and  _66
REMARK    4  A    between atoms: _27  and  _30
REMARK    5  A    between atoms: _32  and  _33
REMARK    6  A    between atoms: _38  and  _43
REMARK    7  A    between atoms: _43  and  _46
REMARK    8  A    between atoms: _53  and  _55
REMARK                            x       y       z     vdW  Elec       q    Type
REMARK                         _______ _______ _______ _____ _____    ______ ____
ROOT
ATOM     10  C   UNL     1      17.799  -3.865 -51.480  0.00  0.00    +0.038 A 
ATOM     11  C   UNL     1      18.672  -4.924 -51.119  0.00  0.00    +0.047 A 
ATOM     12  C   UNL     1      18.811  -6.104 -51.958  0.00  0.00    +0.035 A 
ATOM     32  C   UNL     1      18.048  -6.172 -53.160  0.00  0.00    +0.024 A 
ATOM     33  C   UNL     1      17.155  -5.106 -53.542  0.00  0.00    +0.007 A 
ATOM     34  C   UNL     1      17.012  -3.940 -52.717  0.00  0.00    -0.029 A 
ATOM     35  C   UNL     1      16.036  -2.831 -53.173  0.00  0.00    +0.045 C 
ENDROOT
BRANCH  10   9
ATOM      4  C   UNL     1      19.416   0.338 -49.820  0.00  0.00    +0.077 A 
ATOM      5  C   UNL     1      20.559   0.307 -50.685  0.00  0.00    +0.048 A 
ATOM      6  C   UNL     1      20.699  -0.811 -51.537  0.00  0.00    +0.116 A 
ATOM      7  N   UNL     1      19.758  -1.818 -51.517  0.00  0.00    -0.223 NA
ATOM      8  C   UNL     1      18.667  -1.758 -50.669  0.00  0.00    +0.220 A 
ATOM      9  N   UNL     1      17.705  -2.756 -50.638  0.00  0.00    -0.283 N 
ATOM     36  H   UNL     1      16.919  -2.678 -49.992  0.00  0.00    +0.155 HD
ATOM     37  N   UNL     1      18.513  -0.701 -49.845  0.00  0.00    -0.214 NA
BRANCH   4   3
ATOM      1  C   UNL     1      18.867   2.395 -46.538  0.00  0.00    +0.020 A 
ATOM      2  C   UNL     1      19.153   1.284 -47.417  0.00  0.00    +0.013 A 
ATOM      3  C   UNL     1      19.128   1.454 -48.864  0.00  0.00    +0.019 A 
ATOM     38  C   UNL     1      18.809   2.771 -49.394  0.00  0.00    +0.120 A 
ATOM     39  N   UNL     1      18.538   3.822 -48.523  0.00  0.00    -0.263 NA
ATOM     40  C   UNL     1      18.557   3.670 -47.129  0.00  0.00    +0.111 A 
ENDBRANCH   4   3
ENDBRANCH  10   9
BRANCH  12  13
ATOM     13  N   UNL     1      19.674  -7.214 -51.639  0.00  0.00    -0.281 N 
ATOM     14  C   UNL     1      21.058  -7.225 -51.576  0.00  0.00    +0.248 C 
ATOM     30  O   UNL     1      21.777  -6.330 -51.995  0.00  0.00    -0.270 OA
ATOM     31  H   UNL     1      19.209  -8.098 -51.434  0.00  0.00    +0.155 HD
BRANCH  14  15
ATOM     15  C   UNL     1      21.744  -8.408 -50.972  0.00  0.00    +0.037 A 
ATOM     16  C   UNL     1      22.653  -9.243 -51.760  0.00  0.00    +0.013 A 
ATOM     17  C   UNL     1      23.288 -10.389 -51.158  0.00  0.00    +0.005 A 
ATOM     18  C   UNL     1      23.017 -10.704 -49.758  0.00  0.00    -0.033 A 
ATOM     28  C   UNL     1      22.114  -9.856 -48.997  0.00  0.00    +0.005 A 
ATOM     29  C   UNL     1      21.489  -8.733 -49.585  0.00  0.00    +0.013 A 
BRANCH  18  19
ATOM     19  C   UNL     1      23.634 -11.919 -49.039  0.00  0.00    +0.119 C 
BRANCH  19  20
ATOM     20  N   UNL     1      24.160 -11.702 -47.659  0.00  0.00    -0.302 NA
ATOM     21  C   UNL     1      25.634 -12.101 -47.537  0.00  0.00    +0.066 C 
ATOM     22  C   UNL     1      26.174 -11.846 -46.092  0.00  0.00    -0.064 C 
ATOM     23  N   UNL     1      25.319 -12.619 -45.087  0.00  0.00    +0.379 N 
ATOM     24  C   UNL     1      25.860 -12.428 -43.733  0.00  0.00    -0.096 C 
ATOM     25  H   UNL     1      25.402 -13.703 -45.335  0.00  0.00    -0.082 HD
ATOM     26  C   UNL     1      23.852 -12.231 -45.203  0.00  0.00    -0.064 C 
ATOM     27  C   UNL     1      23.333 -12.460 -46.650  0.00  0.00    +0.066 C 
ENDBRANCH  19  20
ENDBRANCH  18  19
ENDBRANCH  14  15
ENDBRANCH  12  13
TORSDOF 6
ENDMDL
MODEL 3
REMARK VINA RESULT:      -8.2     21.809     25.955
REMARK  Name = C:\Users\Docking\Desktop\test protocol\1iep_ligandH.pdb
REMARK  8 active torsions:
REMARK  status: ('A' for Active; 'I' for Inactive)
REMARK    1  A    between atoms: _5  and  _11
REMARK    2  A    between atoms: _19  and  _21
REMARK    3  A    between atoms: _22  and  _66
REMARK    4  A    between atoms: _27  and  _30
REMARK    5  A    between atoms: _32  and  _33
REMARK    6  A    between atoms: _38  and  _43
REMARK    7  A    between atoms: _43  and  _46
REMARK    8  A    between atoms: _53  and  _55
REMARK                            x       y       z     vdW  Elec       q    Type
REMARK                         _______ _______ _______ _____ _____    ______ ____
ROOT
ATOM     10  C   UNL     1      20.487  -0.076 -51.081  0.00  0.00    +0.038 A 
ATOM     11  C   UNL     1      20.071   1.271 -50.933  0.00  0.00    +0.047 A 
ATOM     12  C   UNL     1      20.362   2.020 -49.720  0.00  0.00    +0.035 A 
ATOM     32  C   UNL     1      21.082   1.365 -48.679  0.00  0.00    +0.024 A 
ATOM     33  C   UNL     1      21.513  -0.004 -48.813  0.00  0.00    +0.007 A 
ATOM     34  C   UNL     1      21.226  -0.749 -50.005  0.00  0.00    -0.029 A 
ATOM     35  C   UNL     1      21.706  -2.216 -50.091  0.00  0.00    +0.045 C 
ENDROOT
BRANCH  10   9
ATOM      4  C   UNL     1      17.621  -2.842 -53.760  0.00  0.00    +0.077 A 
ATOM      5  C   UNL     1      16.667  -2.984 -52.698  0.00  0.00    +0.048 A 
ATOM      6  C   UNL     1      16.955  -2.335 -51.476  0.00  0.00    +0.116 A 
ATOM      7  N   UNL     1      18.113  -1.602 -51.338  0.00  0.00    -0.223 NA
ATOM      8  C   UNL     1      19.013  -1.487 -52.381  0.00  0.00    +0.220 A 
ATOM      9  N   UNL     1      20.181  -0.748 -52.267  0.00  0.00    -0.283 N 
ATOM     36  H   UNL     1      20.823  -0.694 -53.057  0.00  0.00    +0.155 HD
ATOM     37  N   UNL     1      18.762  -2.098 -53.558  0.00  0.00    -0.214 NA
BRANCH   4   3
ATOM      1  C   UNL     1      17.807  -5.335 -56.769  0.00  0.00    +0.020 A 
ATOM      2  C   UNL     1      17.994  -4.778 -55.449  0.00  0.00    +0.013 A 
ATOM      3  C   UNL     1      17.457  -3.465 -55.111  0.00  0.00    +0.019 A 
ATOM     38  C   UNL     1      16.731  -2.737 -56.140  0.00  0.00    +0.120 A 
ATOM     39  N   UNL     1      16.568  -3.298 -57.403  0.00  0.00    -0.263 NA
ATOM     40  C   UNL     1      17.081  -4.559 -57.740  0.00  0.00    +0.111 A 
ENDBRANCH   4   3
ENDBRANCH  10   9
BRANCH  12  13
ATOM     13  N   UNL     1      19.957   3.388 -49.510  0.00  0.00    -0.281 N 
ATOM     14  C   UNL     1      18.801   3.850 -48.903  0.00  0.00    +0.248 C 
ATOM     30  O   UNL     1      17.833   3.152 -48.638  0.00  0.00    -0.270 OA
ATOM     31  H   UNL     1      20.602   4.102 -49.849  0.00  0.00    +0.155 HD
BRANCH  14  15
ATOM     15  C   UNL     1      18.699   5.299 -48.553  0.00  0.00    +0.037 A 
ATOM     16  C   UNL     1      17.469   6.056 -48.800  0.00  0.00    +0.013 A 
ATOM     17  C   UNL     1      17.404   7.458 -48.468  0.00  0.00    +0.005 A 
ATOM     18  C   UNL     1      18.572   8.111 -47.884  0.00  0.00    -0.033 A 
ATOM     28  C   UNL     1      19.778   7.335 -47.645  0.00  0.00    +0.005 A 
ATOM     29  C   UNL     1      19.846   5.961 -47.969  0.00  0.00    +0.013 A 
BRANCH  18  19
ATOM     19  C   UNL     1      18.599   9.607 -47.518  0.00  0.00    +0.119 C 
BRANCH  19  20
ATOM     20  N   UNL     1      17.346  10.387 -47.741  0.00  0.00    -0.302 NA
ATOM     21  C   UNL     1      17.614  11.711 -48.462  0.00  0.00    +0.066 C 
ATOM     22  C   UNL     1      16.289  12.505 -48.706  0.00  0.00    -0.064 C 
ATOM     23  N   UNL     1      15.589  12.749 -47.368  0.00  0.00    +0.379 N 
ATOM     24  C   UNL     1      14.373  13.545 -47.588  0.00  0.00    -0.096 C 
ATOM     25  H   UNL     1      16.278  13.352 -46.732  0.00  0.00    -0.082 HD
ATOM     26  C   UNL     1      15.321  11.437 -46.643  0.00  0.00    -0.064 C 
ATOM     27  C   UNL     1      16.641  10.643 -46.431  0.00  0.00    +0.066 C 
ENDBRANCH  19  20
ENDBRANCH  18  19
ENDBRANCH  14  15
ENDBRANCH  12  13
TORSDOF 6
ENDMDL
MODEL 4
REMARK VINA RESULT:      -8.1      9.604     14.176
REMARK  Name = C:\Users\Docking\Desktop\test protocol\1iep_ligandH.pdb
REMARK  8 active torsions:
REMARK  status: ('A' for Active; 'I' for Inactive)
REMARK    1  A    between atoms: _5  and  _11
REMARK    2  A    between atoms: _19  and  _21
REMARK    3  A    between atoms: _22  and  _66
REMARK    4  A    between atoms: _27  and  _30
REMARK    5  A    between atoms: _32  and  _33
REMARK    6  A    between atoms: _38  and  _43
REMARK    7  A    between atoms: _43  and  _46
REMARK    8  A    between atoms: _53  and  _55
REMARK                            x       y       z     vdW  Elec       q    Type
REMARK                         _______ _______ _______ _____ _____    ______ ____
ROOT
ATOM     10  C   UNL     1       0.532   3.818 -50.631  0.00  0.00    +0.038 A 
ATOM     11  C   UNL     1       0.897   3.147 -49.437  0.00  0.00    +0.047 A 
ATOM     12  C   UNL     1       0.531   3.677 -48.133  0.00  0.00    +0.035 A 
ATOM     32  C   UNL     1      -0.210   4.894 -48.083  0.00  0.00    +0.024 A 
ATOM     33  C   UNL     1      -0.589   5.590 -49.287  0.00  0.00    +0.007 A 
ATOM     34  C   UNL     1      -0.228   5.073 -50.576  0.00  0.00    -0.029 A 
ATOM     35  C   UNL     1      -0.654   5.865 -51.834  0.00  0.00    +0.045 C 
ENDROOT
BRANCH  10   9
ATOM      4  C   UNL     1      -0.335   1.115 -54.501  0.00  0.00    +0.077 A 
ATOM      5  C   UNL     1      -1.642   0.756 -54.031  0.00  0.00    +0.048 A 
ATOM      6  C   UNL     1      -2.050   1.283 -52.785  0.00  0.00    +0.116 A 
ATOM      7  N   UNL     1      -1.206   2.106 -52.071  0.00  0.00    -0.223 NA
ATOM      8  C   UNL     1       0.048   2.431 -52.553  0.00  0.00    +0.220 A 
ATOM      9  N   UNL     1       0.910   3.263 -51.856  0.00  0.00    -0.283 N 
ATOM     36  H   UNL     1       1.831   3.473 -52.242  0.00  0.00    +0.155 HD
ATOM     37  N   UNL     1       0.462   1.940 -53.740  0.00  0.00    -0.214 NA
BRANCH   4   3
ATOM      1  C   UNL     1       1.062   1.027 -58.154  0.00  0.00    +0.020 A 
ATOM      2  C   UNL     1       0.507   1.535 -56.921  0.00  0.00    +0.013 A 
ATOM      3  C   UNL     1       0.238   0.641 -55.801  0.00  0.00    +0.019 A 
ATOM     38  C   UNL     1       0.544  -0.772 -55.963  0.00  0.00    +0.120 A 
ATOM     39  N   UNL     1       1.076  -1.233 -57.163  0.00  0.00    -0.263 NA
ATOM     40  C   UNL     1       1.338  -0.383 -58.248  0.00  0.00    +0.111 A 
ENDBRANCH   4   3
ENDBRANCH  10   9
BRANCH  12  13
ATOM     13  N   UNL     1       0.880   3.044 -46.886  0.00  0.00    -0.281 N 
ATOM     14  C   UNL     1       0.570   1.761 -46.466  0.00  0.00    +0.248 C 
ATOM     30  O   UNL     1      -0.242   1.031 -47.015  0.00  0.00    -0.270 OA
ATOM     31  H   UNL     1       1.422   3.610 -46.233  0.00  0.00    +0.155 HD
BRANCH  14  15
ATOM     15  C   UNL     1       1.250   1.214 -45.253  0.00  0.00    +0.037 A 
ATOM     16  C   UNL     1       2.440   0.366 -45.366  0.00  0.00    +0.013 A 
ATOM     17  C   UNL     1       3.067  -0.163 -44.180  0.00  0.00    +0.005 A 
ATOM     18  C   UNL     1       2.505   0.157 -42.870  0.00  0.00    -0.033 A 
ATOM     28  C   UNL     1       1.327   1.004 -42.787  0.00  0.00    +0.005 A 
ATOM     29  C   UNL     1       0.709   1.523 -43.947  0.00  0.00    +0.013 A 
BRANCH  18  19
ATOM     19  C   UNL     1       3.095  -0.381 -41.553  0.00  0.00    +0.119 C 
BRANCH  19  20
ATOM     20  N   UNL     1       3.619   0.623 -40.579  0.00  0.00    -0.302 NA
ATOM     21  C   UNL     1       5.142   0.545 -40.437  0.00  0.00    +0.066 C 
ATOM     22  C   UNL     1       5.675   1.617 -39.431  0.00  0.00    -0.064 C 
ATOM     23  N   UNL     1       4.994   1.422 -38.075  0.00  0.00    +0.379 N 
ATOM     24  C   UNL     1       5.536   2.391 -37.111  0.00  0.00    -0.096 C 
ATOM     25  H   UNL     1       5.253   0.401 -37.710  0.00  0.00    -0.082 HD
ATOM     26  C   UNL     1       3.479   1.495 -38.207  0.00  0.00    -0.064 C 
ATOM     27  C   UNL     1       2.963   0.446 -39.231  0.00  0.00    +0.066 C 
ENDBRANCH  19  20
ENDBRANCH  18  19
ENDBRANCH  14  15
ENDBRANCH  12  13
TORSDOF 6
ENDMDL
MODEL 5
REMARK VINA RESULT:      -8.1     22.014     25.970
REMARK  Name = C:\Users\Docking\Desktop\test protocol\1iep_ligandH.pdb
REMARK  8 active torsions:
REMARK  status: ('A' for Active; 'I' for Inactive)
REMARK    1  A    between atoms: _5  and  _11
REMARK    2  A    between atoms: _19  and  _21
REMARK    3  A    between atoms: _22  and  _66
REMARK    4  A    between atoms: _27  and  _30
REMARK    5  A    between atoms: _32  and  _33
REMARK    6  A    between atoms: _38  and  _43
REMARK    7  A    between atoms: _43  and  _46
REMARK    8  A    between atoms: _53  and  _55
REMARK                            x       y       z     vdW  Elec       q    Type
REMARK                         _______ _______ _______ _____ _____    ______ ____
ROOT
ATOM     10  C   UNL     1      17.433  -2.966 -53.000  0.00  0.00    +0.038 A 
ATOM     11  C   UNL     1      17.571  -1.822 -52.173  0.00  0.00    +0.047 A 
ATOM     12  C   UNL     1      18.005  -1.941 -50.790  0.00  0.00    +0.035 A 
ATOM     32  C   UNL     1      18.293  -3.241 -50.282  0.00  0.00    +0.024 A 
ATOM     33  C   UNL     1      18.158  -4.415 -51.109  0.00  0.00    +0.007 A 
ATOM     34  C   UNL     1      17.728  -4.304 -52.473  0.00  0.00    -0.029 A 
ATOM     35  C   UNL     1      17.594  -5.596 -53.311  0.00  0.00    +0.045 C 
ENDROOT
BRANCH  10   9
ATOM      4  C   UNL     1      18.003  -1.200 -57.427  0.00  0.00    +0.077 A 
ATOM      5  C   UNL     1      19.228  -0.544 -57.071  0.00  0.00    +0.048 A 
ATOM      6  C   UNL     1      19.674  -0.680 -55.737  0.00  0.00    +0.116 A 
ATOM      7  N   UNL     1      18.941  -1.419 -54.835  0.00  0.00    -0.223 NA
ATOM      8  C   UNL     1      17.762  -2.038 -55.210  0.00  0.00    +0.220 A 
ATOM      9  N   UNL     1      17.013  -2.793 -54.321  0.00  0.00    -0.283 N 
ATOM     36  H   UNL     1      16.145  -3.227 -54.635  0.00  0.00    +0.155 HD
ATOM     37  N   UNL     1      17.315  -1.922 -56.478  0.00  0.00    -0.214 NA
BRANCH   4   3
ATOM      1  C   UNL     1      16.962  -0.017 -61.007  0.00  0.00    +0.020 A 
ATOM      2  C   UNL     1      17.561  -0.012 -59.692  0.00  0.00    +0.013 A 
ATOM      3  C   UNL     1      17.405  -1.153 -58.798  0.00  0.00    +0.019 A 
ATOM     38  C   UNL     1      16.632  -2.292 -59.270  0.00  0.00    +0.120 A 
ATOM     39  N   UNL     1      16.066  -2.268 -60.541  0.00  0.00    -0.263 NA
ATOM     40  C   UNL     1      16.208  -1.175 -61.409  0.00  0.00    +0.111 A 
ENDBRANCH   4   3
ENDBRANCH  10   9
BRANCH  12  13
ATOM     13  N   UNL     1      18.154  -0.816 -49.900  0.00  0.00    -0.281 N 
ATOM     14  C   UNL     1      19.318  -0.143 -49.568  0.00  0.00    +0.248 C 
ATOM     30  O   UNL     1      20.445  -0.542 -49.822  0.00  0.00    -0.270 OA
ATOM     31  H   UNL     1      17.299  -0.476 -49.462  0.00  0.00    +0.155 HD
BRANCH  14  15
ATOM     15  C   UNL     1      19.216   1.156 -48.834  0.00  0.00    +0.037 A 
ATOM     16  C   UNL     1      19.031   1.196 -47.382  0.00  0.00    +0.013 A 
ATOM     17  C   UNL     1      18.919   2.461 -46.701  0.00  0.00    +0.005 A 
ATOM     18  C   UNL     1      18.993   3.699 -47.474  0.00  0.00    -0.033 A 
ATOM     28  C   UNL     1      19.183   3.631 -48.913  0.00  0.00    +0.005 A 
ATOM     29  C   UNL     1      19.292   2.392 -49.584  0.00  0.00    +0.013 A 
BRANCH  18  19
ATOM     19  C   UNL     1      18.862   5.094 -46.834  0.00  0.00    +0.119 C 
BRANCH  19  20
ATOM     20  N   UNL     1      19.428   6.250 -47.592  0.00  0.00    -0.302 NA
ATOM     21  C   UNL     1      20.446   7.037 -46.763  0.00  0.00    +0.066 C 
ATOM     22  C   UNL     1      21.044   8.229 -47.579  0.00  0.00    -0.064 C 
ATOM     23  N   UNL     1      19.910   9.140 -48.051  0.00  0.00    +0.379 N 
ATOM     24  C   UNL     1      20.473  10.293 -48.769  0.00  0.00    -0.096 C 
ATOM     25  H   UNL     1      19.388   9.528 -47.145  0.00  0.00    -0.082 HD
ATOM     26  C   UNL     1      18.891   8.365 -48.874  0.00  0.00    -0.064 C 
ATOM     27  C   UNL     1      18.325   7.165 -48.064  0.00  0.00    +0.066 C 
ENDBRANCH  19  20
ENDBRANCH  18  19
ENDBRANCH  14  15
ENDBRANCH  12  13
TORSDOF 6
ENDMDL
