MODEL 1
REMARK VINA RESULT:      -8.5      0.000      0.000
REMARK  Name = C:\Users\Docking\Desktop\test protocol\1iep_ligandH.pdb
REMARK  8 active torsions:
REMARK  status: ('A' for Active; 'I' for Inactive)
REMARK    1  A    between atoms: _5  and  _11
REMARK    2  A    between atoms: _19  and  _21
REMARK    3  A    between atoms: _22  and  _66
REMARK    4  A    between atoms: _27  and  _30
REMARK    5  A    between atoms: _32  and  _33
REMARK    6  A    between atoms: _38  and  _43
REMARK    7  A    between atoms: _43  and  _46
REMARK    8  A    between atoms: _53  and  _55
REMARK                            x       y       z     vdW  Elec       q    Type
REMARK                         _______ _______ _______ _____ _____    ______ ____
ROOT
ATOM     10  C   UNL     1      -1.274   0.211 -39.808  0.00  0.00    +0.038 A 
ATOM     11  C   UNL     1      -1.509  -1.185 -39.722  0.00  0.00    +0.047 A 
ATOM     12  C   UNL     1      -2.716  -1.780 -40.274  0.00  0.00    +0.035 A 
ATOM     32  C   UNL     1      -3.662  -0.923 -40.910  0.00  0.00    +0.024 A 
ATOM     33  C   UNL     1      -3.439   0.498 -41.005  0.00  0.00    +0.007 A 
ATOM     34  C   UNL     1      -2.252   1.091 -40.460  0.00  0.00    -0.029 A 
ATOM     35  C   UNL     1      -2.068   2.621 -40.585  0.00  0.00    +0.045 C 
ENDROOT
BRANCH  10   9
ATOM      4  C   UNL     1       3.499   0.716 -39.741  0.00  0.00    +0.077 A 
ATOM      5  C   UNL     1       3.665  -0.146 -40.876  0.00  0.00    +0.048 A 
ATOM      6  C   UNL     1       2.498  -0.705 -41.443  0.00  0.00    +0.116 A 
ATOM      7  N   UNL     1       1.262  -0.416 -40.907  0.00  0.00    -0.223 NA
ATOM      8  C   UNL     1       1.137   0.419 -39.812  0.00  0.00    +0.220 A 
ATOM      9  N   UNL     1      -0.098   0.729 -39.261  0.00  0.00    -0.283 N 
ATOM     36  H   UNL     1      -0.147   1.343 -38.449  0.00  0.00    +0.155 HD
ATOM     37  N   UNL     1       2.236   0.964 -39.251  0.00  0.00    -0.214 NA
BRANCH   4   3
ATOM      1  C   UNL     1       5.639   2.603 -37.065  0.00  0.00    +0.020 A 
ATOM      2  C   UNL     1       4.509   1.968 -37.704  0.00  0.00    +0.013 A 
ATOM      3  C   UNL     1       4.636   1.386 -39.034  0.00  0.00    +0.019 A 
ATOM     38  C   UNL     1       5.931   1.461 -39.695  0.00  0.00    +0.120 A 
ATOM     39  N   UNL     1       7.000   2.080 -39.055  0.00  0.00    -0.263 NA
ATOM     40  C   UNL     1       6.889   2.646 -37.776  0.00  0.00    +0.111 A 
ENDBRANCH   4   3
ENDBRANCH  10   9
BRANCH  12  13
ATOM     13  N   UNL     1      -3.013  -3.189 -40.210  0.00  0.00    -0.281 N 
ATOM     14  C   UNL     1      -4.197  -3.793 -39.819  0.00  0.00    +0.248 C 
ATOM     30  O   UNL     1      -5.116  -3.215 -39.258  0.00  0.00    -0.270 OA
ATOM     31  H   UNL     1      -2.259  -3.818 -40.486  0.00  0.00    +0.155 HD
BRANCH  14  15
ATOM     15  C   UNL     1      -4.381  -5.254 -40.075  0.00  0.00    +0.037 A 
ATOM     16  C   UNL     1      -5.024  -6.124 -39.087  0.00  0.00    +0.013 A 
ATOM     17  C   UNL     1      -5.174  -7.533 -39.351  0.00  0.00    +0.005 A 
ATOM     18  C   UNL     1      -4.679  -8.081 -40.612  0.00  0.00    -0.033 A 
ATOM     28  C   UNL     1      -4.049  -7.195 -41.576  0.00  0.00    +0.005 A 
ATOM     29  C   UNL     1      -3.900  -5.814 -41.320  0.00  0.00    +0.013 A 
BRANCH  18  19
ATOM     19  C   UNL     1      -4.777  -9.576 -40.969  0.00  0.00    +0.119 C 
BRANCH  19  20
ATOM     20  N   UNL     1      -4.335  -9.983 -42.337  0.00  0.00    -0.302 NA
ATOM     21  C   UNL     1      -5.392 -10.826 -43.055  0.00  0.00    +0.066 C 
ATOM     22  C   UNL     1      -4.923 -11.223 -44.492  0.00  0.00    -0.064 C 
ATOM     23  N   UNL     1      -3.597 -11.980 -44.402  0.00  0.00    +0.379 N 
ATOM     24  C   UNL     1      -3.182 -12.406 -45.746  0.00  0.00    -0.096 C 
ATOM     25  H   UNL     1      -3.773 -12.898 -43.795  0.00  0.00    -0.082 HD
ATOM     26  C   UNL     1      -2.540 -11.150 -43.686  0.00  0.00    -0.064 C 
ATOM     27  C   UNL     1      -3.029 -10.735 -42.270  0.00  0.00    +0.066 C 
ENDBRANCH  19  20
ENDBRANCH  18  19
ENDBRANCH  14  15
ENDBRANCH  12  13
TORSDOF 6
ENDMDL
MODEL 2
REMARK VINA RESULT:      -8.4     21.782     24.745
REMARK  Name = C:\Users\Docking\Desktop\test protocol\1iep_ligandH.pdb
REMARK  8 active torsions:
REMARK  status: ('A' for Active; 'I' for Inactive)
REMARK    1  A    between atoms: _5  and  _11
REMARK    2  A    between atoms: _19  and  _21
REMARK    3  A    between atoms: _22  and  _66
REMARK    4  A    between atoms: _27  and  _30
REMARK    5  A    between atoms: _32  and  _33
REMARK    6  A    between atoms: _38  and  _43
REMARK    7  A    between atoms: _43  and  _46
REMARK    8  A    between atoms: _53  and  _55
REMARK                            x       y       z     vdW  Elec       q    Type
REMARK                         _______ _______ _______ _____ _____    ______ ____
ROOT
ATOM     10  C   UNL     1      17.798  -3.891 -51.488  0.00  0.00    +0.038 A 
ATOM     11  C   UNL     1      18.667  -4.948 -51.113  0.00  0.00    +0.047 A 
ATOM     12  C   UNL     1      18.821  -6.128 -51.949  0.00  0.00    +0.035 A 
ATOM     32  C   UNL     1      18.077  -6.198 -53.162  0.00  0.00    +0.024 A 
ATOM     33  C   UNL     1      17.189  -5.134 -53.559  0.00  0.00    +0.007 A 
ATOM     34  C   UNL     1      17.031  -3.968 -52.737  0.00  0.00    -0.029 A 
ATOM     35  C   UNL     1      16.059  -2.861 -53.208  0.00  0.00    +0.045 C 
ENDROOT
BRANCH  10   9
ATOM      4  C   UNL     1      19.408   0.289 -49.764  0.00  0.00    +0.077 A 
ATOM      5  C   UNL     1      20.581   0.245 -50.589  0.00  0.00    +0.048 A 
ATOM      6  C   UNL     1      20.736  -0.874 -51.438  0.00  0.00    +0.116 A 
ATOM      7  N   UNL     1      19.783  -1.869 -51.452  0.00  0.00    -0.223 NA
ATOM      8  C   UNL     1      18.664  -1.796 -50.643  0.00  0.00    +0.220 A 
ATOM      9  N   UNL     1      17.688  -2.781 -50.647  0.00  0.00    -0.283 N 
ATOM     36  H   UNL     1      16.881  -2.694 -50.030  0.00  0.00    +0.155 HD
ATOM     37  N   UNL     1      18.494  -0.738 -49.823  0.00  0.00    -0.214 NA
BRANCH   4   3
ATOM      1  C   UNL     1      18.819   2.361 -46.499  0.00  0.00    +0.020 A 
ATOM      2  C   UNL     1      19.122   1.248 -47.369  0.00  0.00    +0.013 A 
ATOM      3  C   UNL     1      19.101   1.408 -48.818  0.00  0.00    +0.019 A 
ATOM     38  C   UNL     1      18.767   2.717 -49.358  0.00  0.00    +0.120 A 
ATOM     39  N   UNL     1      18.478   3.770 -48.496  0.00  0.00    -0.263 NA
ATOM     40  C   UNL     1      18.493   3.627 -47.100  0.00  0.00    +0.111 A 
ENDBRANCH   4   3
ENDBRANCH  10   9
BRANCH  12  13
ATOM     13  N   UNL     1      19.682  -7.235 -51.615  0.00  0.00    -0.281 N 
ATOM     14  C   UNL     1      21.065  -7.243 -51.527  0.00  0.00    +0.248 C 
ATOM     30  O   UNL     1      21.788  -6.345 -51.931  0.00  0.00    -0.270 OA
ATOM     31  H   UNL     1      19.216  -8.122 -51.422  0.00  0.00    +0.155 HD
BRANCH  14  15
ATOM     15  C   UNL     1      21.743  -8.425 -50.913  0.00  0.00    +0.037 A 
ATOM     16  C   UNL     1      22.656  -9.266 -51.690  0.00  0.00    +0.013 A 
ATOM     17  C   UNL     1      23.283 -10.411 -51.078  0.00  0.00    +0.005 A 
ATOM     18  C   UNL     1      23.000 -10.719 -49.679  0.00  0.00    -0.033 A 
ATOM     28  C   UNL     1      22.094  -9.865 -48.929  0.00  0.00    +0.005 A 
ATOM     29  C   UNL     1      21.476  -8.743 -49.526  0.00  0.00    +0.013 A 
BRANCH  18  19
ATOM     19  C   UNL     1      23.608 -11.933 -48.950  0.00  0.00    +0.119 C 
BRANCH  19  20
ATOM     20  N   UNL     1      24.186 -11.697 -47.594  0.00  0.00    -0.302 NA
ATOM     21  C   UNL     1      25.657 -12.114 -47.515  0.00  0.00    +0.066 C 
ATOM     22  C   UNL     1      26.251 -11.839 -46.095  0.00  0.00    -0.064 C 
ATOM     23  N   UNL     1      25.421 -12.580 -45.046  0.00  0.00    +0.379 N 
ATOM     24  C   UNL     1      26.012 -12.371 -43.716  0.00  0.00    -0.096 C 
ATOM     25  H   UNL     1      25.482 -13.670 -45.275  0.00  0.00    -0.082 HD
ATOM     26  C   UNL     1      23.957 -12.174 -45.119  0.00  0.00    -0.064 C 
ATOM     27  C   UNL     1      23.384 -12.423 -46.542  0.00  0.00    +0.066 C 
ENDBRANCH  19  20
ENDBRANCH  18  19
ENDBRANCH  14  15
ENDBRANCH  12  13
TORSDOF 6
ENDMDL
MODEL 3
REMARK VINA RESULT:      -8.3     21.814     25.977
REMARK  Name = C:\Users\Docking\Desktop\test protocol\1iep_ligandH.pdb
REMARK  8 active torsions:
REMARK  status: ('A' for Active; 'I' for Inactive)
REMARK    1  A    between atoms: _5  and  _11
REMARK    2  A    between atoms: _19  and  _21
REMARK    3  A    between atoms: _22  and  _66
REMARK    4  A    between atoms: _27  and  _30
REMARK    5  A    between atoms: _32  and  _33
REMARK    6  A    between atoms: _38  and  _43
REMARK    7  A    between atoms: _43  and  _46
REMARK    8  A    between atoms: _53  and  _55
REMARK                            x       y       z     vdW  Elec       q    Type
REMARK                         _______ _______ _______ _____ _____    ______ ____
ROOT
ATOM     10  C   UNL     1      20.079   0.048 -51.295  0.00  0.00    +0.038 A 
ATOM     11  C   UNL     1      19.739   1.423 -51.222  0.00  0.00    +0.047 A 
ATOM     12  C   UNL     1      19.973   2.193 -50.010  0.00  0.00    +0.035 A 
ATOM     32  C   UNL     1      20.556   1.530 -48.891  0.00  0.00    +0.024 A 
ATOM     33  C   UNL     1      20.907   0.133 -48.947  0.00  0.00    +0.007 A 
ATOM     34  C   UNL     1      20.677  -0.632 -50.140  0.00  0.00    -0.029 A 
ATOM     35  C   UNL     1      21.067  -2.129 -50.141  0.00  0.00    +0.045 C 
ENDROOT
BRANCH  10   9
ATOM      4  C   UNL     1      17.440  -2.905 -54.007  0.00  0.00    +0.077 A 
ATOM      5  C   UNL     1      16.484  -3.110 -52.957  0.00  0.00    +0.048 A 
ATOM      6  C   UNL     1      16.712  -2.443 -51.733  0.00  0.00    +0.116 A 
ATOM      7  N   UNL     1      17.816  -1.633 -51.580  0.00  0.00    -0.223 NA
ATOM      8  C   UNL     1      18.720  -1.458 -52.612  0.00  0.00    +0.220 A 
ATOM      9  N   UNL     1      19.833  -0.643 -52.484  0.00  0.00    -0.283 N 
ATOM     36  H   UNL     1      20.480  -0.546 -53.266  0.00  0.00    +0.155 HD
ATOM     37  N   UNL     1      18.526  -2.085 -53.791  0.00  0.00    -0.214 NA
BRANCH   4   3
ATOM      1  C   UNL     1      17.736  -5.429 -56.980  0.00  0.00    +0.020 A 
ATOM      2  C   UNL     1      17.864  -4.863 -55.657  0.00  0.00    +0.013 A 
ATOM      3  C   UNL     1      17.336  -3.538 -55.360  0.00  0.00    +0.019 A 
ATOM     38  C   UNL     1      16.678  -2.806 -56.432  0.00  0.00    +0.120 A 
ATOM     39  N   UNL     1      16.571  -3.375 -57.697  0.00  0.00    -0.263 NA
ATOM     40  C   UNL     1      17.077  -4.649 -57.995  0.00  0.00    +0.111 A 
ENDBRANCH   4   3
ENDBRANCH  10   9
BRANCH  12  13
ATOM     13  N   UNL     1      19.641   3.589 -49.875  0.00  0.00    -0.281 N 
ATOM     14  C   UNL     1      18.565   4.148 -49.204  0.00  0.00    +0.248 C 
ATOM     30  O   UNL     1      17.601   3.517 -48.796  0.00  0.00    -0.270 OA
ATOM     31  H   UNL     1      20.276   4.246 -50.329  0.00  0.00    +0.155 HD
BRANCH  14  15
ATOM     15  C   UNL     1      18.551   5.623 -48.964  0.00  0.00    +0.037 A 
ATOM     16  C   UNL     1      17.442   6.267 -48.256  0.00  0.00    +0.013 A 
ATOM     17  C   UNL     1      17.445   7.694 -48.053  0.00  0.00    +0.005 A 
ATOM     18  C   UNL     1      18.562   8.487 -48.559  0.00  0.00    -0.033 A 
ATOM     28  C   UNL     1      19.652   7.822 -49.254  0.00  0.00    +0.005 A 
ATOM     29  C   UNL     1      19.652   6.424 -49.456  0.00  0.00    +0.013 A 
BRANCH  18  19
ATOM     19  C   UNL     1      18.638  10.018 -48.406  0.00  0.00    +0.119 C 
BRANCH  19  20
ATOM     20  N   UNL     1      17.376  10.734 -48.053  0.00  0.00    -0.302 NA
ATOM     21  C   UNL     1      17.208  12.030 -48.851  0.00  0.00    +0.066 C 
ATOM     22  C   UNL     1      15.872  12.754 -48.486  0.00  0.00    -0.064 C 
ATOM     23  N   UNL     1      15.842  13.036 -46.983  0.00  0.00    +0.379 N 
ATOM     24  C   UNL     1      14.613  13.768 -46.645  0.00  0.00    -0.096 C 
ATOM     25  H   UNL     1      16.706  13.698 -46.746  0.00  0.00    -0.082 HD
ATOM     26  C   UNL     1      16.011  11.752 -46.182  0.00  0.00    -0.064 C 
ATOM     27  C   UNL     1      17.328  11.026 -46.574  0.00  0.00    +0.066 C 
ENDBRANCH  19  20
ENDBRANCH  18  19
ENDBRANCH  14  15
ENDBRANCH  12  13
TORSDOF 6
ENDMDL
MODEL 4
REMARK VINA RESULT:      -8.2      9.726     14.054
REMARK  Name = C:\Users\Docking\Desktop\test protocol\1iep_ligandH.pdb
REMARK  8 active torsions:
REMARK  status: ('A' for Active; 'I' for Inactive)
REMARK    1  A    between atoms: _5  and  _11
REMARK    2  A    between atoms: _19  and  _21
REMARK    3  A    between atoms: _22  and  _66
REMARK    4  A    between atoms: _27  and  _30
REMARK    5  A    between atoms: _32  and  _33
REMARK    6  A    between atoms: _38  and  _43
REMARK    7  A    between atoms: _43  and  _46
REMARK    8  A    between atoms: _53  and  _55
REMARK                            x       y       z     vdW  Elec       q    Type
REMARK                         _______ _______ _______ _____ _____    ______ ____
ROOT
ATOM     10  C   UNL     1       0.540   3.828 -50.620  0.00  0.00    +0.038 A 
ATOM     11  C   UNL     1       0.908   3.163 -49.422  0.00  0.00    +0.047 A 
ATOM     12  C   UNL     1       0.541   3.700 -48.121  0.00  0.00    +0.035 A 
ATOM     32  C   UNL     1      -0.202   4.915 -48.076  0.00  0.00    +0.024 A 
ATOM     33  C   UNL     1      -0.584   5.604 -49.284  0.00  0.00    +0.007 A 
ATOM     34  C   UNL     1      -0.223   5.081 -50.570  0.00  0.00    -0.029 A 
ATOM     35  C   UNL     1      -0.653   5.865 -51.831  0.00  0.00    +0.045 C 
ENDROOT
BRANCH  10   9
ATOM      4  C   UNL     1      -0.336   1.126 -54.489  0.00  0.00    +0.077 A 
ATOM      5  C   UNL     1      -1.648   0.779 -54.023  0.00  0.00    +0.048 A 
ATOM      6  C   UNL     1      -2.057   1.311 -52.779  0.00  0.00    +0.116 A 
ATOM      7  N   UNL     1      -1.208   2.129 -52.064  0.00  0.00    -0.223 NA
ATOM      8  C   UNL     1       0.051   2.442 -52.541  0.00  0.00    +0.220 A 
ATOM      9  N   UNL     1       0.918   3.268 -51.842  0.00  0.00    -0.283 N 
ATOM     36  H   UNL     1       1.841   3.469 -52.224  0.00  0.00    +0.155 HD
ATOM     37  N   UNL     1       0.465   1.945 -53.725  0.00  0.00    -0.214 NA
BRANCH   4   3
ATOM      1  C   UNL     1       1.074   1.019 -58.136  0.00  0.00    +0.020 A 
ATOM      2  C   UNL     1       0.519   1.534 -56.905  0.00  0.00    +0.013 A 
ATOM      3  C   UNL     1       0.238   0.645 -55.785  0.00  0.00    +0.019 A 
ATOM     38  C   UNL     1       0.532  -0.771 -55.943  0.00  0.00    +0.120 A 
ATOM     39  N   UNL     1       1.065  -1.239 -57.141  0.00  0.00    -0.263 NA
ATOM     40  C   UNL     1       1.338  -0.393 -58.226  0.00  0.00    +0.111 A 
ENDBRANCH   4   3
ENDBRANCH  10   9
BRANCH  12  13
ATOM     13  N   UNL     1       0.894   3.074 -46.870  0.00  0.00    -0.281 N 
ATOM     14  C   UNL     1       0.565   1.802 -46.432  0.00  0.00    +0.248 C 
ATOM     30  O   UNL     1      -0.269   1.082 -46.963  0.00  0.00    -0.270 OA
ATOM     31  H   UNL     1       1.455   3.637 -46.231  0.00  0.00    +0.155 HD
BRANCH  14  15
ATOM     15  C   UNL     1       1.249   1.255 -45.221  0.00  0.00    +0.037 A 
ATOM     16  C   UNL     1       2.464   0.445 -45.336  0.00  0.00    +0.013 A 
ATOM     17  C   UNL     1       3.095  -0.084 -44.153  0.00  0.00    +0.005 A 
ATOM     18  C   UNL     1       2.511   0.197 -42.843  0.00  0.00    -0.033 A 
ATOM     28  C   UNL     1       1.308   1.008 -42.758  0.00  0.00    +0.005 A 
ATOM     29  C   UNL     1       0.686   1.527 -43.916  0.00  0.00    +0.013 A 
BRANCH  18  19
ATOM     19  C   UNL     1       3.105  -0.344 -41.529  0.00  0.00    +0.119 C 
BRANCH  19  20
ATOM     20  N   UNL     1       3.691   0.651 -40.583  0.00  0.00    -0.302 NA
ATOM     21  C   UNL     1       5.212   0.507 -40.468  0.00  0.00    +0.066 C 
ATOM     22  C   UNL     1       5.811   1.571 -39.491  0.00  0.00    -0.064 C 
ATOM     23  N   UNL     1       5.149   1.431 -38.120  0.00  0.00    +0.379 N 
ATOM     24  C   UNL     1       5.752   2.390 -37.183  0.00  0.00    -0.096 C 
ATOM     25  H   UNL     1       5.368   0.405 -37.741  0.00  0.00    -0.082 HD
ATOM     26  C   UNL     1       3.637   1.569 -38.225  0.00  0.00    -0.064 C 
ATOM     27  C   UNL     1       3.054   0.528 -39.221  0.00  0.00    +0.066 C 
ENDBRANCH  19  20
ENDBRANCH  18  19
ENDBRANCH  14  15
ENDBRANCH  12  13
TORSDOF 6
ENDMDL
MODEL 5
REMARK VINA RESULT:      -8.2     22.162     26.005
REMARK  Name = C:\Users\Docking\Desktop\test protocol\1iep_ligandH.pdb
REMARK  8 active torsions:
REMARK  status: ('A' for Active; 'I' for Inactive)
REMARK    1  A    between atoms: _5  and  _11
REMARK    2  A    between atoms: _19  and  _21
REMARK    3  A    between atoms: _22  and  _66
REMARK    4  A    between atoms: _27  and  _30
REMARK    5  A    between atoms: _32  and  _33
REMARK    6  A    between atoms: _38  and  _43
REMARK    7  A    between atoms: _43  and  _46
REMARK    8  A    between atoms: _53  and  _55
REMARK                            x       y       z     vdW  Elec       q    Type
REMARK                         _______ _______ _______ _____ _____    ______ ____
ROOT
ATOM     10  C   UNL     1      17.474  -2.971 -52.966  0.00  0.00    +0.038 A 
ATOM     11  C   UNL     1      17.618  -1.822 -52.147  0.00  0.00    +0.047 A 
ATOM     12  C   UNL     1      18.084  -1.931 -50.773  0.00  0.00    +0.035 A 
ATOM     32  C   UNL     1      18.397  -3.226 -50.266  0.00  0.00    +0.024 A 
ATOM     33  C   UNL     1      18.255  -4.405 -51.085  0.00  0.00    +0.007 A 
ATOM     34  C   UNL     1      17.793  -4.304 -52.440  0.00  0.00    -0.029 A 
ATOM     35  C   UNL     1      17.654  -5.602 -53.269  0.00  0.00    +0.045 C 
ENDROOT
BRANCH  10   9
ATOM      4  C   UNL     1      17.939  -1.238 -57.418  0.00  0.00    +0.077 A 
ATOM      5  C   UNL     1      19.171  -0.578 -57.095  0.00  0.00    +0.048 A 
ATOM      6  C   UNL     1      19.647  -0.703 -55.771  0.00  0.00    +0.116 A 
ATOM      7  N   UNL     1      18.936  -1.437 -54.846  0.00  0.00    -0.223 NA
ATOM      8  C   UNL     1      17.750  -2.060 -55.189  0.00  0.00    +0.220 A 
ATOM      9  N   UNL     1      17.023  -2.809 -54.278  0.00  0.00    -0.283 N 
ATOM     36  H   UNL     1      16.149  -3.246 -54.568  0.00  0.00    +0.155 HD
ATOM     37  N   UNL     1      17.273  -1.954 -56.447  0.00  0.00    -0.214 NA
BRANCH   4   3
ATOM      1  C   UNL     1      16.816  -0.084 -60.982  0.00  0.00    +0.020 A 
ATOM      2  C   UNL     1      17.445  -0.069 -59.682  0.00  0.00    +0.013 A 
ATOM      3  C   UNL     1      17.308  -1.201 -58.775  0.00  0.00    +0.019 A 
ATOM     38  C   UNL     1      16.523  -2.343 -59.218  0.00  0.00    +0.120 A 
ATOM     39  N   UNL     1      15.927  -2.329 -60.476  0.00  0.00    -0.263 NA
ATOM     40  C   UNL     1      16.051  -1.244 -61.356  0.00  0.00    +0.111 A 
ENDBRANCH   4   3
ENDBRANCH  10   9
BRANCH  12  13
ATOM     13  N   UNL     1      18.242  -0.801 -49.892  0.00  0.00    -0.281 N 
ATOM     14  C   UNL     1      19.403  -0.103 -49.602  0.00  0.00    +0.248 C 
ATOM     30  O   UNL     1      20.528  -0.481 -49.894  0.00  0.00    -0.270 OA
ATOM     31  H   UNL     1      17.395  -0.476 -49.425  0.00  0.00    +0.155 HD
BRANCH  14  15
ATOM     15  C   UNL     1      19.301   1.195 -48.868  0.00  0.00    +0.037 A 
ATOM     16  C   UNL     1      19.175   1.236 -47.409  0.00  0.00    +0.013 A 
ATOM     17  C   UNL     1      19.061   2.501 -46.728  0.00  0.00    +0.005 A 
ATOM     18  C   UNL     1      19.074   3.737 -47.507  0.00  0.00    -0.033 A 
ATOM     28  C   UNL     1      19.205   3.668 -48.953  0.00  0.00    +0.005 A 
ATOM     29  C   UNL     1      19.316   2.430 -49.624  0.00  0.00    +0.013 A 
BRANCH  18  19
ATOM     19  C   UNL     1      18.936   5.131 -46.866  0.00  0.00    +0.119 C 
BRANCH  19  20
ATOM     20  N   UNL     1      19.478   6.292 -47.632  0.00  0.00    -0.302 NA
ATOM     21  C   UNL     1      20.538   7.061 -46.837  0.00  0.00    +0.066 C 
ATOM     22  C   UNL     1      21.111   8.259 -47.662  0.00  0.00    -0.064 C 
ATOM     23  N   UNL     1      19.965   9.185 -48.073  0.00  0.00    +0.379 N 
ATOM     24  C   UNL     1      20.507  10.343 -48.799  0.00  0.00    -0.096 C 
ATOM     25  H   UNL     1      19.486   9.564 -47.141  0.00  0.00    -0.082 HD
ATOM     26  C   UNL     1      18.906   8.429 -48.862  0.00  0.00    -0.064 C 
ATOM     27  C   UNL     1      18.364   7.223 -48.044  0.00  0.00    +0.066 C 
ENDBRANCH  19  20
ENDBRANCH  18  19
ENDBRANCH  14  15
ENDBRANCH  12  13
TORSDOF 6
ENDMDL
