MODEL 1
REMARK VINA RESULT:      -8.3      0.000      0.000
REMARK  Name = C:\Users\Docking\Desktop\test protocol\1iep_ligandH.pdb
REMARK  8 active torsions:
REMARK  status: ('A' for Active; 'I' for Inactive)
REMARK    1  A    between atoms: _5  and  _11
REMARK    2  A    between atoms: _19  and  _21
REMARK    3  A    between atoms: _22  and  _66
REMARK    4  A    between atoms: _27  and  _30
REMARK    5  A    between atoms: _32  and  _33
REMARK    6  A    between atoms: _38  and  _43
REMARK    7  A    between atoms: _43  and  _46
REMARK    8  A    between atoms: _53  and  _55
REMARK                            x       y       z     vdW  Elec       q    Type
REMARK                         _______ _______ _______ _____ _____    ______ ____
ROOT
ATOM     10  C   UNL     1     -15.490  22.031  -7.930  0.00  0.00    +0.038 A 
ATOM     11  C   UNL     1     -14.259  21.837  -8.609  0.00  0.00    +0.047 A 
ATOM     12  C   UNL     1     -13.347  22.945  -8.845  0.00  0.00    +0.035 A 
ATOM     32  C   UNL     1     -13.719  24.238  -8.375  0.00  0.00    +0.024 A 
ATOM     33  C   UNL     1     -14.967  24.454  -7.685  0.00  0.00    +0.007 A 
ATOM     34  C   UNL     1     -15.871  23.365  -7.451  0.00  0.00    -0.029 A 
ATOM     35  C   UNL     1     -17.198  23.655  -6.711  0.00  0.00    +0.045 C 
ENDROOT
BRANCH  10   9
ATOM      4  C   UNL     1     -18.974  19.050  -9.350  0.00  0.00    +0.077 A 
ATOM      5  C   UNL     1     -19.159  19.759 -10.583  0.00  0.00    +0.048 A 
ATOM      6  C   UNL     1     -18.343  20.890 -10.810  0.00  0.00    +0.116 A 
ATOM      7  N   UNL     1     -17.414  21.274  -9.868  0.00  0.00    -0.223 NA
ATOM      8  C   UNL     1     -17.261  20.568  -8.688  0.00  0.00    +0.220 A 
ATOM      9  N   UNL     1     -16.327  20.931  -7.730  0.00  0.00    -0.283 N 
ATOM     36  H   UNL     1     -16.251  20.389  -6.870  0.00  0.00    +0.155 HD
ATOM     37  N   UNL     1     -18.030  19.486  -8.447  0.00  0.00    -0.214 NA
BRANCH   4   3
ATOM      1  C   UNL     1     -21.899  16.664  -8.327  0.00  0.00    +0.020 A 
ATOM      2  C   UNL     1     -21.189  17.868  -8.693  0.00  0.00    +0.013 A 
ATOM      3  C   UNL     1     -19.758  17.834  -8.966  0.00  0.00    +0.019 A 
ATOM     38  C   UNL     1     -19.070  16.556  -8.860  0.00  0.00    +0.120 A 
ATOM     39  N   UNL     1     -19.780  15.414  -8.504  0.00  0.00    -0.263 NA
ATOM     40  C   UNL     1     -21.157  15.434  -8.237  0.00  0.00    +0.111 A 
ENDBRANCH   4   3
ENDBRANCH  10   9
BRANCH  12  13
ATOM     13  N   UNL     1     -12.088  22.810  -9.535  0.00  0.00    -0.281 N 
ATOM     14  C   UNL     1     -10.861  22.449  -9.004  0.00  0.00    +0.248 C 
ATOM     30  O   UNL     1     -10.614  22.394  -7.809  0.00  0.00    -0.270 OA
ATOM     31  H   UNL     1     -12.104  23.004 -10.536  0.00  0.00    +0.155 HD
BRANCH  14  15
ATOM     15  C   UNL     1      -9.742  22.114  -9.936  0.00  0.00    +0.037 A 
ATOM     16  C   UNL     1      -8.885  20.947  -9.707  0.00  0.00    +0.013 A 
ATOM     17  C   UNL     1      -7.802  20.657 -10.612  0.00  0.00    +0.005 A 
ATOM     18  C   UNL     1      -7.569  21.535 -11.756  0.00  0.00    -0.033 A 
ATOM     28  C   UNL     1      -8.437  22.682 -11.963  0.00  0.00    +0.005 A 
ATOM     29  C   UNL     1      -9.500  22.971 -11.077  0.00  0.00    +0.013 A 
BRANCH  18  19
ATOM     19  C   UNL     1      -6.423  21.313 -12.762  0.00  0.00    +0.119 C 
BRANCH  19  20
ATOM     20  N   UNL     1      -6.802  20.963 -14.163  0.00  0.00    -0.302 NA
ATOM     21  C   UNL     1      -7.010  19.457 -14.343  0.00  0.00    +0.066 C 
ATOM     22  C   UNL     1      -7.427  19.111 -15.810  0.00  0.00    -0.064 C 
ATOM     23  N   UNL     1      -6.361  19.630 -16.776  0.00  0.00    +0.379 N 
ATOM     24  C   UNL     1      -6.721  19.256 -18.152  0.00  0.00    -0.096 C 
ATOM     25  H   UNL     1      -5.402  19.119 -16.527  0.00  0.00    -0.082 HD
ATOM     26  C   UNL     1      -6.145  21.127 -16.602  0.00  0.00    -0.064 C 
ATOM     27  C   UNL     1      -5.760  21.462 -15.134  0.00  0.00    +0.066 C 
ENDBRANCH  19  20
ENDBRANCH  18  19
ENDBRANCH  14  15
ENDBRANCH  12  13
TORSDOF 6
ENDMDL
MODEL 2
REMARK VINA RESULT:      -7.9      7.706     16.134
REMARK  Name = C:\Users\Docking\Desktop\test protocol\1iep_ligandH.pdb
REMARK  8 active torsions:
REMARK  status: ('A' for Active; 'I' for Inactive)
REMARK    1  A    between atoms: _5  and  _11
REMARK    2  A    between atoms: _19  and  _21
REMARK    3  A    between atoms: _22  and  _66
REMARK    4  A    between atoms: _27  and  _30
REMARK    5  A    between atoms: _32  and  _33
REMARK    6  A    between atoms: _38  and  _43
REMARK    7  A    between atoms: _43  and  _46
REMARK    8  A    between atoms: _53  and  _55
REMARK                            x       y       z     vdW  Elec       q    Type
REMARK                         _______ _______ _______ _____ _____    ______ ____
ROOT
ATOM     10  C   UNL     1     -20.353  17.868  -8.144  0.00  0.00    +0.038 A 
ATOM     11  C   UNL     1     -21.751  17.632  -8.130  0.00  0.00    +0.047 A 
ATOM     12  C   UNL     1     -22.285  16.283  -8.025  0.00  0.00    +0.035 A 
ATOM     32  C   UNL     1     -21.366  15.197  -7.935  0.00  0.00    +0.024 A 
ATOM     33  C   UNL     1     -19.941  15.419  -7.949  0.00  0.00    +0.007 A 
ATOM     34  C   UNL     1     -19.409  16.747  -8.055  0.00  0.00    -0.029 A 
ATOM     35  C   UNL     1     -17.873  16.926  -8.072  0.00  0.00    +0.045 C 
ENDROOT
BRANCH  10   9
ATOM      4  C   UNL     1     -18.846  21.639 -10.703  0.00  0.00    +0.077 A 
ATOM      5  C   UNL     1     -18.955  20.919 -11.939  0.00  0.00    +0.048 A 
ATOM      6  C   UNL     1     -19.395  19.578 -11.872  0.00  0.00    +0.116 A 
ATOM      7  N   UNL     1     -19.702  19.010 -10.655  0.00  0.00    -0.223 NA
ATOM      8  C   UNL     1     -19.584  19.732  -9.481  0.00  0.00    +0.220 A 
ATOM      9  N   UNL     1     -19.895  19.183  -8.246  0.00  0.00    -0.283 N 
ATOM     36  H   UNL     1     -19.788  19.747  -7.403  0.00  0.00    +0.155 HD
ATOM     37  N   UNL     1     -19.164  21.014  -9.518  0.00  0.00    -0.214 NA
BRANCH   4   3
ATOM      1  C   UNL     1     -18.513  25.493 -11.284  0.00  0.00    +0.020 A 
ATOM      2  C   UNL     1     -18.982  24.132 -11.412  0.00  0.00    +0.013 A 
ATOM      3  C   UNL     1     -18.398  23.064 -10.610  0.00  0.00    +0.019 A 
ATOM     38  C   UNL     1     -17.333  23.409  -9.680  0.00  0.00    +0.120 A 
ATOM     39  N   UNL     1     -16.901  24.728  -9.579  0.00  0.00    -0.263 NA
ATOM     40  C   UNL     1     -17.454  25.764 -10.347  0.00  0.00    +0.111 A 
ENDBRANCH   4   3
ENDBRANCH  10   9
BRANCH  12  13
ATOM     13  N   UNL     1     -23.695  15.981  -8.013  0.00  0.00    -0.281 N 
ATOM     14  C   UNL     1     -24.647  16.393  -7.095  0.00  0.00    +0.248 C 
ATOM     30  O   UNL     1     -24.390  16.912  -6.019  0.00  0.00    -0.270 OA
ATOM     31  H   UNL     1     -24.032  15.391  -8.775  0.00  0.00    +0.155 HD
BRANCH  14  15
ATOM     15  C   UNL     1     -26.093  16.186  -7.412  0.00  0.00    +0.037 A 
ATOM     16  C   UNL     1     -27.077  17.251  -7.200  0.00  0.00    +0.013 A 
ATOM     17  C   UNL     1     -28.468  17.019  -7.497  0.00  0.00    +0.005 A 
ATOM     18  C   UNL     1     -28.883  15.716  -8.012  0.00  0.00    -0.033 A 
ATOM     28  C   UNL     1     -27.885  14.680  -8.218  0.00  0.00    +0.005 A 
ATOM     29  C   UNL     1     -26.521  14.903  -7.926  0.00  0.00    +0.013 A 
BRANCH  18  19
ATOM     19  C   UNL     1     -30.349  15.374  -8.336  0.00  0.00    +0.119 C 
BRANCH  19  20
ATOM     20  N   UNL     1     -30.647  14.880  -9.714  0.00  0.00    -0.302 NA
ATOM     21  C   UNL     1     -31.370  15.933 -10.558  0.00  0.00    +0.066 C 
ATOM     22  C   UNL     1     -31.654  15.408 -12.003  0.00  0.00    -0.064 C 
ATOM     23  N   UNL     1     -32.476  14.121 -11.922  0.00  0.00    +0.379 N 
ATOM     24  C   UNL     1     -32.794  13.656 -13.280  0.00  0.00    -0.096 C 
ATOM     25  H   UNL     1     -33.438  14.366 -11.415  0.00  0.00    -0.082 HD
ATOM     26  C   UNL     1     -31.766  13.069 -11.082  0.00  0.00    -0.064 C 
ATOM     27  C   UNL     1     -31.463  13.611  -9.658  0.00  0.00    +0.066 C 
ENDBRANCH  19  20
ENDBRANCH  18  19
ENDBRANCH  14  15
ENDBRANCH  12  13
TORSDOF 6
ENDMDL
MODEL 3
REMARK VINA RESULT:      -7.9      7.698     16.184
REMARK  Name = C:\Users\Docking\Desktop\test protocol\1iep_ligandH.pdb
REMARK  8 active torsions:
REMARK  status: ('A' for Active; 'I' for Inactive)
REMARK    1  A    between atoms: _5  and  _11
REMARK    2  A    between atoms: _19  and  _21
REMARK    3  A    between atoms: _22  and  _66
REMARK    4  A    between atoms: _27  and  _30
REMARK    5  A    between atoms: _32  and  _33
REMARK    6  A    between atoms: _38  and  _43
REMARK    7  A    between atoms: _43  and  _46
REMARK    8  A    between atoms: _53  and  _55
REMARK                            x       y       z     vdW  Elec       q    Type
REMARK                         _______ _______ _______ _____ _____    ______ ____
ROOT
ATOM     10  C   UNL     1     -20.393  17.846  -8.163  0.00  0.00    +0.038 A 
ATOM     11  C   UNL     1     -21.793  17.625  -8.119  0.00  0.00    +0.047 A 
ATOM     12  C   UNL     1     -22.340  16.279  -8.033  0.00  0.00    +0.035 A 
ATOM     32  C   UNL     1     -21.432  15.182  -7.990  0.00  0.00    +0.024 A 
ATOM     33  C   UNL     1     -20.005  15.389  -8.035  0.00  0.00    +0.007 A 
ATOM     34  C   UNL     1     -19.460  16.713  -8.123  0.00  0.00    -0.029 A 
ATOM     35  C   UNL     1     -17.923  16.875  -8.174  0.00  0.00    +0.045 C 
ENDROOT
BRANCH  10   9
ATOM      4  C   UNL     1     -18.850  21.639 -10.667  0.00  0.00    +0.077 A 
ATOM      5  C   UNL     1     -18.965  20.937 -11.913  0.00  0.00    +0.048 A 
ATOM      6  C   UNL     1     -19.418  19.600 -11.866  0.00  0.00    +0.116 A 
ATOM      7  N   UNL     1     -19.730  19.018 -10.656  0.00  0.00    -0.223 NA
ATOM      8  C   UNL     1     -19.607  19.722  -9.473  0.00  0.00    +0.220 A 
ATOM      9  N   UNL     1     -19.923  19.158  -8.246  0.00  0.00    -0.283 N 
ATOM     36  H   UNL     1     -19.811  19.709  -7.395  0.00  0.00    +0.155 HD
ATOM     37  N   UNL     1     -19.175  21.000  -9.491  0.00  0.00    -0.214 NA
BRANCH   4   3
ATOM      1  C   UNL     1     -18.490  25.500 -11.181  0.00  0.00    +0.020 A 
ATOM      2  C   UNL     1     -18.972  24.146 -11.328  0.00  0.00    +0.013 A 
ATOM      3  C   UNL     1     -18.388  23.058 -10.553  0.00  0.00    +0.019 A 
ATOM     38  C   UNL     1     -17.309  23.377  -9.630  0.00  0.00    +0.120 A 
ATOM     39  N   UNL     1     -16.865  24.690  -9.510  0.00  0.00    -0.263 NA
ATOM     40  C   UNL     1     -17.418  25.745 -10.252  0.00  0.00    +0.111 A 
ENDBRANCH   4   3
ENDBRANCH  10   9
BRANCH  12  13
ATOM     13  N   UNL     1     -23.753  15.993  -7.993  0.00  0.00    -0.281 N 
ATOM     14  C   UNL     1     -24.678  16.401  -7.046  0.00  0.00    +0.248 C 
ATOM     30  O   UNL     1     -24.390  16.899  -5.968  0.00  0.00    -0.270 OA
ATOM     31  H   UNL     1     -24.114  15.420  -8.756  0.00  0.00    +0.155 HD
BRANCH  14  15
ATOM     15  C   UNL     1     -26.134  16.215  -7.332  0.00  0.00    +0.037 A 
ATOM     16  C   UNL     1     -26.661  14.923  -7.779  0.00  0.00    +0.013 A 
ATOM     17  C   UNL     1     -28.066  14.775  -8.064  0.00  0.00    +0.005 A 
ATOM     18  C   UNL     1     -28.955  15.924  -7.902  0.00  0.00    -0.033 A 
ATOM     28  C   UNL     1     -28.405  17.192  -7.452  0.00  0.00    +0.005 A 
ATOM     29  C   UNL     1     -27.029  17.341  -7.173  0.00  0.00    +0.013 A 
BRANCH  18  19
ATOM     19  C   UNL     1     -30.464  15.863  -8.204  0.00  0.00    +0.119 C 
BRANCH  19  20
ATOM     20  N   UNL     1     -30.974  16.721  -9.314  0.00  0.00    -0.302 NA
ATOM     21  C   UNL     1     -32.005  17.742  -8.825  0.00  0.00    +0.066 C 
ATOM     22  C   UNL     1     -32.512  18.646  -9.996  0.00  0.00    -0.064 C 
ATOM     23  N   UNL     1     -33.103  17.765 -11.098  0.00  0.00    +0.379 N 
ATOM     24  C   UNL     1     -33.632  18.614 -12.174  0.00  0.00    -0.096 C 
ATOM     25  H   UNL     1     -33.959  17.202 -10.658  0.00  0.00    -0.082 HD
ATOM     26  C   UNL     1     -32.084  16.745 -11.588  0.00  0.00    -0.064 C 
ATOM     27  C   UNL     1     -31.566  15.871 -10.412  0.00  0.00    +0.066 C 
ENDBRANCH  19  20
ENDBRANCH  18  19
ENDBRANCH  14  15
ENDBRANCH  12  13
TORSDOF 6
ENDMDL
MODEL 4
REMARK VINA RESULT:      -7.8      7.622     12.340
REMARK  Name = C:\Users\Docking\Desktop\test protocol\1iep_ligandH.pdb
REMARK  8 active torsions:
REMARK  status: ('A' for Active; 'I' for Inactive)
REMARK    1  A    between atoms: _5  and  _11
REMARK    2  A    between atoms: _19  and  _21
REMARK    3  A    between atoms: _22  and  _66
REMARK    4  A    between atoms: _27  and  _30
REMARK    5  A    between atoms: _32  and  _33
REMARK    6  A    between atoms: _38  and  _43
REMARK    7  A    between atoms: _43  and  _46
REMARK    8  A    between atoms: _53  and  _55
REMARK                            x       y       z     vdW  Elec       q    Type
REMARK                         _______ _______ _______ _____ _____    ______ ____
ROOT
ATOM     10  C   UNL     1      -9.501  17.775  -3.926  0.00  0.00    +0.038 A 
ATOM     11  C   UNL     1     -10.817  18.014  -4.397  0.00  0.00    +0.047 A 
ATOM     12  C   UNL     1     -11.390  19.351  -4.381  0.00  0.00    +0.035 A 
ATOM     32  C   UNL     1     -10.593  20.422  -3.881  0.00  0.00    +0.024 A 
ATOM     33  C   UNL     1      -9.254  20.196  -3.397  0.00  0.00    +0.007 A 
ATOM     34  C   UNL     1      -8.684  18.879  -3.408  0.00  0.00    -0.029 A 
ATOM     35  C   UNL     1      -7.246  18.695  -2.871  0.00  0.00    +0.045 C 
ENDROOT
BRANCH  10   9
ATOM      4  C   UNL     1      -8.464  13.576  -1.844  0.00  0.00    +0.077 A 
ATOM      5  C   UNL     1      -8.934  14.026  -0.566  0.00  0.00    +0.048 A 
ATOM      6  C   UNL     1      -9.428  15.348  -0.485  0.00  0.00    +0.116 A 
ATOM      7  N   UNL     1      -9.447  16.150  -1.605  0.00  0.00    -0.223 NA
ATOM      8  C   UNL     1      -8.984  15.685  -2.823  0.00  0.00    +0.220 A 
ATOM      9  N   UNL     1      -9.000  16.471  -3.964  0.00  0.00    -0.283 N 
ATOM     36  H   UNL     1      -8.643  16.094  -4.842  0.00  0.00    +0.155 HD
ATOM     37  N   UNL     1      -8.506  14.427  -2.926  0.00  0.00    -0.214 NA
BRANCH   4   3
ATOM      1  C   UNL     1      -7.611  10.140  -3.507  0.00  0.00    +0.020 A 
ATOM      2  C   UNL     1      -8.164  11.461  -3.319  0.00  0.00    +0.013 A 
ATOM      3  C   UNL     1      -7.915  12.205  -2.091  0.00  0.00    +0.019 A 
ATOM     38  C   UNL     1      -7.095  11.579  -1.065  0.00  0.00    +0.120 A 
ATOM     39  N   UNL     1      -6.577  10.305  -1.273  0.00  0.00    -0.263 NA
ATOM     40  C   UNL     1      -6.811   9.579  -2.451  0.00  0.00    +0.111 A 
ENDBRANCH   4   3
ENDBRANCH  10   9
BRANCH  12  13
ATOM     13  N   UNL     1     -12.724  19.654  -4.839  0.00  0.00    -0.281 N 
ATOM     14  C   UNL     1     -13.102  20.225  -6.043  0.00  0.00    +0.248 C 
ATOM     30  O   UNL     1     -12.331  20.762  -6.825  0.00  0.00    -0.270 OA
ATOM     31  H   UNL     1     -13.481  19.418  -4.197  0.00  0.00    +0.155 HD
BRANCH  14  15
ATOM     15  C   UNL     1     -14.546  20.211  -6.427  0.00  0.00    +0.037 A 
ATOM     16  C   UNL     1     -15.578  19.762  -5.488  0.00  0.00    +0.013 A 
ATOM     17  C   UNL     1     -16.962  19.742  -5.889  0.00  0.00    +0.005 A 
ATOM     18  C   UNL     1     -17.323  20.175  -7.237  0.00  0.00    -0.033 A 
ATOM     28  C   UNL     1     -16.280  20.620  -8.147  0.00  0.00    +0.005 A 
ATOM     29  C   UNL     1     -14.922  20.640  -7.757  0.00  0.00    +0.013 A 
BRANCH  18  19
ATOM     19  C   UNL     1     -18.772  20.167  -7.758  0.00  0.00    +0.119 C 
BRANCH  19  20
ATOM     20  N   UNL     1     -19.503  18.865  -7.727  0.00  0.00    -0.302 NA
ATOM     21  C   UNL     1     -18.749  17.764  -8.479  0.00  0.00    +0.066 C 
ATOM     22  C   UNL     1     -19.517  16.404  -8.417  0.00  0.00    -0.064 C 
ATOM     23  N   UNL     1     -20.923  16.588  -8.991  0.00  0.00    +0.379 N 
ATOM     24  C   UNL     1     -21.627  15.297  -8.987  0.00  0.00    -0.096 C 
ATOM     25  H   UNL     1     -20.814  16.911 -10.052  0.00  0.00    -0.082 HD
ATOM     26  C   UNL     1     -21.678  17.682  -8.250  0.00  0.00    -0.064 C 
ATOM     27  C   UNL     1     -20.892  19.022  -8.293  0.00  0.00    +0.066 C 
ENDBRANCH  19  20
ENDBRANCH  18  19
ENDBRANCH  14  15
ENDBRANCH  12  13
TORSDOF 6
ENDMDL
MODEL 5
REMARK VINA RESULT:      -7.7      7.889     12.337
REMARK  Name = C:\Users\Docking\Desktop\test protocol\1iep_ligandH.pdb
REMARK  8 active torsions:
REMARK  status: ('A' for Active; 'I' for Inactive)
REMARK    1  A    between atoms: _5  and  _11
REMARK    2  A    between atoms: _19  and  _21
REMARK    3  A    between atoms: _22  and  _66
REMARK    4  A    between atoms: _27  and  _30
REMARK    5  A    between atoms: _32  and  _33
REMARK    6  A    between atoms: _38  and  _43
REMARK    7  A    between atoms: _43  and  _46
REMARK    8  A    between atoms: _53  and  _55
REMARK                            x       y       z     vdW  Elec       q    Type
REMARK                         _______ _______ _______ _____ _____    ______ ____
ROOT
ATOM     10  C   UNL     1      -9.749  17.420  -4.033  0.00  0.00    +0.038 A 
ATOM     11  C   UNL     1     -11.125  17.512  -4.363  0.00  0.00    +0.047 A 
ATOM     12  C   UNL     1     -11.804  18.797  -4.407  0.00  0.00    +0.035 A 
ATOM     32  C   UNL     1     -11.050  19.970  -4.111  0.00  0.00    +0.024 A 
ATOM     33  C   UNL     1      -9.651  19.895  -3.772  0.00  0.00    +0.007 A 
ATOM     34  C   UNL     1      -8.976  18.629  -3.725  0.00  0.00    -0.029 A 
ATOM     35  C   UNL     1      -7.476  18.608  -3.350  0.00  0.00    +0.045 C 
ENDROOT
BRANCH  10   9
ATOM      4  C   UNL     1      -8.388  13.427  -1.744  0.00  0.00    +0.077 A 
ATOM      5  C   UNL     1      -8.894  13.903  -0.489  0.00  0.00    +0.048 A 
ATOM      6  C   UNL     1      -9.492  15.183  -0.474  0.00  0.00    +0.116 A 
ATOM      7  N   UNL     1      -9.571  15.923  -1.634  0.00  0.00    -0.223 NA
ATOM      8  C   UNL     1      -9.071  15.436  -2.827  0.00  0.00    +0.220 A 
ATOM      9  N   UNL     1      -9.147  16.160  -4.007  0.00  0.00    -0.283 N 
ATOM     36  H   UNL     1      -8.759  15.768  -4.865  0.00  0.00    +0.155 HD
ATOM     37  N   UNL     1      -8.494  14.216  -2.867  0.00  0.00    -0.214 NA
BRANCH   4   3
ATOM      1  C   UNL     1      -6.298  10.181  -1.115  0.00  0.00    +0.020 A 
ATOM      2  C   UNL     1      -6.908  11.471  -0.893  0.00  0.00    +0.013 A 
ATOM      3  C   UNL     1      -7.732  12.092  -1.922  0.00  0.00    +0.019 A 
ATOM     38  C   UNL     1      -7.921  11.375  -3.174  0.00  0.00    +0.120 A 
ATOM     39  N   UNL     1      -7.320  10.134  -3.360  0.00  0.00    -0.263 NA
ATOM     40  C   UNL     1      -6.523   9.528  -2.377  0.00  0.00    +0.111 A 
ENDBRANCH   4   3
ENDBRANCH  10   9
BRANCH  12  13
ATOM     13  N   UNL     1     -13.201  18.951  -4.728  0.00  0.00    -0.281 N 
ATOM     14  C   UNL     1     -14.248  19.232  -3.864  0.00  0.00    +0.248 C 
ATOM     30  O   UNL     1     -14.170  19.182  -2.646  0.00  0.00    -0.270 OA
ATOM     31  H   UNL     1     -13.449  18.840  -5.711  0.00  0.00    +0.155 HD
BRANCH  14  15
ATOM     15  C   UNL     1     -15.575  19.609  -4.437  0.00  0.00    +0.037 A 
ATOM     16  C   UNL     1     -16.572  18.591  -4.780  0.00  0.00    +0.013 A 
ATOM     17  C   UNL     1     -17.838  18.981  -5.348  0.00  0.00    +0.005 A 
ATOM     18  C   UNL     1     -18.116  20.397  -5.574  0.00  0.00    -0.033 A 
ATOM     28  C   UNL     1     -17.112  21.387  -5.220  0.00  0.00    +0.005 A 
ATOM     29  C   UNL     1     -15.869  21.008  -4.664  0.00  0.00    +0.013 A 
BRANCH  18  19
ATOM     19  C   UNL     1     -19.432  20.903  -6.194  0.00  0.00    +0.119 C 
BRANCH  19  20
ATOM     20  N   UNL     1     -19.585  20.771  -7.674  0.00  0.00    -0.302 NA
ATOM     21  C   UNL     1     -20.225  19.437  -8.069  0.00  0.00    +0.066 C 
ATOM     22  C   UNL     1     -20.399  19.326  -9.619  0.00  0.00    -0.064 C 
ATOM     23  N   UNL     1     -19.037  19.495 -10.295  0.00  0.00    +0.379 N 
ATOM     24  C   UNL     1     -19.188  19.333 -11.748  0.00  0.00    -0.096 C 
ATOM     25  H   UNL     1     -18.375  18.676  -9.930  0.00  0.00    -0.082 HD
ATOM     26  C   UNL     1     -18.393  20.817  -9.906  0.00  0.00    -0.064 C 
ATOM     27  C   UNL     1     -18.252  20.930  -8.362  0.00  0.00    +0.066 C 
ENDBRANCH  19  20
ENDBRANCH  18  19
ENDBRANCH  14  15
ENDBRANCH  12  13
TORSDOF 6
ENDMDL
