MODEL 1
REMARK VINA RESULT:      -8.3      0.000      0.000
REMARK  Name = C:\Users\Docking\Desktop\test protocol\1iep_ligandH.pdb
REMARK  8 active torsions:
REMARK  status: ('A' for Active; 'I' for Inactive)
REMARK    1  A    between atoms: _5  and  _11
REMARK    2  A    between atoms: _19  and  _21
REMARK    3  A    between atoms: _22  and  _66
REMARK    4  A    between atoms: _27  and  _30
REMARK    5  A    between atoms: _32  and  _33
REMARK    6  A    between atoms: _38  and  _43
REMARK    7  A    between atoms: _43  and  _46
REMARK    8  A    between atoms: _53  and  _55
REMARK                            x       y       z     vdW  Elec       q    Type
REMARK                         _______ _______ _______ _____ _____    ______ ____
ROOT
ATOM     10  C   UNL     1     -15.188  21.440  -7.180  0.00  0.00    +0.038 A 
ATOM     11  C   UNL     1     -14.036  21.384  -8.004  0.00  0.00    +0.047 A 
ATOM     12  C   UNL     1     -13.097  22.494  -8.061  0.00  0.00    +0.035 A 
ATOM     32  C   UNL     1     -13.363  23.645  -7.262  0.00  0.00    +0.024 A 
ATOM     33  C   UNL     1     -14.530  23.718  -6.419  0.00  0.00    +0.007 A 
ATOM     34  C   UNL     1     -15.460  22.627  -6.361  0.00  0.00    -0.029 A 
ATOM     35  C   UNL     1     -16.699  22.764  -5.445  0.00  0.00    +0.045 C 
ENDROOT
BRANCH  10   9
ATOM      4  C   UNL     1     -18.914  18.966  -8.922  0.00  0.00    +0.077 A 
ATOM      5  C   UNL     1     -19.172  19.951  -9.933  0.00  0.00    +0.048 A 
ATOM      6  C   UNL     1     -18.326  21.082  -9.966  0.00  0.00    +0.116 A 
ATOM      7  N   UNL     1     -17.303  21.209  -9.051  0.00  0.00    -0.223 NA
ATOM      8  C   UNL     1     -17.084  20.242  -8.088  0.00  0.00    +0.220 A 
ATOM      9  N   UNL     1     -16.056  20.345  -7.164  0.00  0.00    -0.283 N 
ATOM     36  H   UNL     1     -15.931  19.614  -6.464  0.00  0.00    +0.155 HD
ATOM     37  N   UNL     1     -17.878  19.152  -8.035  0.00  0.00    -0.214 NA
BRANCH   4   3
ATOM      1  C   UNL     1     -21.897  16.478  -8.452  0.00  0.00    +0.020 A 
ATOM      2  C   UNL     1     -21.168  17.716  -8.604  0.00  0.00    +0.013 A 
ATOM      3  C   UNL     1     -19.718  17.713  -8.760  0.00  0.00    +0.019 A 
ATOM     38  C   UNL     1     -19.032  16.430  -8.759  0.00  0.00    +0.120 A 
ATOM     39  N   UNL     1     -19.760  15.254  -8.609  0.00  0.00    -0.263 NA
ATOM     40  C   UNL     1     -21.155  15.245  -8.456  0.00  0.00    +0.111 A 
ENDBRANCH   4   3
ENDBRANCH  10   9
BRANCH  12  13
ATOM     13  N   UNL     1     -11.914  22.498  -8.886  0.00  0.00    -0.281 N 
ATOM     14  C   UNL     1     -10.672  21.960  -8.595  0.00  0.00    +0.248 C 
ATOM     30  O   UNL     1     -10.326  21.578  -7.486  0.00  0.00    -0.270 OA
ATOM     31  H   UNL     1     -12.004  22.954  -9.794  0.00  0.00    +0.155 HD
BRANCH  14  15
ATOM     15  C   UNL     1      -9.661  21.842  -9.690  0.00  0.00    +0.037 A 
ATOM     16  C   UNL     1      -8.692  20.744  -9.714  0.00  0.00    +0.013 A 
ATOM     17  C   UNL     1      -7.717  20.664 -10.773  0.00  0.00    +0.005 A 
ATOM     18  C   UNL     1      -7.708  21.685 -11.818  0.00  0.00    -0.033 A 
ATOM     28  C   UNL     1      -8.685  22.761 -11.772  0.00  0.00    +0.005 A 
ATOM     29  C   UNL     1      -9.641  22.843 -10.735  0.00  0.00    +0.013 A 
BRANCH  18  19
ATOM     19  C   UNL     1      -6.691  21.690 -12.974  0.00  0.00    +0.119 C 
BRANCH  19  20
ATOM     20  N   UNL     1      -7.115  21.061 -14.261  0.00  0.00    -0.302 NA
ATOM     21  C   UNL     1      -6.951  19.539 -14.238  0.00  0.00    +0.066 C 
ATOM     22  C   UNL     1      -7.420  18.896 -15.583  0.00  0.00    -0.064 C 
ATOM     23  N   UNL     1      -6.630  19.508 -16.741  0.00  0.00    +0.379 N 
ATOM     24  C   UNL     1      -7.028  18.864 -18.001  0.00  0.00    -0.096 C 
ATOM     25  H   UNL     1      -5.551  19.282 -16.571  0.00  0.00    -0.082 HD
ATOM     26  C   UNL     1      -6.785  21.022 -16.770  0.00  0.00    -0.064 C 
ATOM     27  C   UNL     1      -6.344  21.649 -15.417  0.00  0.00    +0.066 C 
ENDBRANCH  19  20
ENDBRANCH  18  19
ENDBRANCH  14  15
ENDBRANCH  12  13
TORSDOF 6
ENDMDL
MODEL 2
REMARK VINA RESULT:      -8.2      1.361      1.545
REMARK  Name = C:\Users\Docking\Desktop\test protocol\1iep_ligandH.pdb
REMARK  8 active torsions:
REMARK  status: ('A' for Active; 'I' for Inactive)
REMARK    1  A    between atoms: _5  and  _11
REMARK    2  A    between atoms: _19  and  _21
REMARK    3  A    between atoms: _22  and  _66
REMARK    4  A    between atoms: _27  and  _30
REMARK    5  A    between atoms: _32  and  _33
REMARK    6  A    between atoms: _38  and  _43
REMARK    7  A    between atoms: _43  and  _46
REMARK    8  A    between atoms: _53  and  _55
REMARK                            x       y       z     vdW  Elec       q    Type
REMARK                         _______ _______ _______ _____ _____    ______ ____
ROOT
ATOM     10  C   UNL     1     -15.494  22.673  -8.464  0.00  0.00    +0.038 A 
ATOM     11  C   UNL     1     -14.261  22.391  -9.106  0.00  0.00    +0.047 A 
ATOM     12  C   UNL     1     -13.307  23.449  -9.402  0.00  0.00    +0.035 A 
ATOM     32  C   UNL     1     -13.641  24.783  -9.029  0.00  0.00    +0.024 A 
ATOM     33  C   UNL     1     -14.890  25.088  -8.377  0.00  0.00    +0.007 A 
ATOM     34  C   UNL     1     -15.836  24.049  -8.084  0.00  0.00    -0.029 A 
ATOM     35  C   UNL     1     -17.162  24.435  -7.389  0.00  0.00    +0.045 C 
ENDROOT
BRANCH  10   9
ATOM      4  C   UNL     1     -19.120  19.782  -9.699  0.00  0.00    +0.077 A 
ATOM      5  C   UNL     1     -19.297  20.445 -10.959  0.00  0.00    +0.048 A 
ATOM      6  C   UNL     1     -18.440  21.530 -11.248  0.00  0.00    +0.116 A 
ATOM      7  N   UNL     1     -17.479  21.914 -10.337  0.00  0.00    -0.223 NA
ATOM      8  C   UNL     1     -17.336  21.255  -9.131  0.00  0.00    +0.220 A 
ATOM      9  N   UNL     1     -16.372  21.619  -8.203  0.00  0.00    -0.283 N 
ATOM     36  H   UNL     1     -16.303  21.112  -7.321  0.00  0.00    +0.155 HD
ATOM     37  N   UNL     1     -18.144  20.216  -8.830  0.00  0.00    -0.214 NA
BRANCH   4   3
ATOM      1  C   UNL     1     -20.289  16.158  -8.805  0.00  0.00    +0.020 A 
ATOM      2  C   UNL     1     -19.449  17.247  -9.248  0.00  0.00    +0.013 A 
ATOM      3  C   UNL     1     -19.947  18.617  -9.251  0.00  0.00    +0.019 A 
ATOM     38  C   UNL     1     -21.308  18.853  -8.794  0.00  0.00    +0.120 A 
ATOM     39  N   UNL     1     -22.093  17.784  -8.374  0.00  0.00    -0.263 NA
ATOM     40  C   UNL     1     -21.626  16.461  -8.369  0.00  0.00    +0.111 A 
ENDBRANCH   4   3
ENDBRANCH  10   9
BRANCH  12  13
ATOM     13  N   UNL     1     -12.043  23.224 -10.059  0.00  0.00    -0.281 N 
ATOM     14  C   UNL     1     -10.820  22.935  -9.476  0.00  0.00    +0.248 C 
ATOM     30  O   UNL     1     -10.582  23.039  -8.281  0.00  0.00    -0.270 OA
ATOM     31  H   UNL     1     -12.051  23.284 -11.077  0.00  0.00    +0.155 HD
BRANCH  14  15
ATOM     15  C   UNL     1      -9.694  22.480 -10.347  0.00  0.00    +0.037 A 
ATOM     16  C   UNL     1      -8.890  21.306  -9.999  0.00  0.00    +0.013 A 
ATOM     17  C   UNL     1      -7.799  20.899 -10.848  0.00  0.00    +0.005 A 
ATOM     18  C   UNL     1      -7.506  21.667 -12.056  0.00  0.00    -0.033 A 
ATOM     28  C   UNL     1      -8.323  22.824 -12.380  0.00  0.00    +0.005 A 
ATOM     29  C   UNL     1      -9.393  23.227 -11.550  0.00  0.00    +0.013 A 
BRANCH  18  19
ATOM     19  C   UNL     1      -6.348  21.317 -13.009  0.00  0.00    +0.119 C 
BRANCH  19  20
ATOM     20  N   UNL     1      -6.703  20.969 -14.417  0.00  0.00    -0.302 NA
ATOM     21  C   UNL     1      -7.005  19.477 -14.581  0.00  0.00    +0.066 C 
ATOM     22  C   UNL     1      -7.396  19.134 -16.055  0.00  0.00    -0.064 C 
ATOM     23  N   UNL     1      -6.267  19.564 -16.993  0.00  0.00    +0.379 N 
ATOM     24  C   UNL     1      -6.606  19.190 -18.374  0.00  0.00    -0.096 C 
ATOM     25  H   UNL     1      -5.352  18.995 -16.704  0.00  0.00    -0.082 HD
ATOM     26  C   UNL     1      -5.958  21.046 -16.835  0.00  0.00    -0.064 C 
ATOM     27  C   UNL     1      -5.599  21.381 -15.360  0.00  0.00    +0.066 C 
ENDBRANCH  19  20
ENDBRANCH  18  19
ENDBRANCH  14  15
ENDBRANCH  12  13
TORSDOF 6
ENDMDL
MODEL 3
REMARK VINA RESULT:      -7.9      7.953     15.980
REMARK  Name = C:\Users\Docking\Desktop\test protocol\1iep_ligandH.pdb
REMARK  8 active torsions:
REMARK  status: ('A' for Active; 'I' for Inactive)
REMARK    1  A    between atoms: _5  and  _11
REMARK    2  A    between atoms: _19  and  _21
REMARK    3  A    between atoms: _22  and  _66
REMARK    4  A    between atoms: _27  and  _30
REMARK    5  A    between atoms: _32  and  _33
REMARK    6  A    between atoms: _38  and  _43
REMARK    7  A    between atoms: _43  and  _46
REMARK    8  A    between atoms: _53  and  _55
REMARK                            x       y       z     vdW  Elec       q    Type
REMARK                         _______ _______ _______ _____ _____    ______ ____
ROOT
ATOM     10  C   UNL     1     -20.439  18.144  -8.070  0.00  0.00    +0.038 A 
ATOM     11  C   UNL     1     -21.823  17.832  -8.087  0.00  0.00    +0.047 A 
ATOM     12  C   UNL     1     -22.289  16.467  -7.894  0.00  0.00    +0.035 A 
ATOM     32  C   UNL     1     -21.318  15.445  -7.684  0.00  0.00    +0.024 A 
ATOM     33  C   UNL     1     -19.908  15.744  -7.665  0.00  0.00    +0.007 A 
ATOM     34  C   UNL     1     -19.442  17.088  -7.857  0.00  0.00    -0.029 A 
ATOM     35  C   UNL     1     -17.918  17.350  -7.833  0.00  0.00    +0.045 C 
ENDROOT
BRANCH  10   9
ATOM      4  C   UNL     1     -19.021  21.780 -10.864  0.00  0.00    +0.077 A 
ATOM      5  C   UNL     1     -19.036  20.959 -12.041  0.00  0.00    +0.048 A 
ATOM      6  C   UNL     1     -19.408  19.605 -11.883  0.00  0.00    +0.116 A 
ATOM      7  N   UNL     1     -19.738  19.119 -10.636  0.00  0.00    -0.223 NA
ATOM      8  C   UNL     1     -19.712  19.937  -9.522  0.00  0.00    +0.220 A 
ATOM      9  N   UNL     1     -20.047  19.471  -8.260  0.00  0.00    -0.283 N 
ATOM     36  H   UNL     1     -20.008  20.104  -7.462  0.00  0.00    +0.155 HD
ATOM     37  N   UNL     1     -19.359  21.233  -9.646  0.00  0.00    -0.214 NA
BRANCH   4   3
ATOM      1  C   UNL     1     -18.854  25.585 -11.754  0.00  0.00    +0.020 A 
ATOM      2  C   UNL     1     -19.243  24.194 -11.791  0.00  0.00    +0.013 A 
ATOM      3  C   UNL     1     -18.654  23.231 -10.869  0.00  0.00    +0.019 A 
ATOM     38  C   UNL     1     -17.666  23.711  -9.915  0.00  0.00    +0.120 A 
ATOM     39  N   UNL     1     -17.309  25.056  -9.904  0.00  0.00    -0.263 NA
ATOM     40  C   UNL     1     -17.869  25.992 -10.787  0.00  0.00    +0.111 A 
ENDBRANCH   4   3
ENDBRANCH  10   9
BRANCH  12  13
ATOM     13  N   UNL     1     -23.680  16.089  -7.909  0.00  0.00    -0.281 N 
ATOM     14  C   UNL     1     -24.663  16.421  -6.991  0.00  0.00    +0.248 C 
ATOM     30  O   UNL     1     -24.446  16.919  -5.897  0.00  0.00    -0.270 OA
ATOM     31  H   UNL     1     -23.977  15.506  -8.692  0.00  0.00    +0.155 HD
BRANCH  14  15
ATOM     15  C   UNL     1     -26.092  16.146  -7.332  0.00  0.00    +0.037 A 
ATOM     16  C   UNL     1     -26.525  14.819  -7.778  0.00  0.00    +0.013 A 
ATOM     17  C   UNL     1     -27.906  14.585  -8.117  0.00  0.00    +0.005 A 
ATOM     18  C   UNL     1     -28.866  15.682  -8.009  0.00  0.00    -0.033 A 
ATOM     28  C   UNL     1     -28.410  16.986  -7.558  0.00  0.00    +0.005 A 
ATOM     29  C   UNL     1     -27.057  17.220  -7.226  0.00  0.00    +0.013 A 
BRANCH  18  19
ATOM     19  C   UNL     1     -30.355  15.528  -8.369  0.00  0.00    +0.119 C 
BRANCH  19  20
ATOM     20  N   UNL     1     -30.703  15.450  -9.820  0.00  0.00    -0.302 NA
ATOM     21  C   UNL     1     -31.694  16.542 -10.233  0.00  0.00    +0.066 C 
ATOM     22  C   UNL     1     -32.029  16.459 -11.757  0.00  0.00    -0.064 C 
ATOM     23  N   UNL     1     -32.587  15.071 -12.079  0.00  0.00    +0.379 N 
ATOM     24  C   UNL     1     -32.957  15.009 -13.501  0.00  0.00    -0.096 C 
ATOM     25  H   UNL     1     -33.517  14.934 -11.481  0.00  0.00    -0.082 HD
ATOM     26  C   UNL     1     -31.609  13.980 -11.670  0.00  0.00    -0.064 C 
ATOM     27  C   UNL     1     -31.259  14.089 -10.159  0.00  0.00    +0.066 C 
ENDBRANCH  19  20
ENDBRANCH  18  19
ENDBRANCH  14  15
ENDBRANCH  12  13
TORSDOF 6
ENDMDL
MODEL 4
REMARK VINA RESULT:      -7.9      7.684     16.048
REMARK  Name = C:\Users\Docking\Desktop\test protocol\1iep_ligandH.pdb
REMARK  8 active torsions:
REMARK  status: ('A' for Active; 'I' for Inactive)
REMARK    1  A    between atoms: _5  and  _11
REMARK    2  A    between atoms: _19  and  _21
REMARK    3  A    between atoms: _22  and  _66
REMARK    4  A    between atoms: _27  and  _30
REMARK    5  A    between atoms: _32  and  _33
REMARK    6  A    between atoms: _38  and  _43
REMARK    7  A    between atoms: _43  and  _46
REMARK    8  A    between atoms: _53  and  _55
REMARK                            x       y       z     vdW  Elec       q    Type
REMARK                         _______ _______ _______ _____ _____    ______ ____
ROOT
ATOM     10  C   UNL     1     -20.358  17.828  -8.176  0.00  0.00    +0.038 A 
ATOM     11  C   UNL     1     -21.759  17.618  -8.116  0.00  0.00    +0.047 A 
ATOM     12  C   UNL     1     -22.317  16.277  -8.039  0.00  0.00    +0.035 A 
ATOM     32  C   UNL     1     -21.418  15.171  -8.023  0.00  0.00    +0.024 A 
ATOM     33  C   UNL     1     -19.990  15.366  -8.085  0.00  0.00    +0.007 A 
ATOM     34  C   UNL     1     -19.435  16.687  -8.163  0.00  0.00    -0.029 A 
ATOM     35  C   UNL     1     -17.897  16.836  -8.233  0.00  0.00    +0.045 C 
ENDROOT
BRANCH  10   9
ATOM      4  C   UNL     1     -18.825  21.643 -10.651  0.00  0.00    +0.077 A 
ATOM      5  C   UNL     1     -18.969  20.962 -11.905  0.00  0.00    +0.048 A 
ATOM      6  C   UNL     1     -19.434  19.628 -11.869  0.00  0.00    +0.116 A 
ATOM      7  N   UNL     1     -19.730  19.030 -10.663  0.00  0.00    -0.223 NA
ATOM      8  C   UNL     1     -19.578  19.716  -9.472  0.00  0.00    +0.220 A 
ATOM      9  N   UNL     1     -19.877  19.137  -8.248  0.00  0.00    -0.283 N 
ATOM     36  H   UNL     1     -19.745  19.673  -7.391  0.00  0.00    +0.155 HD
ATOM     37  N   UNL     1     -19.135  20.990  -9.480  0.00  0.00    -0.214 NA
BRANCH   4   3
ATOM      1  C   UNL     1     -18.431  25.506 -11.124  0.00  0.00    +0.020 A 
ATOM      2  C   UNL     1     -18.928  24.159 -11.283  0.00  0.00    +0.013 A 
ATOM      3  C   UNL     1     -18.348  23.057 -10.525  0.00  0.00    +0.019 A 
ATOM     38  C   UNL     1     -17.259  23.355  -9.607  0.00  0.00    +0.120 A 
ATOM     39  N   UNL     1     -16.801  24.662  -9.476  0.00  0.00    -0.263 NA
ATOM     40  C   UNL     1     -17.349  25.730 -10.201  0.00  0.00    +0.111 A 
ENDBRANCH   4   3
ENDBRANCH  10   9
BRANCH  12  13
ATOM     13  N   UNL     1     -23.732  16.002  -7.984  0.00  0.00    -0.281 N 
ATOM     14  C   UNL     1     -24.641  16.406  -7.020  0.00  0.00    +0.248 C 
ATOM     30  O   UNL     1     -24.334  16.889  -5.940  0.00  0.00    -0.270 OA
ATOM     31  H   UNL     1     -24.108  15.442  -8.749  0.00  0.00    +0.155 HD
BRANCH  14  15
ATOM     15  C   UNL     1     -26.101  16.237  -7.289  0.00  0.00    +0.037 A 
ATOM     16  C   UNL     1     -26.634  14.982  -7.826  0.00  0.00    +0.013 A 
ATOM     17  C   UNL     1     -28.045  14.851  -8.092  0.00  0.00    +0.005 A 
ATOM     18  C   UNL     1     -28.933  15.978  -7.819  0.00  0.00    -0.033 A 
ATOM     28  C   UNL     1     -28.378  17.209  -7.281  0.00  0.00    +0.005 A 
ATOM     29  C   UNL     1     -26.996  17.342  -7.020  0.00  0.00    +0.013 A 
BRANCH  18  19
ATOM     19  C   UNL     1     -30.448  15.935  -8.092  0.00  0.00    +0.119 C 
BRANCH  19  20
ATOM     20  N   UNL     1     -30.945  16.651  -9.305  0.00  0.00    -0.302 NA
ATOM     21  C   UNL     1     -32.132  17.566  -8.985  0.00  0.00    +0.066 C 
ATOM     22  C   UNL     1     -32.625  18.325 -10.260  0.00  0.00    -0.064 C 
ATOM     23  N   UNL     1     -32.999  17.310 -11.342  0.00  0.00    +0.379 N 
ATOM     24  C   UNL     1     -33.518  18.018 -12.521  0.00  0.00    -0.096 C 
ATOM     25  H   UNL     1     -33.822  16.675 -10.939  0.00  0.00    -0.082 HD
ATOM     26  C   UNL     1     -31.826  16.394 -11.663  0.00  0.00    -0.064 C 
ATOM     27  C   UNL     1     -31.325  15.668 -10.384  0.00  0.00    +0.066 C 
ENDBRANCH  19  20
ENDBRANCH  18  19
ENDBRANCH  14  15
ENDBRANCH  12  13
TORSDOF 6
ENDMDL
MODEL 5
REMARK VINA RESULT:      -7.7     21.488     24.017
REMARK  Name = C:\Users\Docking\Desktop\test protocol\1iep_ligandH.pdb
REMARK  8 active torsions:
REMARK  status: ('A' for Active; 'I' for Inactive)
REMARK    1  A    between atoms: _5  and  _11
REMARK    2  A    between atoms: _19  and  _21
REMARK    3  A    between atoms: _22  and  _66
REMARK    4  A    between atoms: _27  and  _30
REMARK    5  A    between atoms: _32  and  _33
REMARK    6  A    between atoms: _38  and  _43
REMARK    7  A    between atoms: _43  and  _46
REMARK    8  A    between atoms: _53  and  _55
REMARK                            x       y       z     vdW  Elec       q    Type
REMARK                         _______ _______ _______ _____ _____    ______ ____
ROOT
ATOM     10  C   UNL     1     -24.220   1.883 -24.010  0.00  0.00    +0.038 A 
ATOM     11  C   UNL     1     -22.890   2.275 -23.715  0.00  0.00    +0.047 A 
ATOM     12  C   UNL     1     -21.758   1.442 -24.092  0.00  0.00    +0.035 A 
ATOM     32  C   UNL     1     -22.019   0.217 -24.771  0.00  0.00    +0.024 A 
ATOM     33  C   UNL     1     -23.365  -0.198 -25.078  0.00  0.00    +0.007 A 
ATOM     34  C   UNL     1     -24.485   0.618 -24.707  0.00  0.00    -0.029 A 
ATOM     35  C   UNL     1     -25.907   0.121 -25.056  0.00  0.00    +0.045 C 
ENDROOT
BRANCH  10   9
ATOM      4  C   UNL     1     -27.557   3.319 -20.873  0.00  0.00    +0.077 A 
ATOM      5  C   UNL     1     -27.199   2.296 -19.934  0.00  0.00    +0.048 A 
ATOM      6  C   UNL     1     -26.156   1.416 -20.299  0.00  0.00    +0.116 A 
ATOM      7  N   UNL     1     -25.524   1.559 -21.515  0.00  0.00    -0.223 NA
ATOM      8  C   UNL     1     -25.895   2.555 -22.399  0.00  0.00    +0.220 A 
ATOM      9  N   UNL     1     -25.269   2.721 -23.625  0.00  0.00    -0.283 N 
ATOM     36  H   UNL     1     -25.577   3.464 -24.252  0.00  0.00    +0.155 HD
ATOM     37  N   UNL     1     -26.890   3.407 -22.075  0.00  0.00    -0.214 NA
BRANCH   4   3
ATOM      1  C   UNL     1     -31.054   5.051 -20.597  0.00  0.00    +0.020 A 
ATOM      2  C   UNL     1     -30.050   4.042 -20.847  0.00  0.00    +0.013 A 
ATOM      3  C   UNL     1     -28.637   4.328 -20.631  0.00  0.00    +0.019 A 
ATOM     38  C   UNL     1     -28.270   5.654 -20.158  0.00  0.00    +0.120 A 
ATOM     39  N   UNL     1     -29.259   6.606 -19.927  0.00  0.00    -0.263 NA
ATOM     40  C   UNL     1     -30.621   6.343 -20.133  0.00  0.00    +0.111 A 
ENDBRANCH   4   3
ENDBRANCH  10   9
BRANCH  12  13
ATOM     13  N   UNL     1     -20.386   1.785 -23.812  0.00  0.00    -0.281 N 
ATOM     14  C   UNL     1     -19.353   0.936 -23.452  0.00  0.00    +0.248 C 
ATOM     30  O   UNL     1     -19.502  -0.227 -23.106  0.00  0.00    -0.270 OA
ATOM     31  H   UNL     1     -20.148   2.774 -23.888  0.00  0.00    +0.155 HD
BRANCH  14  15
ATOM     15  C   UNL     1     -17.952   1.457 -23.463  0.00  0.00    +0.037 A 
ATOM     16  C   UNL     1     -17.613   2.738 -22.838  0.00  0.00    +0.013 A 
ATOM     17  C   UNL     1     -16.257   3.226 -22.878  0.00  0.00    +0.005 A 
ATOM     18  C   UNL     1     -15.229   2.431 -23.546  0.00  0.00    -0.033 A 
ATOM     28  C   UNL     1     -15.592   1.161 -24.153  0.00  0.00    +0.005 A 
ATOM     29  C   UNL     1     -16.920   0.680 -24.116  0.00  0.00    +0.013 A 
BRANCH  18  19
ATOM     19  C   UNL     1     -13.761   2.884 -23.655  0.00  0.00    +0.119 C 
BRANCH  19  20
ATOM     20  N   UNL     1     -12.786   2.277 -22.701  0.00  0.00    -0.302 NA
ATOM     21  C   UNL     1     -11.746   3.293 -22.219  0.00  0.00    +0.066 C 
ATOM     22  C   UNL     1     -10.747   2.647 -21.204  0.00  0.00    -0.064 C 
ATOM     23  N   UNL     1     -10.066   1.445 -21.860  0.00  0.00    +0.379 N 
ATOM     24  C   UNL     1      -9.083   0.870 -20.929  0.00  0.00    -0.096 C 
ATOM     25  H   UNL     1      -9.510   1.816 -22.752  0.00  0.00    -0.082 HD
ATOM     26  C   UNL     1     -11.092   0.431 -22.345  0.00  0.00    -0.064 C 
ATOM     27  C   UNL     1     -12.098   1.090 -23.329  0.00  0.00    +0.066 C 
ENDBRANCH  19  20
ENDBRANCH  18  19
ENDBRANCH  14  15
ENDBRANCH  12  13
TORSDOF 6
ENDMDL
