MODEL 1
REMARK VINA RESULT:      -8.8      0.000      0.000
REMARK  Name = C:\Users\Docking\Desktop\test protocol\1iep_ligandH.pdb
REMARK  8 active torsions:
REMARK  status: ('A' for Active; 'I' for Inactive)
REMARK    1  A    between atoms: _5  and  _11
REMARK    2  A    between atoms: _19  and  _21
REMARK    3  A    between atoms: _22  and  _66
REMARK    4  A    between atoms: _27  and  _30
REMARK    5  A    between atoms: _32  and  _33
REMARK    6  A    between atoms: _38  and  _43
REMARK    7  A    between atoms: _43  and  _46
REMARK    8  A    between atoms: _53  and  _55
REMARK                            x       y       z     vdW  Elec       q    Type
REMARK                         _______ _______ _______ _____ _____    ______ ____
ROOT
ATOM     10  C   UNL     1     -26.493 -19.269 -25.767  0.00  0.00    +0.038 A 
ATOM     11  C   UNL     1     -27.861 -18.909 -25.665  0.00  0.00    +0.047 A 
ATOM     12  C   UNL     1     -28.763 -19.051 -26.798  0.00  0.00    +0.035 A 
ATOM     32  C   UNL     1     -28.238 -19.566 -28.019  0.00  0.00    +0.024 A 
ATOM     33  C   UNL     1     -26.850 -19.936 -28.140  0.00  0.00    +0.007 A 
ATOM     34  C   UNL     1     -25.955 -19.796 -27.027  0.00  0.00    -0.029 A 
ATOM     35  C   UNL     1     -24.475 -20.202 -27.216  0.00  0.00    +0.045 C 
ENDROOT
BRANCH  10   9
ATOM      4  C   UNL     1     -24.553 -20.877 -21.681  0.00  0.00    +0.077 A 
ATOM      5  C   UNL     1     -25.256 -22.125 -21.770  0.00  0.00    +0.048 A 
ATOM      6  C   UNL     1     -26.112 -22.310 -22.879  0.00  0.00    +0.116 A 
ATOM      7  N   UNL     1     -26.247 -21.316 -23.822  0.00  0.00    -0.223 NA
ATOM      8  C   UNL     1     -25.557 -20.123 -23.706  0.00  0.00    +0.220 A 
ATOM      9  N   UNL     1     -25.672 -19.112 -24.648  0.00  0.00    -0.283 N 
ATOM     36  H   UNL     1     -25.151 -18.244 -24.522  0.00  0.00    +0.155 HD
ATOM     37  N   UNL     1     -24.734 -19.921 -22.656  0.00  0.00    -0.214 NA
BRANCH   4   3
ATOM      1  C   UNL     1     -21.675 -19.236 -19.602  0.00  0.00    +0.020 A 
ATOM      2  C   UNL     1     -22.560 -19.531 -20.706  0.00  0.00    +0.013 A 
ATOM      3  C   UNL     1     -23.610 -20.533 -20.571  0.00  0.00    +0.019 A 
ATOM     38  C   UNL     1     -23.740 -21.222 -19.296  0.00  0.00    +0.120 A 
ATOM     39  N   UNL     1     -22.873 -20.918 -18.252  0.00  0.00    -0.263 NA
ATOM     40  C   UNL     1     -21.857 -19.957 -18.370  0.00  0.00    +0.111 A 
ENDBRANCH   4   3
ENDBRANCH  10   9
BRANCH  12  13
ATOM     13  N   UNL     1     -30.159 -18.694 -26.756  0.00  0.00    -0.281 N 
ATOM     14  C   UNL     1     -30.714 -17.425 -26.757  0.00  0.00    +0.248 C 
ATOM     30  O   UNL     1     -30.083 -16.394 -26.578  0.00  0.00    -0.270 OA
ATOM     31  H   UNL     1     -30.818 -19.471 -26.721  0.00  0.00    +0.155 HD
BRANCH  14  15
ATOM     15  C   UNL     1     -32.186 -17.280 -26.975  0.00  0.00    +0.037 A 
ATOM     16  C   UNL     1     -33.038 -18.450 -27.204  0.00  0.00    +0.013 A 
ATOM     17  C   UNL     1     -34.452 -18.281 -27.428  0.00  0.00    +0.005 A 
ATOM     18  C   UNL     1     -35.023 -16.936 -27.422  0.00  0.00    -0.033 A 
ATOM     28  C   UNL     1     -34.155 -15.794 -27.187  0.00  0.00    +0.005 A 
ATOM     29  C   UNL     1     -32.769 -15.956 -26.968  0.00  0.00    +0.013 A 
BRANCH  18  19
ATOM     19  C   UNL     1     -36.517 -16.661 -27.673  0.00  0.00    +0.119 C 
BRANCH  19  20
ATOM     20  N   UNL     1     -37.153 -17.346 -28.838  0.00  0.00    -0.302 NA
ATOM     21  C   UNL     1     -36.973 -16.556 -30.137  0.00  0.00    +0.066 C 
ATOM     22  C   UNL     1     -37.624 -17.298 -31.350  0.00  0.00    -0.064 C 
ATOM     23  N   UNL     1     -39.107 -17.536 -31.062  0.00  0.00    +0.379 N 
ATOM     24  C   UNL     1     -39.735 -18.181 -32.223  0.00  0.00    -0.096 C 
ATOM     25  H   UNL     1     -39.589 -16.540 -30.926  0.00  0.00    -0.082 HD
ATOM     26  C   UNL     1     -39.295 -18.319 -29.770  0.00  0.00    -0.064 C 
ATOM     27  C   UNL     1     -38.619 -17.587 -28.577  0.00  0.00    +0.066 C 
ENDBRANCH  19  20
ENDBRANCH  18  19
ENDBRANCH  14  15
ENDBRANCH  12  13
TORSDOF 6
ENDMDL
MODEL 2
REMARK VINA RESULT:      -8.6      3.745      6.370
REMARK  Name = C:\Users\Docking\Desktop\test protocol\1iep_ligandH.pdb
REMARK  8 active torsions:
REMARK  status: ('A' for Active; 'I' for Inactive)
REMARK    1  A    between atoms: _5  and  _11
REMARK    2  A    between atoms: _19  and  _21
REMARK    3  A    between atoms: _22  and  _66
REMARK    4  A    between atoms: _27  and  _30
REMARK    5  A    between atoms: _32  and  _33
REMARK    6  A    between atoms: _38  and  _43
REMARK    7  A    between atoms: _43  and  _46
REMARK    8  A    between atoms: _53  and  _55
REMARK                            x       y       z     vdW  Elec       q    Type
REMARK                         _______ _______ _______ _____ _____    ______ ____
ROOT
ATOM     10  C   UNL     1     -25.195 -19.796 -27.123  0.00  0.00    +0.038 A 
ATOM     11  C   UNL     1     -26.478 -19.297 -27.464  0.00  0.00    +0.047 A 
ATOM     12  C   UNL     1     -27.374 -18.769 -26.447  0.00  0.00    +0.035 A 
ATOM     32  C   UNL     1     -26.930 -18.763 -25.092  0.00  0.00    +0.024 A 
ATOM     33  C   UNL     1     -25.630 -19.267 -24.728  0.00  0.00    +0.007 A 
ATOM     34  C   UNL     1     -24.742 -19.791 -25.727  0.00  0.00    -0.029 A 
ATOM     35  C   UNL     1     -23.362 -20.325 -25.278  0.00  0.00    +0.045 C 
ENDROOT
BRANCH  10   9
ATOM      4  C   UNL     1     -23.762 -23.296 -30.079  0.00  0.00    +0.077 A 
ATOM      5  C   UNL     1     -24.709 -24.225 -29.533  0.00  0.00    +0.048 A 
ATOM      6  C   UNL     1     -25.541 -23.765 -28.488  0.00  0.00    +0.116 A 
ATOM      7  N   UNL     1     -25.427 -22.470 -28.031  0.00  0.00    -0.223 NA
ATOM      8  C   UNL     1     -24.502 -21.600 -28.578  0.00  0.00    +0.220 A 
ATOM      9  N   UNL     1     -24.375 -20.291 -28.140  0.00  0.00    -0.283 N 
ATOM     36  H   UNL     1     -23.675 -19.682 -28.564  0.00  0.00    +0.155 HD
ATOM     37  N   UNL     1     -23.694 -22.015 -29.576  0.00  0.00    -0.214 NA
BRANCH   4   3
ATOM      1  C   UNL     1     -21.328 -25.230 -32.453  0.00  0.00    +0.020 A 
ATOM      2  C   UNL     1     -22.237 -24.958 -31.363  0.00  0.00    +0.013 A 
ATOM      3  C   UNL     1     -22.816 -23.631 -31.189  0.00  0.00    +0.019 A 
ATOM     38  C   UNL     1     -22.452 -22.595 -32.143  0.00  0.00    +0.120 A 
ATOM     39  N   UNL     1     -21.573 -22.885 -33.182  0.00  0.00    -0.263 NA
ATOM     40  C   UNL     1     -21.008 -24.158 -33.358  0.00  0.00    +0.111 A 
ENDBRANCH   4   3
ENDBRANCH  10   9
BRANCH  12  13
ATOM     13  N   UNL     1     -28.691 -18.256 -26.732  0.00  0.00    -0.281 N 
ATOM     14  C   UNL     1     -29.781 -18.944 -27.240  0.00  0.00    +0.248 C 
ATOM     30  O   UNL     1     -29.726 -20.062 -27.729  0.00  0.00    -0.270 OA
ATOM     31  H   UNL     1     -28.838 -17.266 -26.536  0.00  0.00    +0.155 HD
BRANCH  14  15
ATOM     15  C   UNL     1     -31.124 -18.288 -27.213  0.00  0.00    +0.037 A 
ATOM     16  C   UNL     1     -32.352 -19.062 -27.415  0.00  0.00    +0.013 A 
ATOM     17  C   UNL     1     -33.633 -18.403 -27.402  0.00  0.00    +0.005 A 
ATOM     18  C   UNL     1     -33.694 -16.959 -27.184  0.00  0.00    -0.033 A 
ATOM     28  C   UNL     1     -32.461 -16.217 -26.981  0.00  0.00    +0.005 A 
ATOM     29  C   UNL     1     -31.203 -16.860 -26.995  0.00  0.00    +0.013 A 
BRANCH  18  19
ATOM     19  C   UNL     1     -35.016 -16.170 -27.175  0.00  0.00    +0.119 C 
BRANCH  19  20
ATOM     20  N   UNL     1     -36.157 -16.738 -27.953  0.00  0.00    -0.302 NA
ATOM     21  C   UNL     1     -36.232 -16.159 -29.369  0.00  0.00    +0.066 C 
ATOM     22  C   UNL     1     -37.418 -16.780 -30.176  0.00  0.00    -0.064 C 
ATOM     23  N   UNL     1     -38.726 -16.539 -29.422  0.00  0.00    +0.379 N 
ATOM     24  C   UNL     1     -39.850 -17.071 -30.207  0.00  0.00    -0.096 C 
ATOM     25  H   UNL     1     -38.867 -15.436 -29.335  0.00  0.00    -0.082 HD
ATOM     26  C   UNL     1     -38.660 -17.109 -28.013  0.00  0.00    -0.064 C 
ATOM     27  C   UNL     1     -37.460 -16.506 -27.229  0.00  0.00    +0.066 C 
ENDBRANCH  19  20
ENDBRANCH  18  19
ENDBRANCH  14  15
ENDBRANCH  12  13
TORSDOF 6
ENDMDL
MODEL 3
REMARK VINA RESULT:      -8.5     26.668     31.927
REMARK  Name = C:\Users\Docking\Desktop\test protocol\1iep_ligandH.pdb
REMARK  8 active torsions:
REMARK  status: ('A' for Active; 'I' for Inactive)
REMARK    1  A    between atoms: _5  and  _11
REMARK    2  A    between atoms: _19  and  _21
REMARK    3  A    between atoms: _22  and  _66
REMARK    4  A    between atoms: _27  and  _30
REMARK    5  A    between atoms: _32  and  _33
REMARK    6  A    between atoms: _38  and  _43
REMARK    7  A    between atoms: _43  and  _46
REMARK    8  A    between atoms: _53  and  _55
REMARK                            x       y       z     vdW  Elec       q    Type
REMARK                         _______ _______ _______ _____ _____    ______ ____
ROOT
ATOM     10  C   UNL     1     -34.659 -33.948 -48.357  0.00  0.00    +0.038 A 
ATOM     11  C   UNL     1     -34.392 -33.951 -49.750  0.00  0.00    +0.047 A 
ATOM     12  C   UNL     1     -33.336 -33.125 -50.316  0.00  0.00    +0.035 A 
ATOM     32  C   UNL     1     -32.570 -32.309 -49.433  0.00  0.00    +0.024 A 
ATOM     33  C   UNL     1     -32.829 -32.292 -48.014  0.00  0.00    +0.007 A 
ATOM     34  C   UNL     1     -33.870 -33.103 -47.451  0.00  0.00    -0.029 A 
ATOM     35  C   UNL     1     -34.108 -33.041 -45.924  0.00  0.00    +0.045 C 
ENDROOT
BRANCH  10   9
ATOM      4  C   UNL     1     -39.229 -34.700 -47.099  0.00  0.00    +0.077 A 
ATOM      5  C   UNL     1     -39.601 -33.352 -47.418  0.00  0.00    +0.048 A 
ATOM      6  C   UNL     1     -38.585 -32.494 -47.897  0.00  0.00    +0.116 A 
ATOM      7  N   UNL     1     -37.296 -32.962 -48.041  0.00  0.00    -0.223 NA
ATOM      8  C   UNL     1     -36.971 -34.267 -47.723  0.00  0.00    +0.220 A 
ATOM      9  N   UNL     1     -35.684 -34.760 -47.868  0.00  0.00    -0.283 N 
ATOM     36  H   UNL     1     -35.483 -35.728 -47.615  0.00  0.00    +0.155 HD
ATOM     37  N   UNL     1     -37.923 -35.105 -47.263  0.00  0.00    -0.214 NA
BRANCH   4   3
ATOM      1  C   UNL     1     -42.385 -36.413 -45.548  0.00  0.00    +0.020 A 
ATOM      2  C   UNL     1     -41.494 -35.383 -46.030  0.00  0.00    +0.013 A 
ATOM      3  C   UNL     1     -40.191 -35.726 -46.586  0.00  0.00    +0.019 A 
ATOM     38  C   UNL     1     -39.818 -37.132 -46.642  0.00  0.00    +0.120 A 
ATOM     39  N   UNL     1     -40.697 -38.102 -46.170  0.00  0.00    -0.263 NA
ATOM     40  C   UNL     1     -41.952 -37.783 -45.631  0.00  0.00    +0.111 A 
ENDBRANCH   4   3
ENDBRANCH  10   9
BRANCH  12  13
ATOM     13  N   UNL     1     -33.025 -33.080 -51.723  0.00  0.00    -0.281 N 
ATOM     14  C   UNL     1     -33.146 -32.006 -52.588  0.00  0.00    +0.248 C 
ATOM     30  O   UNL     1     -33.746 -30.973 -52.329  0.00  0.00    -0.270 OA
ATOM     31  H   UNL     1     -32.672 -33.946 -52.130  0.00  0.00    +0.155 HD
BRANCH  14  15
ATOM     15  C   UNL     1     -32.523 -32.097 -53.944  0.00  0.00    +0.037 A 
ATOM     16  C   UNL     1     -31.321 -32.902 -54.175  0.00  0.00    +0.013 A 
ATOM     17  C   UNL     1     -30.730 -32.959 -55.489  0.00  0.00    +0.005 A 
ATOM     18  C   UNL     1     -31.343 -32.208 -56.583  0.00  0.00    -0.033 A 
ATOM     28  C   UNL     1     -32.538 -31.421 -56.326  0.00  0.00    +0.005 A 
ATOM     29  C   UNL     1     -33.119 -31.363 -55.040  0.00  0.00    +0.013 A 
BRANCH  18  19
ATOM     19  C   UNL     1     -30.768 -32.194 -58.012  0.00  0.00    +0.119 C 
BRANCH  19  20
ATOM     20  N   UNL     1     -29.486 -32.924 -58.240  0.00  0.00    -0.302 NA
ATOM     21  C   UNL     1     -28.266 -32.018 -58.045  0.00  0.00    +0.066 C 
ATOM     22  C   UNL     1     -26.933 -32.804 -58.266  0.00  0.00    -0.064 C 
ATOM     23  N   UNL     1     -26.932 -33.418 -59.667  0.00  0.00    +0.379 N 
ATOM     24  C   UNL     1     -25.655 -34.109 -59.900  0.00  0.00    -0.096 C 
ATOM     25  H   UNL     1     -27.005 -32.583 -60.402  0.00  0.00    -0.082 HD
ATOM     26  C   UNL     1     -28.143 -34.318 -59.871  0.00  0.00    -0.064 C 
ATOM     27  C   UNL     1     -29.462 -33.535 -59.620  0.00  0.00    +0.066 C 
ENDBRANCH  19  20
ENDBRANCH  18  19
ENDBRANCH  14  15
ENDBRANCH  12  13
TORSDOF 6
ENDMDL
MODEL 4
REMARK VINA RESULT:      -8.5     27.786     31.619
REMARK  Name = C:\Users\Docking\Desktop\test protocol\1iep_ligandH.pdb
REMARK  8 active torsions:
REMARK  status: ('A' for Active; 'I' for Inactive)
REMARK    1  A    between atoms: _5  and  _11
REMARK    2  A    between atoms: _19  and  _21
REMARK    3  A    between atoms: _22  and  _66
REMARK    4  A    between atoms: _27  and  _30
REMARK    5  A    between atoms: _32  and  _33
REMARK    6  A    between atoms: _38  and  _43
REMARK    7  A    between atoms: _43  and  _46
REMARK    8  A    between atoms: _53  and  _55
REMARK                            x       y       z     vdW  Elec       q    Type
REMARK                         _______ _______ _______ _____ _____    ______ ____
ROOT
ATOM     10  C   UNL     1     -34.778 -35.472 -47.449  0.00  0.00    +0.038 A 
ATOM     11  C   UNL     1     -34.709 -34.905 -48.747  0.00  0.00    +0.047 A 
ATOM     12  C   UNL     1     -33.466 -34.906 -49.504  0.00  0.00    +0.035 A 
ATOM     32  C   UNL     1     -32.313 -35.495 -48.908  0.00  0.00    +0.024 A 
ATOM     33  C   UNL     1     -32.365 -36.075 -47.589  0.00  0.00    +0.007 A 
ATOM     34  C   UNL     1     -33.587 -36.074 -46.837  0.00  0.00    -0.029 A 
ATOM     35  C   UNL     1     -33.583 -36.704 -45.424  0.00  0.00    +0.045 C 
ENDROOT
BRANCH  10   9
ATOM      4  C   UNL     1     -39.126 -37.257 -46.478  0.00  0.00    +0.077 A 
ATOM      5  C   UNL     1     -38.967 -38.320 -47.428  0.00  0.00    +0.048 A 
ATOM      6  C   UNL     1     -37.754 -38.367 -48.151  0.00  0.00    +0.116 A 
ATOM      7  N   UNL     1     -36.780 -37.418 -47.932  0.00  0.00    -0.223 NA
ATOM      8  C   UNL     1     -36.966 -36.405 -47.010  0.00  0.00    +0.220 A 
ATOM      9  N   UNL     1     -35.997 -35.444 -46.768  0.00  0.00    -0.283 N 
ATOM     36  H   UNL     1     -36.175 -34.708 -46.084  0.00  0.00    +0.155 HD
ATOM     37  N   UNL     1     -38.116 -36.336 -46.308  0.00  0.00    -0.214 NA
BRANCH   4   3
ATOM      1  C   UNL     1     -42.662 -36.155 -45.220  0.00  0.00    +0.020 A 
ATOM      2  C   UNL     1     -41.505 -36.300 -46.073  0.00  0.00    +0.013 A 
ATOM      3  C   UNL     1     -40.350 -37.074 -45.635  0.00  0.00    +0.019 A 
ATOM     38  C   UNL     1     -40.398 -37.693 -44.319  0.00  0.00    +0.120 A 
ATOM     39  N   UNL     1     -41.525 -37.534 -43.519  0.00  0.00    -0.263 NA
ATOM     40  C   UNL     1     -42.642 -36.791 -43.929  0.00  0.00    +0.111 A 
ENDBRANCH   4   3
ENDBRANCH  10   9
BRANCH  12  13
ATOM     13  N   UNL     1     -33.334 -34.339 -50.823  0.00  0.00    -0.281 N 
ATOM     14  C   UNL     1     -33.189 -33.004 -51.165  0.00  0.00    +0.248 C 
ATOM     30  O   UNL     1     -33.365 -32.071 -50.397  0.00  0.00    -0.270 OA
ATOM     31  H   UNL     1     -33.349 -35.001 -51.598  0.00  0.00    +0.155 HD
BRANCH  14  15
ATOM     15  C   UNL     1     -32.806 -32.656 -52.567  0.00  0.00    +0.037 A 
ATOM     16  C   UNL     1     -33.428 -31.530 -53.268  0.00  0.00    +0.013 A 
ATOM     17  C   UNL     1     -33.053 -31.226 -54.626  0.00  0.00    +0.005 A 
ATOM     18  C   UNL     1     -32.047 -32.051 -55.292  0.00  0.00    -0.033 A 
ATOM     28  C   UNL     1     -31.442 -33.158 -54.572  0.00  0.00    +0.005 A 
ATOM     29  C   UNL     1     -31.808 -33.460 -53.241  0.00  0.00    +0.013 A 
BRANCH  18  19
ATOM     19  C   UNL     1     -31.601 -31.812 -56.747  0.00  0.00    +0.119 C 
BRANCH  19  20
ATOM     20  N   UNL     1     -30.378 -32.531 -57.213  0.00  0.00    -0.302 NA
ATOM     21  C   UNL     1     -29.132 -31.643 -57.154  0.00  0.00    +0.066 C 
ATOM     22  C   UNL     1     -27.858 -32.417 -57.624  0.00  0.00    -0.064 C 
ATOM     23  N   UNL     1     -28.079 -32.946 -59.042  0.00  0.00    +0.379 N 
ATOM     24  C   UNL     1     -26.862 -33.625 -59.509  0.00  0.00    -0.096 C 
ATOM     25  H   UNL     1     -28.253 -32.067 -59.707  0.00  0.00    -0.082 HD
ATOM     26  C   UNL     1     -29.318 -33.828 -59.111  0.00  0.00    -0.064 C 
ATOM     27  C   UNL     1     -30.573 -33.058 -58.614  0.00  0.00    +0.066 C 
ENDBRANCH  19  20
ENDBRANCH  18  19
ENDBRANCH  14  15
ENDBRANCH  12  13
TORSDOF 6
ENDMDL
MODEL 5
REMARK VINA RESULT:      -8.4     18.231     24.722
REMARK  Name = C:\Users\Docking\Desktop\test protocol\1iep_ligandH.pdb
REMARK  8 active torsions:
REMARK  status: ('A' for Active; 'I' for Inactive)
REMARK    1  A    between atoms: _5  and  _11
REMARK    2  A    between atoms: _19  and  _21
REMARK    3  A    between atoms: _22  and  _66
REMARK    4  A    between atoms: _27  and  _30
REMARK    5  A    between atoms: _32  and  _33
REMARK    6  A    between atoms: _38  and  _43
REMARK    7  A    between atoms: _43  and  _46
REMARK    8  A    between atoms: _53  and  _55
REMARK                            x       y       z     vdW  Elec       q    Type
REMARK                         _______ _______ _______ _____ _____    ______ ____
ROOT
ATOM     10  C   UNL     1     -43.767 -36.216 -38.291  0.00  0.00    +0.038 A 
ATOM     11  C   UNL     1     -43.570 -34.818 -38.427  0.00  0.00    +0.047 A 
ATOM     12  C   UNL     1     -44.683 -33.887 -38.326  0.00  0.00    +0.035 A 
ATOM     32  C   UNL     1     -45.985 -34.415 -38.083  0.00  0.00    +0.024 A 
ATOM     33  C   UNL     1     -46.203 -35.834 -37.943  0.00  0.00    +0.007 A 
ATOM     34  C   UNL     1     -45.109 -36.756 -38.045  0.00  0.00    -0.029 A 
ATOM     35  C   UNL     1     -45.403 -38.267 -37.893  0.00  0.00    +0.045 C 
ENDROOT
BRANCH  10   9
ATOM      4  C   UNL     1     -40.544 -38.666 -40.869  0.00  0.00    +0.077 A 
ATOM      5  C   UNL     1     -41.127 -38.244 -42.109  0.00  0.00    +0.048 A 
ATOM      6  C   UNL     1     -42.260 -37.402 -42.041  0.00  0.00    +0.116 A 
ATOM      7  N   UNL     1     -42.763 -37.018 -40.817  0.00  0.00    -0.223 NA
ATOM      8  C   UNL     1     -42.177 -37.444 -39.639  0.00  0.00    +0.220 A 
ATOM      9  N   UNL     1     -42.662 -37.063 -38.397  0.00  0.00    -0.283 N 
ATOM     36  H   UNL     1     -42.206 -37.405 -37.551  0.00  0.00    +0.155 HD
ATOM     37  N   UNL     1     -41.096 -38.250 -39.678  0.00  0.00    -0.214 NA
BRANCH   4   3
ATOM      1  C   UNL     1     -37.389 -40.786 -41.793  0.00  0.00    +0.020 A 
ATOM      2  C   UNL     1     -38.541 -39.925 -41.936  0.00  0.00    +0.013 A 
ATOM      3  C   UNL     1     -39.342 -39.554 -40.777  0.00  0.00    +0.019 A 
ATOM     38  C   UNL     1     -38.947 -40.073 -39.476  0.00  0.00    +0.120 A 
ATOM     39  N   UNL     1     -37.833 -40.901 -39.369  0.00  0.00    -0.263 NA
ATOM     40  C   UNL     1     -37.056 -41.267 -40.478  0.00  0.00    +0.111 A 
ENDBRANCH   4   3
ENDBRANCH  10   9
BRANCH  12  13
ATOM     13  N   UNL     1     -44.545 -32.459 -38.464  0.00  0.00    -0.281 N 
ATOM     14  C   UNL     1     -43.963 -31.570 -37.575  0.00  0.00    +0.248 C 
ATOM     30  O   UNL     1     -43.661 -31.843 -36.423  0.00  0.00    -0.270 OA
ATOM     31  H   UNL     1     -44.923 -32.053 -39.320  0.00  0.00    +0.155 HD
BRANCH  14  15
ATOM     15  C   UNL     1     -43.690 -30.172 -38.027  0.00  0.00    +0.037 A 
ATOM     16  C   UNL     1     -43.989 -29.743 -39.395  0.00  0.00    +0.013 A 
ATOM     17  C   UNL     1     -43.700 -28.393 -39.810  0.00  0.00    +0.005 A 
ATOM     18  C   UNL     1     -43.109 -27.461 -38.853  0.00  0.00    -0.033 A 
ATOM     28  C   UNL     1     -42.827 -27.911 -37.500  0.00  0.00    +0.005 A 
ATOM     29  C   UNL     1     -43.108 -29.234 -37.090  0.00  0.00    +0.013 A 
BRANCH  18  19
ATOM     19  C   UNL     1     -42.748 -26.008 -39.215  0.00  0.00    +0.119 C 
BRANCH  19  20
ATOM     20  N   UNL     1     -41.376 -25.536 -38.861  0.00  0.00    -0.302 NA
ATOM     21  C   UNL     1     -41.301 -24.010 -38.764  0.00  0.00    +0.066 C 
ATOM     22  C   UNL     1     -39.864 -23.535 -38.371  0.00  0.00    -0.064 C 
ATOM     23  N   UNL     1     -38.857 -24.063 -39.395  0.00  0.00    +0.379 N 
ATOM     24  C   UNL     1     -37.513 -23.570 -39.061  0.00  0.00    -0.096 C 
ATOM     25  H   UNL     1     -39.134 -23.643 -40.389  0.00  0.00    -0.082 HD
ATOM     26  C   UNL     1     -38.927 -25.580 -39.499  0.00  0.00    -0.064 C 
ATOM     27  C   UNL     1     -40.366 -26.043 -39.861  0.00  0.00    +0.066 C 
ENDBRANCH  19  20
ENDBRANCH  18  19
ENDBRANCH  14  15
ENDBRANCH  12  13
TORSDOF 6
ENDMDL
