MODEL 1
REMARK VINA RESULT:      -8.8      0.000      0.000
REMARK  Name = C:\Users\Docking\Desktop\test protocol\1iep_ligandH.pdb
REMARK  8 active torsions:
REMARK  status: ('A' for Active; 'I' for Inactive)
REMARK    1  A    between atoms: _5  and  _11
REMARK    2  A    between atoms: _19  and  _21
REMARK    3  A    between atoms: _22  and  _66
REMARK    4  A    between atoms: _27  and  _30
REMARK    5  A    between atoms: _32  and  _33
REMARK    6  A    between atoms: _38  and  _43
REMARK    7  A    between atoms: _43  and  _46
REMARK    8  A    between atoms: _53  and  _55
REMARK                            x       y       z     vdW  Elec       q    Type
REMARK                         _______ _______ _______ _____ _____    ______ ____
ROOT
ATOM     10  C   UNL     1     -26.581 -19.308 -25.730  0.00  0.00    +0.038 A 
ATOM     11  C   UNL     1     -27.947 -18.938 -25.642  0.00  0.00    +0.047 A 
ATOM     12  C   UNL     1     -28.840 -19.077 -26.783  0.00  0.00    +0.035 A 
ATOM     32  C   UNL     1     -28.307 -19.598 -27.998  0.00  0.00    +0.024 A 
ATOM     33  C   UNL     1     -26.920 -19.978 -28.105  0.00  0.00    +0.007 A 
ATOM     34  C   UNL     1     -26.035 -19.841 -26.984  0.00  0.00    -0.029 A 
ATOM     35  C   UNL     1     -24.556 -20.258 -27.158  0.00  0.00    +0.045 C 
ENDROOT
BRANCH  10   9
ATOM      4  C   UNL     1     -24.624 -20.950 -21.667  0.00  0.00    +0.077 A 
ATOM      5  C   UNL     1     -25.297 -22.211 -21.783  0.00  0.00    +0.048 A 
ATOM      6  C   UNL     1     -26.143 -22.395 -22.900  0.00  0.00    +0.116 A 
ATOM      7  N   UNL     1     -26.297 -21.386 -23.825  0.00  0.00    -0.223 NA
ATOM      8  C   UNL     1     -25.635 -20.180 -23.682  0.00  0.00    +0.220 A 
ATOM      9  N   UNL     1     -25.769 -19.154 -24.604  0.00  0.00    -0.283 N 
ATOM     36  H   UNL     1     -25.270 -18.277 -24.459  0.00  0.00    +0.155 HD
ATOM     37  N   UNL     1     -24.823 -19.979 -22.623  0.00  0.00    -0.214 NA
BRANCH   4   3
ATOM      1  C   UNL     1     -21.774 -19.307 -19.551  0.00  0.00    +0.020 A 
ATOM      2  C   UNL     1     -22.644 -19.602 -20.666  0.00  0.00    +0.013 A 
ATOM      3  C   UNL     1     -23.695 -20.605 -20.545  0.00  0.00    +0.019 A 
ATOM     38  C   UNL     1     -23.839 -21.297 -19.272  0.00  0.00    +0.120 A 
ATOM     39  N   UNL     1     -22.985 -20.992 -18.217  0.00  0.00    -0.263 NA
ATOM     40  C   UNL     1     -21.969 -20.030 -18.322  0.00  0.00    +0.111 A 
ENDBRANCH   4   3
ENDBRANCH  10   9
BRANCH  12  13
ATOM     13  N   UNL     1     -30.234 -18.710 -26.755  0.00  0.00    -0.281 N 
ATOM     14  C   UNL     1     -30.780 -17.437 -26.759  0.00  0.00    +0.248 C 
ATOM     30  O   UNL     1     -30.143 -16.411 -26.571  0.00  0.00    -0.270 OA
ATOM     31  H   UNL     1     -30.899 -19.483 -26.729  0.00  0.00    +0.155 HD
BRANCH  14  15
ATOM     15  C   UNL     1     -32.248 -17.282 -26.991  0.00  0.00    +0.037 A 
ATOM     16  C   UNL     1     -33.106 -18.445 -27.233  0.00  0.00    +0.013 A 
ATOM     17  C   UNL     1     -34.517 -18.266 -27.471  0.00  0.00    +0.005 A 
ATOM     18  C   UNL     1     -35.078 -16.917 -27.468  0.00  0.00    -0.033 A 
ATOM     28  C   UNL     1     -34.205 -15.782 -27.220  0.00  0.00    +0.005 A 
ATOM     29  C   UNL     1     -32.822 -15.953 -26.987  0.00  0.00    +0.013 A 
BRANCH  18  19
ATOM     19  C   UNL     1     -36.568 -16.631 -27.734  0.00  0.00    +0.119 C 
BRANCH  19  20
ATOM     20  N   UNL     1     -37.201 -17.325 -28.894  0.00  0.00    -0.302 NA
ATOM     21  C   UNL     1     -37.029 -16.540 -30.197  0.00  0.00    +0.066 C 
ATOM     22  C   UNL     1     -37.678 -17.292 -31.405  0.00  0.00    -0.064 C 
ATOM     23  N   UNL     1     -39.159 -17.538 -31.113  0.00  0.00    +0.379 N 
ATOM     24  C   UNL     1     -39.785 -18.193 -32.270  0.00  0.00    -0.096 C 
ATOM     25  H   UNL     1     -39.647 -16.544 -30.981  0.00  0.00    -0.082 HD
ATOM     26  C   UNL     1     -39.339 -18.316 -29.817  0.00  0.00    -0.064 C 
ATOM     27  C   UNL     1     -38.665 -17.575 -28.629  0.00  0.00    +0.066 C 
ENDBRANCH  19  20
ENDBRANCH  18  19
ENDBRANCH  14  15
ENDBRANCH  12  13
TORSDOF 6
ENDMDL
MODEL 2
REMARK VINA RESULT:      -8.5     27.597     31.939
REMARK  Name = C:\Users\Docking\Desktop\test protocol\1iep_ligandH.pdb
REMARK  8 active torsions:
REMARK  status: ('A' for Active; 'I' for Inactive)
REMARK    1  A    between atoms: _5  and  _11
REMARK    2  A    between atoms: _19  and  _21
REMARK    3  A    between atoms: _22  and  _66
REMARK    4  A    between atoms: _27  and  _30
REMARK    5  A    between atoms: _32  and  _33
REMARK    6  A    between atoms: _38  and  _43
REMARK    7  A    between atoms: _43  and  _46
REMARK    8  A    between atoms: _53  and  _55
REMARK                            x       y       z     vdW  Elec       q    Type
REMARK                         _______ _______ _______ _____ _____    ______ ____
ROOT
ATOM     10  C   UNL     1     -34.501 -34.940 -47.953  0.00  0.00    +0.038 A 
ATOM     11  C   UNL     1     -34.435 -34.520 -49.306  0.00  0.00    +0.047 A 
ATOM     12  C   UNL     1     -33.165 -34.460 -50.014  0.00  0.00    +0.035 A 
ATOM     32  C   UNL     1     -31.983 -34.838 -49.314  0.00  0.00    +0.024 A 
ATOM     33  C   UNL     1     -32.032 -35.267 -47.939  0.00  0.00    +0.007 A 
ATOM     34  C   UNL     1     -33.281 -35.326 -47.234  0.00  0.00    -0.029 A 
ATOM     35  C   UNL     1     -33.273 -35.787 -45.758  0.00  0.00    +0.045 C 
ENDROOT
BRANCH  10   9
ATOM      4  C   UNL     1     -38.712 -37.049 -47.024  0.00  0.00    +0.077 A 
ATOM      5  C   UNL     1     -38.416 -38.154 -47.889  0.00  0.00    +0.048 A 
ATOM      6  C   UNL     1     -37.173 -38.138 -48.561  0.00  0.00    +0.116 A 
ATOM      7  N   UNL     1     -36.298 -37.090 -48.373  0.00  0.00    -0.223 NA
ATOM      8  C   UNL     1     -36.615 -36.039 -47.532  0.00  0.00    +0.220 A 
ATOM      9  N   UNL     1     -35.746 -34.979 -47.322  0.00  0.00    -0.283 N 
ATOM     36  H   UNL     1     -36.020 -34.219 -46.700  0.00  0.00    +0.155 HD
ATOM     37  N   UNL     1     -37.796 -36.030 -46.881  0.00  0.00    -0.214 NA
BRANCH   4   3
ATOM      1  C   UNL     1     -42.307 -36.009 -45.885  0.00  0.00    +0.020 A 
ATOM      2  C   UNL     1     -41.101 -36.095 -46.677  0.00  0.00    +0.013 A 
ATOM      3  C   UNL     1     -39.983 -36.923 -46.242  0.00  0.00    +0.019 A 
ATOM     38  C   UNL     1     -40.118 -37.657 -44.993  0.00  0.00    +0.120 A 
ATOM     39  N   UNL     1     -41.290 -37.553 -44.251  0.00  0.00    -0.263 NA
ATOM     40  C   UNL     1     -42.372 -36.759 -44.658  0.00  0.00    +0.111 A 
ENDBRANCH   4   3
ENDBRANCH  10   9
BRANCH  12  13
ATOM     13  N   UNL     1     -33.035 -34.033 -51.385  0.00  0.00    -0.281 N 
ATOM     14  C   UNL     1     -33.022 -32.738 -51.877  0.00  0.00    +0.248 C 
ATOM     30  O   UNL     1     -33.335 -31.750 -51.229  0.00  0.00    -0.270 OA
ATOM     31  H   UNL     1     -32.942 -34.776 -52.078  0.00  0.00    +0.155 HD
BRANCH  14  15
ATOM     15  C   UNL     1     -32.615 -32.508 -53.296  0.00  0.00    +0.037 A 
ATOM     16  C   UNL     1     -33.040 -31.310 -54.025  0.00  0.00    +0.013 A 
ATOM     17  C   UNL     1     -32.647 -31.122 -55.399  0.00  0.00    +0.005 A 
ATOM     18  C   UNL     1     -31.822 -32.134 -56.053  0.00  0.00    -0.033 A 
ATOM     28  C   UNL     1     -31.410 -33.311 -55.305  0.00  0.00    +0.005 A 
ATOM     29  C   UNL     1     -31.794 -33.499 -53.959  0.00  0.00    +0.013 A 
BRANCH  18  19
ATOM     19  C   UNL     1     -31.374 -32.026 -57.523  0.00  0.00    +0.119 C 
BRANCH  19  20
ATOM     20  N   UNL     1     -30.148 -32.780 -57.921  0.00  0.00    -0.302 NA
ATOM     21  C   UNL     1     -28.882 -31.928 -57.791  0.00  0.00    +0.066 C 
ATOM     22  C   UNL     1     -27.607 -32.740 -58.190  0.00  0.00    -0.064 C 
ATOM     23  N   UNL     1     -27.764 -33.261 -59.619  0.00  0.00    +0.379 N 
ATOM     24  C   UNL     1     -26.542 -33.975 -60.018  0.00  0.00    -0.096 C 
ATOM     25  H   UNL     1     -27.875 -32.378 -60.291  0.00  0.00    -0.082 HD
ATOM     26  C   UNL     1     -29.022 -34.107 -59.758  0.00  0.00    -0.064 C 
ATOM     27  C   UNL     1     -30.280 -33.301 -59.331  0.00  0.00    +0.066 C 
ENDBRANCH  19  20
ENDBRANCH  18  19
ENDBRANCH  14  15
ENDBRANCH  12  13
TORSDOF 6
ENDMDL
MODEL 3
REMARK VINA RESULT:      -8.5      1.509      2.045
REMARK  Name = C:\Users\Docking\Desktop\test protocol\1iep_ligandH.pdb
REMARK  8 active torsions:
REMARK  status: ('A' for Active; 'I' for Inactive)
REMARK    1  A    between atoms: _5  and  _11
REMARK    2  A    between atoms: _19  and  _21
REMARK    3  A    between atoms: _22  and  _66
REMARK    4  A    between atoms: _27  and  _30
REMARK    5  A    between atoms: _32  and  _33
REMARK    6  A    between atoms: _38  and  _43
REMARK    7  A    between atoms: _43  and  _46
REMARK    8  A    between atoms: _53  and  _55
REMARK                            x       y       z     vdW  Elec       q    Type
REMARK                         _______ _______ _______ _____ _____    ______ ____
ROOT
ATOM     10  C   UNL     1     -26.401 -19.324 -25.722  0.00  0.00    +0.038 A 
ATOM     11  C   UNL     1     -27.773 -18.967 -25.670  0.00  0.00    +0.047 A 
ATOM     12  C   UNL     1     -28.627 -19.087 -26.841  0.00  0.00    +0.035 A 
ATOM     32  C   UNL     1     -28.051 -19.578 -28.049  0.00  0.00    +0.024 A 
ATOM     33  C   UNL     1     -26.659 -19.945 -28.120  0.00  0.00    +0.007 A 
ATOM     34  C   UNL     1     -25.811 -19.826 -26.968  0.00  0.00    -0.029 A 
ATOM     35  C   UNL     1     -24.324 -20.229 -27.104  0.00  0.00    +0.045 C 
ENDROOT
BRANCH  10   9
ATOM      4  C   UNL     1     -24.642 -21.004 -21.584  0.00  0.00    +0.077 A 
ATOM      5  C   UNL     1     -25.345 -22.247 -21.722  0.00  0.00    +0.048 A 
ATOM      6  C   UNL     1     -26.154 -22.412 -22.868  0.00  0.00    +0.116 A 
ATOM      7  N   UNL     1     -26.246 -21.402 -23.801  0.00  0.00    -0.223 NA
ATOM      8  C   UNL     1     -25.556 -20.215 -23.637  0.00  0.00    +0.220 A 
ATOM      9  N   UNL     1     -25.628 -19.189 -24.567  0.00  0.00    -0.283 N 
ATOM     36  H   UNL     1     -25.109 -18.325 -24.406  0.00  0.00    +0.155 HD
ATOM     37  N   UNL     1     -24.778 -20.033 -22.550  0.00  0.00    -0.214 NA
BRANCH   4   3
ATOM      1  C   UNL     1     -21.842 -19.415 -19.362  0.00  0.00    +0.020 A 
ATOM      2  C   UNL     1     -22.680 -19.689 -20.507  0.00  0.00    +0.013 A 
ATOM      3  C   UNL     1     -23.745 -20.682 -20.430  0.00  0.00    +0.019 A 
ATOM     38  C   UNL     1     -23.937 -21.384 -19.170  0.00  0.00    +0.120 A 
ATOM     39  N   UNL     1     -23.114 -21.100 -18.085  0.00  0.00    -0.263 NA
ATOM     40  C   UNL     1     -22.085 -20.148 -18.148  0.00  0.00    +0.111 A 
ENDBRANCH   4   3
ENDBRANCH  10   9
BRANCH  12  13
ATOM     13  N   UNL     1     -30.024 -18.731 -26.851  0.00  0.00    -0.281 N 
ATOM     14  C   UNL     1     -30.580 -17.463 -26.836  0.00  0.00    +0.248 C 
ATOM     30  O   UNL     1     -29.958 -16.438 -26.597  0.00  0.00    -0.270 OA
ATOM     31  H   UNL     1     -30.683 -19.510 -26.870  0.00  0.00    +0.155 HD
BRANCH  14  15
ATOM     15  C   UNL     1     -32.041 -17.311 -27.115  0.00  0.00    +0.037 A 
ATOM     16  C   UNL     1     -32.921 -18.479 -27.211  0.00  0.00    +0.013 A 
ATOM     17  C   UNL     1     -34.323 -18.306 -27.497  0.00  0.00    +0.005 A 
ATOM     18  C   UNL     1     -34.854 -16.958 -27.688  0.00  0.00    -0.033 A 
ATOM     28  C   UNL     1     -33.960 -15.817 -27.581  0.00  0.00    +0.005 A 
ATOM     29  C   UNL     1     -32.585 -15.983 -27.302  0.00  0.00    +0.013 A 
BRANCH  18  19
ATOM     19  C   UNL     1     -36.333 -16.681 -28.018  0.00  0.00    +0.119 C 
BRANCH  19  20
ATOM     20  N   UNL     1     -37.345 -17.058 -26.987  0.00  0.00    -0.302 NA
ATOM     21  C   UNL     1     -37.981 -18.420 -27.277  0.00  0.00    +0.066 C 
ATOM     22  C   UNL     1     -39.022 -18.809 -26.177  0.00  0.00    -0.064 C 
ATOM     23  N   UNL     1     -40.092 -17.720 -26.084  0.00  0.00    +0.379 N 
ATOM     24  C   UNL     1     -41.104 -18.110 -25.091  0.00  0.00    -0.096 C 
ATOM     25  H   UNL     1     -40.598 -17.658 -27.076  0.00  0.00    -0.082 HD
ATOM     26  C   UNL     1     -39.469 -16.362 -25.798  0.00  0.00    -0.064 C 
ATOM     27  C   UNL     1     -38.415 -15.998 -26.882  0.00  0.00    +0.066 C 
ENDBRANCH  19  20
ENDBRANCH  18  19
ENDBRANCH  14  15
ENDBRANCH  12  13
TORSDOF 6
ENDMDL
MODEL 4
REMARK VINA RESULT:      -8.4     27.511     32.556
REMARK  Name = C:\Users\Docking\Desktop\test protocol\1iep_ligandH.pdb
REMARK  8 active torsions:
REMARK  status: ('A' for Active; 'I' for Inactive)
REMARK    1  A    between atoms: _5  and  _11
REMARK    2  A    between atoms: _19  and  _21
REMARK    3  A    between atoms: _22  and  _66
REMARK    4  A    between atoms: _27  and  _30
REMARK    5  A    between atoms: _32  and  _33
REMARK    6  A    between atoms: _38  and  _43
REMARK    7  A    between atoms: _43  and  _46
REMARK    8  A    between atoms: _53  and  _55
REMARK                            x       y       z     vdW  Elec       q    Type
REMARK                         _______ _______ _______ _____ _____    ______ ____
ROOT
ATOM     10  C   UNL     1     -34.168 -34.250 -49.188  0.00  0.00    +0.038 A 
ATOM     11  C   UNL     1     -33.831 -34.198 -50.565  0.00  0.00    +0.047 A 
ATOM     12  C   UNL     1     -32.893 -33.209 -51.073  0.00  0.00    +0.035 A 
ATOM     32  C   UNL     1     -32.314 -32.291 -50.150  0.00  0.00    +0.024 A 
ATOM     33  C   UNL     1     -32.645 -32.329 -48.747  0.00  0.00    +0.007 A 
ATOM     34  C   UNL     1     -33.572 -33.301 -48.241  0.00  0.00    -0.029 A 
ATOM     35  C   UNL     1     -33.896 -33.291 -46.729  0.00  0.00    +0.045 C 
ENDROOT
BRANCH  10   9
ATOM      4  C   UNL     1     -38.503 -35.596 -47.628  0.00  0.00    +0.077 A 
ATOM      5  C   UNL     1     -38.995 -34.248 -47.653  0.00  0.00    +0.048 A 
ATOM      6  C   UNL     1     -38.099 -33.237 -48.066  0.00  0.00    +0.116 A 
ATOM      7  N   UNL     1     -36.809 -33.561 -48.426  0.00  0.00    -0.223 NA
ATOM      8  C   UNL     1     -36.366 -34.871 -48.390  0.00  0.00    +0.220 A 
ATOM      9  N   UNL     1     -35.075 -35.220 -48.755  0.00  0.00    -0.283 N 
ATOM     36  H   UNL     1     -34.784 -36.197 -48.707  0.00  0.00    +0.155 HD
ATOM     37  N   UNL     1     -37.202 -35.854 -47.997  0.00  0.00    -0.214 NA
BRANCH   4   3
ATOM      1  C   UNL     1     -39.949 -39.217 -47.323  0.00  0.00    +0.020 A 
ATOM      2  C   UNL     1     -39.122 -38.113 -47.753  0.00  0.00    +0.013 A 
ATOM      3  C   UNL     1     -39.331 -36.774 -47.218  0.00  0.00    +0.019 A 
ATOM     38  C   UNL     1     -40.392 -36.584 -46.241  0.00  0.00    +0.120 A 
ATOM     39  N   UNL     1     -41.173 -37.665 -45.846  0.00  0.00    -0.263 NA
ATOM     40  C   UNL     1     -40.983 -38.959 -46.356  0.00  0.00    +0.111 A 
ENDBRANCH   4   3
ENDBRANCH  10   9
BRANCH  12  13
ATOM     13  N   UNL     1     -32.519 -33.103 -52.462  0.00  0.00    -0.281 N 
ATOM     14  C   UNL     1     -32.807 -32.075 -53.345  0.00  0.00    +0.248 C 
ATOM     30  O   UNL     1     -33.618 -31.186 -53.130  0.00  0.00    -0.270 OA
ATOM     31  H   UNL     1     -31.976 -33.879 -52.839  0.00  0.00    +0.155 HD
BRANCH  14  15
ATOM     15  C   UNL     1     -32.105 -32.038 -54.663  0.00  0.00    +0.037 A 
ATOM     16  C   UNL     1     -31.009 -31.097 -54.914  0.00  0.00    +0.013 A 
ATOM     17  C   UNL     1     -30.360 -31.070 -56.200  0.00  0.00    +0.005 A 
ATOM     18  C   UNL     1     -30.803 -31.989 -57.246  0.00  0.00    -0.033 A 
ATOM     28  C   UNL     1     -31.889 -32.915 -56.969  0.00  0.00    +0.005 A 
ATOM     29  C   UNL     1     -32.529 -32.943 -55.709  0.00  0.00    +0.013 A 
BRANCH  18  19
ATOM     19  C   UNL     1     -30.182 -32.015 -58.655  0.00  0.00    +0.119 C 
BRANCH  19  20
ATOM     20  N   UNL     1     -29.268 -33.151 -58.978  0.00  0.00    -0.302 NA
ATOM     21  C   UNL     1     -27.807 -32.822 -58.657  0.00  0.00    +0.066 C 
ATOM     22  C   UNL     1     -26.867 -34.029 -58.980  0.00  0.00    -0.064 C 
ATOM     23  N   UNL     1     -27.025 -34.414 -60.452  0.00  0.00    +0.379 N 
ATOM     24  C   UNL     1     -26.100 -35.511 -60.773  0.00  0.00    -0.096 C 
ATOM     25  H   UNL     1     -26.729 -33.532 -61.066  0.00  0.00    -0.082 HD
ATOM     26  C   UNL     1     -28.475 -34.741 -60.780  0.00  0.00    -0.064 C 
ATOM     27  C   UNL     1     -29.404 -33.545 -60.428  0.00  0.00    +0.066 C 
ENDBRANCH  19  20
ENDBRANCH  18  19
ENDBRANCH  14  15
ENDBRANCH  12  13
TORSDOF 6
ENDMDL
MODEL 5
REMARK VINA RESULT:      -8.3     27.522     32.321
REMARK  Name = C:\Users\Docking\Desktop\test protocol\1iep_ligandH.pdb
REMARK  8 active torsions:
REMARK  status: ('A' for Active; 'I' for Inactive)
REMARK    1  A    between atoms: _5  and  _11
REMARK    2  A    between atoms: _19  and  _21
REMARK    3  A    between atoms: _22  and  _66
REMARK    4  A    between atoms: _27  and  _30
REMARK    5  A    between atoms: _32  and  _33
REMARK    6  A    between atoms: _38  and  _43
REMARK    7  A    between atoms: _43  and  _46
REMARK    8  A    between atoms: _53  and  _55
REMARK                            x       y       z     vdW  Elec       q    Type
REMARK                         _______ _______ _______ _____ _____    ______ ____
ROOT
ATOM     10  C   UNL     1     -34.708 -33.605 -49.410  0.00  0.00    +0.038 A 
ATOM     11  C   UNL     1     -34.292 -33.630 -50.766  0.00  0.00    +0.047 A 
ATOM     12  C   UNL     1     -33.190 -32.801 -51.230  0.00  0.00    +0.035 A 
ATOM     32  C   UNL     1     -32.531 -31.962 -50.286  0.00  0.00    +0.024 A 
ATOM     33  C   UNL     1     -32.941 -31.924 -48.904  0.00  0.00    +0.007 A 
ATOM     34  C   UNL     1     -34.029 -32.737 -48.441  0.00  0.00    -0.029 A 
ATOM     35  C   UNL     1     -34.430 -32.651 -46.950  0.00  0.00    +0.045 C 
ENDROOT
BRANCH  10   9
ATOM      4  C   UNL     1     -36.481 -37.760 -47.788  0.00  0.00    +0.077 A 
ATOM      5  C   UNL     1     -35.181 -38.365 -47.741  0.00  0.00    +0.048 A 
ATOM      6  C   UNL     1     -34.083 -37.575 -48.150  0.00  0.00    +0.116 A 
ATOM      7  N   UNL     1     -34.282 -36.278 -48.572  0.00  0.00    -0.223 NA
ATOM      8  C   UNL     1     -35.549 -35.726 -48.606  0.00  0.00    +0.220 A 
ATOM      9  N   UNL     1     -35.772 -34.421 -49.019  0.00  0.00    -0.283 N 
ATOM     36  H   UNL     1     -36.722 -34.053 -49.037  0.00  0.00    +0.155 HD
ATOM     37  N   UNL     1     -36.614 -36.460 -48.223  0.00  0.00    -0.214 NA
BRANCH   4   3
ATOM      1  C   UNL     1     -39.004 -40.485 -46.559  0.00  0.00    +0.020 A 
ATOM      2  C   UNL     1     -37.762 -39.852 -46.938  0.00  0.00    +0.013 A 
ATOM      3  C   UNL     1     -37.739 -38.465 -47.385  0.00  0.00    +0.019 A 
ATOM     38  C   UNL     1     -39.001 -37.741 -47.439  0.00  0.00    +0.120 A 
ATOM     39  N   UNL     1     -40.182 -38.378 -47.070  0.00  0.00    -0.263 NA
ATOM     40  C   UNL     1     -40.216 -39.713 -46.639  0.00  0.00    +0.111 A 
ENDBRANCH   4   3
ENDBRANCH  10   9
BRANCH  12  13
ATOM     13  N   UNL     1     -32.729 -32.778 -52.596  0.00  0.00    -0.281 N 
ATOM     14  C   UNL     1     -32.968 -31.811 -53.559  0.00  0.00    +0.248 C 
ATOM     30  O   UNL     1     -33.797 -30.920 -53.453  0.00  0.00    -0.270 OA
ATOM     31  H   UNL     1     -32.157 -33.571 -52.889  0.00  0.00    +0.155 HD
BRANCH  14  15
ATOM     15  C   UNL     1     -32.183 -31.849 -54.831  0.00  0.00    +0.037 A 
ATOM     16  C   UNL     1     -32.584 -32.709 -55.947  0.00  0.00    +0.013 A 
ATOM     17  C   UNL     1     -31.799 -32.739 -57.155  0.00  0.00    +0.005 A 
ATOM     18  C   UNL     1     -30.604 -31.904 -57.254  0.00  0.00    -0.033 A 
ATOM     28  C   UNL     1     -30.232 -31.056 -56.134  0.00  0.00    +0.005 A 
ATOM     29  C   UNL     1     -30.999 -31.024 -54.947  0.00  0.00    +0.013 A 
BRANCH  18  19
ATOM     19  C   UNL     1     -29.695 -31.888 -58.497  0.00  0.00    +0.119 C 
BRANCH  19  20
ATOM     20  N   UNL     1     -28.443 -32.699 -58.439  0.00  0.00    -0.302 NA
ATOM     21  C   UNL     1     -28.658 -34.037 -57.727  0.00  0.00    +0.066 C 
ATOM     22  C   UNL     1     -27.343 -34.883 -57.695  0.00  0.00    -0.064 C 
ATOM     23  N   UNL     1     -26.238 -34.076 -57.010  0.00  0.00    +0.379 N 
ATOM     24  C   UNL     1     -25.017 -34.890 -56.927  0.00  0.00    -0.096 C 
ATOM     25  H   UNL     1     -26.573 -33.860 -55.969  0.00  0.00    -0.082 HD
ATOM     26  C   UNL     1     -26.020 -32.743 -57.711  0.00  0.00    -0.064 C 
ATOM     27  C   UNL     1     -27.339 -31.923 -57.764  0.00  0.00    +0.066 C 
ENDBRANCH  19  20
ENDBRANCH  18  19
ENDBRANCH  14  15
ENDBRANCH  12  13
TORSDOF 6
ENDMDL
