MODEL 1
REMARK VINA RESULT:      -9.1      0.000      0.000
REMARK  Name = C:\Users\Docking\Desktop\test protocol\1iep_ligandH.pdb
REMARK  8 active torsions:
REMARK  status: ('A' for Active; 'I' for Inactive)
REMARK    1  A    between atoms: _5  and  _11
REMARK    2  A    between atoms: _19  and  _21
REMARK    3  A    between atoms: _22  and  _66
REMARK    4  A    between atoms: _27  and  _30
REMARK    5  A    between atoms: _32  and  _33
REMARK    6  A    between atoms: _38  and  _43
REMARK    7  A    between atoms: _43  and  _46
REMARK    8  A    between atoms: _53  and  _55
REMARK                            x       y       z     vdW  Elec       q    Type
REMARK                         _______ _______ _______ _____ _____    ______ ____
ROOT
ATOM     10  C   UNL     1     -39.150 -17.725 -28.751  0.00  0.00    +0.038 A 
ATOM     11  C   UNL     1     -37.775 -18.072 -28.717  0.00  0.00    +0.047 A 
ATOM     12  C   UNL     1     -36.765 -17.104 -28.316  0.00  0.00    +0.035 A 
ATOM     32  C   UNL     1     -37.191 -15.793 -27.954  0.00  0.00    +0.024 A 
ATOM     33  C   UNL     1     -38.585 -15.424 -27.984  0.00  0.00    +0.007 A 
ATOM     34  C   UNL     1     -39.585 -16.373 -28.381  0.00  0.00    -0.029 A 
ATOM     35  C   UNL     1     -41.064 -15.920 -28.401  0.00  0.00    +0.045 C 
ENDROOT
BRANCH  10   9
ATOM      4  C   UNL     1     -42.030 -19.753 -32.012  0.00  0.00    +0.077 A 
ATOM      5  C   UNL     1     -41.678 -18.785 -33.011  0.00  0.00    +0.048 A 
ATOM      6  C   UNL     1     -40.758 -17.777 -32.643  0.00  0.00    +0.116 A 
ATOM      7  N   UNL     1     -40.235 -17.750 -31.368  0.00  0.00    -0.223 NA
ATOM      8  C   UNL     1     -40.597 -18.697 -30.429  0.00  0.00    +0.220 A 
ATOM      9  N   UNL     1     -40.077 -18.694 -29.143  0.00  0.00    -0.283 N 
ATOM     36  H   UNL     1     -40.375 -19.406 -28.477  0.00  0.00    +0.155 HD
ATOM     37  N   UNL     1     -41.474 -19.669 -30.755  0.00  0.00    -0.214 NA
BRANCH   4   3
ATOM      1  C   UNL     1     -43.569 -23.332 -32.360  0.00  0.00    +0.020 A 
ATOM      2  C   UNL     1     -42.607 -22.281 -32.120  0.00  0.00    +0.013 A 
ATOM      3  C   UNL     1     -42.986 -20.880 -32.249  0.00  0.00    +0.019 A 
ATOM     38  C   UNL     1     -44.358 -20.573 -32.625  0.00  0.00    +0.120 A 
ATOM     39  N   UNL     1     -45.262 -21.606 -32.851  0.00  0.00    -0.263 NA
ATOM     40  C   UNL     1     -44.908 -22.958 -32.731  0.00  0.00    +0.111 A 
ENDBRANCH   4   3
ENDBRANCH  10   9
BRANCH  12  13
ATOM     13  N   UNL     1     -35.354 -17.396 -28.270  0.00  0.00    -0.281 N 
ATOM     14  C   UNL     1     -34.523 -17.413 -27.162  0.00  0.00    +0.248 C 
ATOM     30  O   UNL     1     -34.827 -16.969 -26.064  0.00  0.00    -0.270 OA
ATOM     31  H   UNL     1     -34.913 -17.616 -29.164  0.00  0.00    +0.155 HD
BRANCH  14  15
ATOM     15  C   UNL     1     -33.153 -17.995 -27.295  0.00  0.00    +0.037 A 
ATOM     16  C   UNL     1     -32.956 -19.423 -27.556  0.00  0.00    +0.013 A 
ATOM     17  C   UNL     1     -31.623 -19.962 -27.664  0.00  0.00    +0.005 A 
ATOM     18  C   UNL     1     -30.476 -19.070 -27.510  0.00  0.00    -0.033 A 
ATOM     28  C   UNL     1     -30.700 -17.657 -27.256  0.00  0.00    +0.005 A 
ATOM     29  C   UNL     1     -32.005 -17.125 -27.150  0.00  0.00    +0.013 A 
BRANCH  18  19
ATOM     19  C   UNL     1     -29.018 -19.561 -27.588  0.00  0.00    +0.119 C 
BRANCH  19  20
ATOM     20  N   UNL     1     -28.222 -19.541 -26.325  0.00  0.00    -0.302 NA
ATOM     21  C   UNL     1     -27.080 -18.521 -26.383  0.00  0.00    +0.066 C 
ATOM     22  C   UNL     1     -26.271 -18.497 -25.045  0.00  0.00    -0.064 C 
ATOM     23  N   UNL     1     -25.731 -19.898 -24.753  0.00  0.00    +0.379 N 
ATOM     24  C   UNL     1     -24.921 -19.866 -23.527  0.00  0.00    -0.096 C 
ATOM     25  H   UNL     1     -25.059 -20.184 -25.595  0.00  0.00    -0.082 HD
ATOM     26  C   UNL     1     -26.860 -20.918 -24.697  0.00  0.00    -0.064 C 
ATOM     27  C   UNL     1     -27.676 -20.914 -26.019  0.00  0.00    +0.066 C 
ENDBRANCH  19  20
ENDBRANCH  18  19
ENDBRANCH  14  15
ENDBRANCH  12  13
TORSDOF 6
ENDMDL
MODEL 2
REMARK VINA RESULT:      -9.0     25.410     28.805
REMARK  Name = C:\Users\Docking\Desktop\test protocol\1iep_ligandH.pdb
REMARK  8 active torsions:
REMARK  status: ('A' for Active; 'I' for Inactive)
REMARK    1  A    between atoms: _5  and  _11
REMARK    2  A    between atoms: _19  and  _21
REMARK    3  A    between atoms: _22  and  _66
REMARK    4  A    between atoms: _27  and  _30
REMARK    5  A    between atoms: _32  and  _33
REMARK    6  A    between atoms: _38  and  _43
REMARK    7  A    between atoms: _43  and  _46
REMARK    8  A    between atoms: _53  and  _55
REMARK                            x       y       z     vdW  Elec       q    Type
REMARK                         _______ _______ _______ _____ _____    ______ ____
ROOT
ATOM     10  C   UNL     1     -34.580 -34.952 -48.183  0.00  0.00    +0.038 A 
ATOM     11  C   UNL     1     -34.459 -34.500 -49.522  0.00  0.00    +0.047 A 
ATOM     12  C   UNL     1     -33.161 -34.416 -50.173  0.00  0.00    +0.035 A 
ATOM     32  C   UNL     1     -32.007 -34.802 -49.432  0.00  0.00    +0.024 A 
ATOM     33  C   UNL     1     -32.111 -35.263 -48.069  0.00  0.00    +0.007 A 
ATOM     34  C   UNL     1     -33.389 -35.346 -47.421  0.00  0.00    -0.029 A 
ATOM     35  C   UNL     1     -33.441 -35.841 -45.957  0.00  0.00    +0.045 C 
ENDROOT
BRANCH  10   9
ATOM      4  C   UNL     1     -38.771 -37.158 -47.403  0.00  0.00    +0.077 A 
ATOM      5  C   UNL     1     -38.409 -38.269 -48.234  0.00  0.00    +0.048 A 
ATOM      6  C   UNL     1     -37.138 -38.231 -48.850  0.00  0.00    +0.116 A 
ATOM      7  N   UNL     1     -36.300 -37.157 -48.643  0.00  0.00    -0.223 NA
ATOM      8  C   UNL     1     -36.681 -36.101 -47.836  0.00  0.00    +0.220 A 
ATOM      9  N   UNL     1     -35.851 -35.014 -47.607  0.00  0.00    -0.283 N 
ATOM     36  H   UNL     1     -36.172 -34.251 -47.012  0.00  0.00    +0.155 HD
ATOM     37  N   UNL     1     -37.890 -36.112 -47.238  0.00  0.00    -0.214 NA
BRANCH   4   3
ATOM      1  C   UNL     1     -41.980 -38.036 -45.346  0.00  0.00    +0.020 A 
ATOM      2  C   UNL     1     -40.717 -38.190 -46.030  0.00  0.00    +0.013 A 
ATOM      3  C   UNL     1     -40.079 -37.053 -46.681  0.00  0.00    +0.019 A 
ATOM     38  C   UNL     1     -40.749 -35.763 -46.620  0.00  0.00    +0.120 A 
ATOM     39  N   UNL     1     -41.966 -35.645 -45.956  0.00  0.00    -0.263 NA
ATOM     40  C   UNL     1     -42.591 -36.732 -45.327  0.00  0.00    +0.111 A 
ENDBRANCH   4   3
ENDBRANCH  10   9
BRANCH  12  13
ATOM     13  N   UNL     1     -32.975 -33.957 -51.528  0.00  0.00    -0.281 N 
ATOM     14  C   UNL     1     -32.975 -32.652 -51.992  0.00  0.00    +0.248 C 
ATOM     30  O   UNL     1     -33.348 -31.687 -51.342  0.00  0.00    -0.270 OA
ATOM     31  H   UNL     1     -32.827 -34.682 -52.229  0.00  0.00    +0.155 HD
BRANCH  14  15
ATOM     15  C   UNL     1     -32.504 -32.381 -53.385  0.00  0.00    +0.037 A 
ATOM     16  C   UNL     1     -33.148 -31.364 -54.220  0.00  0.00    +0.013 A 
ATOM     17  C   UNL     1     -32.686 -31.135 -55.566  0.00  0.00    +0.005 A 
ATOM     18  C   UNL     1     -31.572 -31.924 -56.084  0.00  0.00    -0.033 A 
ATOM     28  C   UNL     1     -30.948 -32.923 -55.232  0.00  0.00    +0.005 A 
ATOM     29  C   UNL     1     -31.399 -33.151 -53.913  0.00  0.00    +0.013 A 
BRANCH  18  19
ATOM     19  C   UNL     1     -31.026 -31.762 -57.516  0.00  0.00    +0.119 C 
BRANCH  19  20
ATOM     20  N   UNL     1     -29.855 -32.605 -57.901  0.00  0.00    -0.302 NA
ATOM     21  C   UNL     1     -28.541 -31.820 -57.848  0.00  0.00    +0.066 C 
ATOM     22  C   UNL     1     -27.323 -32.722 -58.232  0.00  0.00    -0.064 C 
ATOM     23  N   UNL     1     -27.547 -33.311 -59.626  0.00  0.00    +0.379 N 
ATOM     24  C   UNL     1     -26.378 -34.113 -60.014  0.00  0.00    -0.096 C 
ATOM     25  H   UNL     1     -27.627 -32.461 -60.343  0.00  0.00    -0.082 HD
ATOM     26  C   UNL     1     -28.853 -34.090 -59.688  0.00  0.00    -0.064 C 
ATOM     27  C   UNL     1     -30.053 -33.192 -59.276  0.00  0.00    +0.066 C 
ENDBRANCH  19  20
ENDBRANCH  18  19
ENDBRANCH  14  15
ENDBRANCH  12  13
TORSDOF 6
ENDMDL
MODEL 3
REMARK VINA RESULT:      -9.0      3.359     15.325
REMARK  Name = C:\Users\Docking\Desktop\test protocol\1iep_ligandH.pdb
REMARK  8 active torsions:
REMARK  status: ('A' for Active; 'I' for Inactive)
REMARK    1  A    between atoms: _5  and  _11
REMARK    2  A    between atoms: _19  and  _21
REMARK    3  A    between atoms: _22  and  _66
REMARK    4  A    between atoms: _27  and  _30
REMARK    5  A    between atoms: _32  and  _33
REMARK    6  A    between atoms: _38  and  _43
REMARK    7  A    between atoms: _43  and  _46
REMARK    8  A    between atoms: _53  and  _55
REMARK                            x       y       z     vdW  Elec       q    Type
REMARK                         _______ _______ _______ _____ _____    ______ ____
ROOT
ATOM     10  C   UNL     1     -25.514 -19.302 -24.646  0.00  0.00    +0.038 A 
ATOM     11  C   UNL     1     -26.808 -18.806 -24.945  0.00  0.00    +0.047 A 
ATOM     12  C   UNL     1     -27.261 -18.664 -26.321  0.00  0.00    +0.035 A 
ATOM     32  C   UNL     1     -26.369 -19.040 -27.367  0.00  0.00    +0.024 A 
ATOM     33  C   UNL     1     -25.049 -19.545 -27.081  0.00  0.00    +0.007 A 
ATOM     34  C   UNL     1     -24.597 -19.685 -25.727  0.00  0.00    -0.029 A 
ATOM     35  C   UNL     1     -23.169 -20.226 -25.479  0.00  0.00    +0.045 C 
ENDROOT
BRANCH  10   9
ATOM      4  C   UNL     1     -25.079 -21.796 -20.568  0.00  0.00    +0.077 A 
ATOM      5  C   UNL     1     -25.690 -22.959 -21.145  0.00  0.00    +0.048 A 
ATOM      6  C   UNL     1     -26.109 -22.872 -22.492  0.00  0.00    +0.116 A 
ATOM      7  N   UNL     1     -25.925 -21.704 -23.199  0.00  0.00    -0.223 NA
ATOM      8  C   UNL     1     -25.333 -20.600 -22.613  0.00  0.00    +0.220 A 
ATOM      9  N   UNL     1     -25.131 -19.418 -23.308  0.00  0.00    -0.283 N 
ATOM     36  H   UNL     1     -24.698 -18.623 -22.837  0.00  0.00    +0.155 HD
ATOM     37  N   UNL     1     -24.926 -20.657 -21.328  0.00  0.00    -0.214 NA
BRANCH   4   3
ATOM      1  C   UNL     1     -22.865 -21.108 -17.418  0.00  0.00    +0.020 A 
ATOM      2  C   UNL     1     -23.299 -21.144 -18.795  0.00  0.00    +0.013 A 
ATOM      3  C   UNL     1     -24.581 -21.733 -19.158  0.00  0.00    +0.019 A 
ATOM     38  C   UNL     1     -25.408 -22.282 -18.093  0.00  0.00    +0.120 A 
ATOM     39  N   UNL     1     -24.964 -22.235 -16.776  0.00  0.00    -0.263 NA
ATOM     40  C   UNL     1     -23.731 -21.671 -16.415  0.00  0.00    +0.111 A 
ENDBRANCH   4   3
ENDBRANCH  10   9
BRANCH  12  13
ATOM     13  N   UNL     1     -28.561 -18.159 -26.685  0.00  0.00    -0.281 N 
ATOM     14  C   UNL     1     -29.665 -18.878 -27.113  0.00  0.00    +0.248 C 
ATOM     30  O   UNL     1     -29.636 -20.052 -27.452  0.00  0.00    -0.270 OA
ATOM     31  H   UNL     1     -28.682 -17.148 -26.621  0.00  0.00    +0.155 HD
BRANCH  14  15
ATOM     15  C   UNL     1     -30.990 -18.191 -27.188  0.00  0.00    +0.037 A 
ATOM     16  C   UNL     1     -31.097 -16.734 -27.075  0.00  0.00    +0.013 A 
ATOM     17  C   UNL     1     -32.389 -16.097 -27.134  0.00  0.00    +0.005 A 
ATOM     18  C   UNL     1     -33.585 -16.919 -27.307  0.00  0.00    -0.033 A 
ATOM     28  C   UNL     1     -33.449 -18.361 -27.421  0.00  0.00    +0.005 A 
ATOM     29  C   UNL     1     -32.185 -18.989 -27.363  0.00  0.00    +0.013 A 
BRANCH  18  19
ATOM     19  C   UNL     1     -35.006 -16.327 -27.359  0.00  0.00    +0.119 C 
BRANCH  19  20
ATOM     20  N   UNL     1     -35.998 -17.006 -28.245  0.00  0.00    -0.302 NA
ATOM     21  C   UNL     1     -36.253 -16.217 -29.532  0.00  0.00    +0.066 C 
ATOM     22  C   UNL     1     -37.275 -16.952 -30.458  0.00  0.00    -0.064 C 
ATOM     23  N   UNL     1     -38.581 -17.177 -29.693  0.00  0.00    +0.379 N 
ATOM     24  C   UNL     1     -39.564 -17.817 -30.579  0.00  0.00    -0.096 C 
ATOM     25  H   UNL     1     -38.982 -16.177 -29.408  0.00  0.00    -0.082 HD
ATOM     26  C   UNL     1     -38.336 -17.959 -28.410  0.00  0.00    -0.064 C 
ATOM     27  C   UNL     1     -37.296 -17.234 -27.511  0.00  0.00    +0.066 C 
ENDBRANCH  19  20
ENDBRANCH  18  19
ENDBRANCH  14  15
ENDBRANCH  12  13
TORSDOF 6
ENDMDL
MODEL 4
REMARK VINA RESULT:      -8.9     23.886     28.678
REMARK  Name = C:\Users\Docking\Desktop\test protocol\1iep_ligandH.pdb
REMARK  8 active torsions:
REMARK  status: ('A' for Active; 'I' for Inactive)
REMARK    1  A    between atoms: _5  and  _11
REMARK    2  A    between atoms: _19  and  _21
REMARK    3  A    between atoms: _22  and  _66
REMARK    4  A    between atoms: _27  and  _30
REMARK    5  A    between atoms: _32  and  _33
REMARK    6  A    between atoms: _38  and  _43
REMARK    7  A    between atoms: _43  and  _46
REMARK    8  A    between atoms: _53  and  _55
REMARK                            x       y       z     vdW  Elec       q    Type
REMARK                         _______ _______ _______ _____ _____    ______ ____
ROOT
ATOM     10  C   UNL     1     -32.259 -34.361 -49.934  0.00  0.00    +0.038 A 
ATOM     11  C   UNL     1     -33.452 -35.117 -49.801  0.00  0.00    +0.047 A 
ATOM     12  C   UNL     1     -34.053 -35.351 -48.497  0.00  0.00    +0.035 A 
ATOM     32  C   UNL     1     -33.413 -34.798 -47.349  0.00  0.00    +0.024 A 
ATOM     33  C   UNL     1     -32.200 -34.028 -47.467  0.00  0.00    +0.007 A 
ATOM     34  C   UNL     1     -31.601 -33.796 -48.750  0.00  0.00    -0.029 A 
ATOM     35  C   UNL     1     -30.296 -32.969 -48.816  0.00  0.00    +0.045 C 
ENDROOT
BRANCH  10   9
ATOM      4  C   UNL     1     -32.122 -32.100 -54.165  0.00  0.00    +0.077 A 
ATOM      5  C   UNL     1     -33.223 -31.250 -53.814  0.00  0.00    +0.048 A 
ATOM      6  C   UNL     1     -33.801 -31.432 -52.537  0.00  0.00    +0.116 A 
ATOM      7  N   UNL     1     -33.307 -32.394 -51.684  0.00  0.00    -0.223 NA
ATOM      8  C   UNL     1     -32.245 -33.199 -52.055  0.00  0.00    +0.220 A 
ATOM      9  N   UNL     1     -31.726 -34.168 -51.210  0.00  0.00    -0.283 N 
ATOM     36  H   UNL     1     -30.947 -34.746 -51.524  0.00  0.00    +0.155 HD
ATOM     37  N   UNL     1     -31.676 -33.046 -53.269  0.00  0.00    -0.214 NA
BRANCH   4   3
ATOM      1  C   UNL     1     -29.599 -31.123 -56.991  0.00  0.00    +0.020 A 
ATOM      2  C   UNL     1     -30.258 -31.155 -55.705  0.00  0.00    +0.013 A 
ATOM      3  C   UNL     1     -31.403 -32.027 -55.477  0.00  0.00    +0.019 A 
ATOM     38  C   UNL     1     -31.860 -32.861 -56.578  0.00  0.00    +0.120 A 
ATOM     39  N   UNL     1     -31.207 -32.808 -57.806  0.00  0.00    -0.263 NA
ATOM     40  C   UNL     1     -30.105 -31.971 -58.038  0.00  0.00    +0.111 A 
ENDBRANCH   4   3
ENDBRANCH  10   9
BRANCH  12  13
ATOM     13  N   UNL     1     -35.258 -36.117 -48.298  0.00  0.00    -0.281 N 
ATOM     14  C   UNL     1     -35.386 -37.492 -48.190  0.00  0.00    +0.248 C 
ATOM     30  O   UNL     1     -34.502 -38.291 -48.462  0.00  0.00    -0.270 OA
ATOM     31  H   UNL     1     -36.123 -35.580 -48.230  0.00  0.00    +0.155 HD
BRANCH  14  15
ATOM     15  C   UNL     1     -36.687 -38.062 -47.726  0.00  0.00    +0.037 A 
ATOM     16  C   UNL     1     -37.739 -38.427 -48.678  0.00  0.00    +0.013 A 
ATOM     17  C   UNL     1     -38.992 -38.959 -48.203  0.00  0.00    +0.005 A 
ATOM     18  C   UNL     1     -39.198 -39.131 -46.767  0.00  0.00    -0.033 A 
ATOM     28  C   UNL     1     -38.135 -38.766 -45.845  0.00  0.00    +0.005 A 
ATOM     29  C   UNL     1     -36.907 -38.243 -46.307  0.00  0.00    +0.013 A 
BRANCH  18  19
ATOM     19  C   UNL     1     -40.510 -39.673 -46.169  0.00  0.00    +0.119 C 
BRANCH  19  20
ATOM     20  N   UNL     1     -41.374 -38.706 -45.429  0.00  0.00    -0.302 NA
ATOM     21  C   UNL     1     -41.328 -37.305 -46.046  0.00  0.00    +0.066 C 
ATOM     22  C   UNL     1     -42.255 -36.311 -45.272  0.00  0.00    -0.064 C 
ATOM     23  N   UNL     1     -41.837 -36.269 -43.801  0.00  0.00    +0.379 N 
ATOM     24  C   UNL     1     -42.669 -35.293 -43.082  0.00  0.00    -0.096 C 
ATOM     25  H   UNL     1     -40.783 -35.911 -43.759  0.00  0.00    -0.082 HD
ATOM     26  C   UNL     1     -41.877 -37.659 -43.180  0.00  0.00    -0.064 C 
ATOM     27  C   UNL     1     -40.976 -38.645 -43.974  0.00  0.00    +0.066 C 
ENDBRANCH  19  20
ENDBRANCH  18  19
ENDBRANCH  14  15
ENDBRANCH  12  13
TORSDOF 6
ENDMDL
MODEL 5
REMARK VINA RESULT:      -8.7     16.036     22.803
REMARK  Name = C:\Users\Docking\Desktop\test protocol\1iep_ligandH.pdb
REMARK  8 active torsions:
REMARK  status: ('A' for Active; 'I' for Inactive)
REMARK    1  A    between atoms: _5  and  _11
REMARK    2  A    between atoms: _19  and  _21
REMARK    3  A    between atoms: _22  and  _66
REMARK    4  A    between atoms: _27  and  _30
REMARK    5  A    between atoms: _32  and  _33
REMARK    6  A    between atoms: _38  and  _43
REMARK    7  A    between atoms: _43  and  _46
REMARK    8  A    between atoms: _53  and  _55
REMARK                            x       y       z     vdW  Elec       q    Type
REMARK                         _______ _______ _______ _____ _____    ______ ____
ROOT
ATOM     10  C   UNL     1     -44.464 -34.453 -37.656  0.00  0.00    +0.038 A 
ATOM     11  C   UNL     1     -43.901 -34.978 -38.847  0.00  0.00    +0.047 A 
ATOM     12  C   UNL     1     -44.564 -36.039 -39.589  0.00  0.00    +0.035 A 
ATOM     32  C   UNL     1     -45.801 -36.541 -39.090  0.00  0.00    +0.024 A 
ATOM     33  C   UNL     1     -46.388 -36.020 -37.881  0.00  0.00    +0.007 A 
ATOM     34  C   UNL     1     -45.737 -34.975 -37.143  0.00  0.00    -0.029 A 
ATOM     35  C   UNL     1     -46.409 -34.459 -35.849  0.00  0.00    +0.045 C 
ENDROOT
BRANCH  10   9
ATOM      4  C   UNL     1     -43.632 -29.819 -36.726  0.00  0.00    +0.077 A 
ATOM      5  C   UNL     1     -44.615 -29.390 -37.679  0.00  0.00    +0.048 A 
ATOM      6  C   UNL     1     -45.308 -30.393 -38.393  0.00  0.00    +0.116 A 
ATOM      7  N   UNL     1     -45.030 -31.723 -38.162  0.00  0.00    -0.223 NA
ATOM      8  C   UNL     1     -44.075 -32.103 -37.237  0.00  0.00    +0.220 A 
ATOM      9  N   UNL     1     -43.785 -33.435 -36.984  0.00  0.00    -0.283 N 
ATOM     36  H   UNL     1     -43.069 -33.673 -36.299  0.00  0.00    +0.155 HD
ATOM     37  N   UNL     1     -43.399 -31.164 -36.544  0.00  0.00    -0.214 NA
BRANCH   4   3
ATOM      1  C   UNL     1     -41.722 -28.187 -33.727  0.00  0.00    +0.020 A 
ATOM      2  C   UNL     1     -42.511 -29.128 -34.489  0.00  0.00    +0.013 A 
ATOM      3  C   UNL     1     -42.820 -28.878 -35.891  0.00  0.00    +0.019 A 
ATOM     38  C   UNL     1     -42.311 -27.657 -36.498  0.00  0.00    +0.120 A 
ATOM     39  N   UNL     1     -41.555 -26.769 -35.739  0.00  0.00    -0.263 NA
ATOM     40  C   UNL     1     -41.253 -26.998 -34.389  0.00  0.00    +0.111 A 
ENDBRANCH   4   3
ENDBRANCH  10   9
BRANCH  12  13
ATOM     13  N   UNL     1     -44.036 -36.617 -40.800  0.00  0.00    -0.281 N 
ATOM     14  C   UNL     1     -43.516 -35.958 -41.902  0.00  0.00    +0.248 C 
ATOM     30  O   UNL     1     -43.624 -34.758 -42.104  0.00  0.00    -0.270 OA
ATOM     31  H   UNL     1     -44.046 -37.636 -40.851  0.00  0.00    +0.155 HD
BRANCH  14  15
ATOM     15  C   UNL     1     -42.784 -36.749 -42.938  0.00  0.00    +0.037 A 
ATOM     16  C   UNL     1     -42.750 -36.320 -44.338  0.00  0.00    +0.013 A 
ATOM     17  C   UNL     1     -42.050 -37.111 -45.320  0.00  0.00    +0.005 A 
ATOM     18  C   UNL     1     -41.377 -38.338 -44.903  0.00  0.00    -0.033 A 
ATOM     28  C   UNL     1     -41.422 -38.737 -43.506  0.00  0.00    +0.005 A 
ATOM     29  C   UNL     1     -42.107 -37.966 -42.541  0.00  0.00    +0.013 A 
BRANCH  18  19
ATOM     19  C   UNL     1     -40.624 -39.254 -45.886  0.00  0.00    +0.119 C 
BRANCH  19  20
ATOM     20  N   UNL     1     -39.368 -38.720 -46.493  0.00  0.00    -0.302 NA
ATOM     21  C   UNL     1     -39.177 -39.202 -47.934  0.00  0.00    +0.066 C 
ATOM     22  C   UNL     1     -37.871 -38.616 -48.562  0.00  0.00    -0.064 C 
ATOM     23  N   UNL     1     -36.672 -39.009 -47.696  0.00  0.00    +0.379 N 
ATOM     24  C   UNL     1     -35.436 -38.509 -48.314  0.00  0.00    -0.096 C 
ATOM     25  H   UNL     1     -36.616 -40.122 -47.680  0.00  0.00    -0.082 HD
ATOM     26  C   UNL     1     -36.855 -38.536 -46.261  0.00  0.00    -0.064 C 
ATOM     27  C   UNL     1     -38.171 -39.100 -45.656  0.00  0.00    +0.066 C 
ENDBRANCH  19  20
ENDBRANCH  18  19
ENDBRANCH  14  15
ENDBRANCH  12  13
TORSDOF 6
ENDMDL
