MODEL 1
REMARK VINA RESULT:      -5.8      0.000      0.000
REMARK  4 active torsions:
REMARK  status: ('A' for Active; 'I' for Inactive)
REMARK    1  A    between atoms: N_2  and  C_4 
REMARK    2  A    between atoms: N_3  and  C_12 
REMARK    3  A    between atoms: C_4  and  C_11 
REMARK    4  A    between atoms: C_11  and  C_12 
ROOT
HETATM    1 Cl   UNK     0      19.048  62.878  34.410  0.00  0.00    -0.084 Cl
HETATM    2  N   UNK     0      18.394  67.985  34.516  0.00  0.00    -0.346 N 
HETATM    3  C   UNK     0      18.099  66.770  33.836  0.00  0.00     0.042 A 
HETATM    4  C   UNK     0      18.529  69.286  33.967  0.00  0.00     0.041 A 
HETATM    5  C   UNK     0      16.706  67.852  31.911  0.00  0.00     0.045 C 
HETATM    6  C   UNK     0      16.323  69.046  32.771  0.00  0.00     0.045 C 
HETATM    7  C   UNK     0      17.361  66.692  32.629  0.00  0.00    -0.031 A 
HETATM    8  C   UNK     0      17.551  69.836  33.121  0.00  0.00    -0.031 A 
HETATM    9  C   UNK     0      18.604  65.546  34.348  0.00  0.00     0.054 A 
HETATM   10  C   UNK     0      19.658  70.080  34.267  0.00  0.00     0.030 A 
HETATM   11  C   UNK     0      17.193  65.438  31.990  0.00  0.00     0.011 A 
HETATM   12  C   UNK     0      17.708  71.134  32.603  0.00  0.00     0.009 A 
HETATM   13  C   UNK     0      18.409  64.316  33.714  0.00  0.00     0.036 A 
HETATM   14  C   UNK     0      19.808  71.368  33.748  0.00  0.00     0.002 A 
HETATM   15  C   UNK     0      17.705  64.262  32.527  0.00  0.00     0.024 A 
HETATM   16  C   UNK     0      18.831  71.895  32.916  0.00  0.00     0.001 A 
ENDROOT
BRANCH   2  17
HETATM   17  C   UNK     0      18.758  67.899  35.939  0.00  0.00     0.131 C 
BRANCH  17  18
HETATM   18  C   UNK     0      17.607  68.377  36.822  0.00  0.00     0.050 C 
BRANCH  18  19
HETATM   19  C   UNK     0      17.994  69.444  37.851  0.00  0.00     0.273 C 
BRANCH  19  20
HETATM   20  N   UNK     0      17.810  70.793  37.333  0.00  0.00     0.080 N 
HETATM   21  C   UNK     0      17.887  71.777  38.415  0.00  0.00     0.309 C 
HETATM   22  C   UNK     0      16.527  70.908  36.636  0.00  0.00     0.309 C 
ENDBRANCH  19  20
ENDBRANCH  18  19
ENDBRANCH  17  18
ENDBRANCH   2  17
TORSDOF 4
ENDMDL
MODEL 2
REMARK VINA RESULT:      -5.7     11.024     13.810
REMARK  4 active torsions:
REMARK  status: ('A' for Active; 'I' for Inactive)
REMARK    1  A    between atoms: N_2  and  C_4 
REMARK    2  A    between atoms: N_3  and  C_12 
REMARK    3  A    between atoms: C_4  and  C_11 
REMARK    4  A    between atoms: C_11  and  C_12 
ROOT
HETATM    1 Cl   UNK     0      19.600  69.196  25.482  0.00  0.00    -0.084 Cl
HETATM    2  N   UNK     0      17.295  66.600  21.678  0.00  0.00    -0.346 N 
HETATM    3  C   UNK     0      17.237  66.993  23.044  0.00  0.00     0.042 A 
HETATM    4  C   UNK     0      16.791  65.415  21.084  0.00  0.00     0.041 A 
HETATM    5  C   UNK     0      15.020  65.733  23.608  0.00  0.00     0.045 C 
HETATM    6  C   UNK     0      14.545  65.790  22.166  0.00  0.00     0.045 C 
HETATM    7  C   UNK     0      16.228  66.580  23.949  0.00  0.00    -0.031 A 
HETATM    8  C   UNK     0      15.468  64.989  21.293  0.00  0.00    -0.031 A 
HETATM    9  C   UNK     0      18.268  67.810  23.577  0.00  0.00     0.054 A 
HETATM   10  C   UNK     0      17.609  64.625  20.247  0.00  0.00     0.030 A 
HETATM   11  C   UNK     0      16.308  66.963  25.311  0.00  0.00     0.011 A 
HETATM   12  C   UNK     0      14.994  63.816  20.679  0.00  0.00     0.009 A 
HETATM   13  C   UNK     0      18.318  68.195  24.920  0.00  0.00     0.036 A 
HETATM   14  C   UNK     0      17.132  63.461  19.642  0.00  0.00     0.002 A 
HETATM   15  C   UNK     0      17.337  67.765  25.792  0.00  0.00     0.024 A 
HETATM   16  C   UNK     0      15.822  63.056  19.858  0.00  0.00     0.001 A 
ENDROOT
BRANCH   2  17
HETATM   17  C   UNK     0      18.099  67.427  20.764  0.00  0.00     0.131 C 
BRANCH  17  18
HETATM   18  C   UNK     0      17.227  68.469  20.066  0.00  0.00     0.050 C 
BRANCH  18  19
HETATM   19  C   UNK     0      17.999  69.478  19.211  0.00  0.00     0.273 C 
BRANCH  19  20
HETATM   20  N   UNK     0      17.190  70.644  18.879  0.00  0.00     0.080 N 
HETATM   21  C   UNK     0      16.802  71.366  20.093  0.00  0.00     0.309 C 
HETATM   22  C   UNK     0      15.999  70.248  18.124  0.00  0.00     0.309 C 
ENDBRANCH  19  20
ENDBRANCH  18  19
ENDBRANCH  17  18
ENDBRANCH   2  17
TORSDOF 4
ENDMDL
MODEL 3
REMARK VINA RESULT:      -5.6     14.525     17.252
REMARK  4 active torsions:
REMARK  status: ('A' for Active; 'I' for Inactive)
REMARK    1  A    between atoms: N_2  and  C_4 
REMARK    2  A    between atoms: N_3  and  C_12 
REMARK    3  A    between atoms: C_4  and  C_11 
REMARK    4  A    between atoms: C_11  and  C_12 
ROOT
HETATM    1 Cl   UNK     0      24.324  51.636  46.681  0.00  0.00    -0.084 Cl
HETATM    2  N   UNK     0      24.400  55.299  43.062  0.00  0.00    -0.346 N 
HETATM    3  C   UNK     0      24.329  55.016  44.454  0.00  0.00     0.042 A 
HETATM    4  C   UNK     0      23.828  56.390  42.358  0.00  0.00     0.041 A 
HETATM    5  C   UNK     0      24.118  57.498  45.239  0.00  0.00     0.045 C 
HETATM    6  C   UNK     0      24.831  58.017  44.001  0.00  0.00     0.045 C 
HETATM    7  C   UNK     0      24.165  56.000  45.459  0.00  0.00    -0.031 A 
HETATM    8  C   UNK     0      24.013  57.718  42.779  0.00  0.00    -0.031 A 
HETATM    9  C   UNK     0      24.372  53.666  44.893  0.00  0.00     0.054 A 
HETATM   10  C   UNK     0      23.056  56.172  41.196  0.00  0.00     0.030 A 
HETATM   11  C   UNK     0      24.024  55.604  46.813  0.00  0.00     0.011 A 
HETATM   12  C   UNK     0      23.444  58.780  42.052  0.00  0.00     0.009 A 
HETATM   13  C   UNK     0      24.252  53.297  46.235  0.00  0.00     0.036 A 
HETATM   14  C   UNK     0      22.493  57.230  40.480  0.00  0.00     0.002 A 
HETATM   15  C   UNK     0      24.072  54.269  47.199  0.00  0.00     0.024 A 
HETATM   16  C   UNK     0      22.687  58.536  40.909  0.00  0.00     0.001 A 
ENDROOT
BRANCH   2  17
HETATM   17  C   UNK     0      25.005  54.280  42.189  0.00  0.00     0.131 C 
BRANCH  17  18
HETATM   18  C   UNK     0      26.342  54.768  41.633  0.00  0.00     0.050 C 
BRANCH  18  19
HETATM   19  C   UNK     0      26.631  54.334  40.193  0.00  0.00     0.273 C 
BRANCH  19  20
HETATM   20  N   UNK     0      26.496  55.440  39.253  0.00  0.00     0.080 N 
HETATM   21  C   UNK     0      26.560  56.724  39.954  0.00  0.00     0.309 C 
HETATM   22  C   UNK     0      25.241  55.333  38.506  0.00  0.00     0.309 C 
ENDBRANCH  19  20
ENDBRANCH  18  19
ENDBRANCH  17  18
ENDBRANCH   2  17
TORSDOF 4
ENDMDL
