MODEL 1
REMARK VINA RESULT:      -5.8      0.000      0.000
REMARK  4 active torsions:
REMARK  status: ('A' for Active; 'I' for Inactive)
REMARK    1  A    between atoms: N_2  and  C_4 
REMARK    2  A    between atoms: N_3  and  C_12 
REMARK    3  A    between atoms: C_4  and  C_11 
REMARK    4  A    between atoms: C_11  and  C_12 
ROOT
HETATM    1 Cl   UNK     0      39.573  16.603  19.751  0.00  0.00    -0.084 Cl
HETATM    2  N   UNK     0      34.858  14.552  20.032  0.00  0.00    -0.346 N 
HETATM    3  C   UNK     0      35.626  15.710  19.727  0.00  0.00     0.042 A 
HETATM    4  C   UNK     0      33.540  14.485  20.552  0.00  0.00     0.041 A 
HETATM    5  C   UNK     0      33.598  17.255  19.161  0.00  0.00     0.045 C 
HETATM    6  C   UNK     0      32.724  16.074  18.773  0.00  0.00     0.045 C 
HETATM    7  C   UNK     0      35.070  16.961  19.363  0.00  0.00    -0.031 A 
HETATM    8  C   UNK     0      32.481  15.204  19.972  0.00  0.00    -0.031 A 
HETATM    9  C   UNK     0      37.041  15.655  19.835  0.00  0.00     0.054 A 
HETATM   10  C   UNK     0      33.248  13.678  21.673  0.00  0.00     0.030 A 
HETATM   11  C   UNK     0      35.922  18.075  19.158  0.00  0.00     0.011 A 
HETATM   12  C   UNK     0      31.182  15.107  20.503  0.00  0.00     0.009 A 
HETATM   13  C   UNK     0      37.866  16.760  19.609  0.00  0.00     0.036 A 
HETATM   14  C   UNK     0      31.956  13.587  22.195  0.00  0.00     0.002 A 
HETATM   15  C   UNK     0      37.304  17.977  19.274  0.00  0.00     0.024 A 
HETATM   16  C   UNK     0      30.922  14.303  21.609  0.00  0.00     0.001 A 
ENDROOT
BRANCH   2  17
HETATM   17  C   UNK     0      35.533  13.246  19.954  0.00  0.00     0.131 C 
BRANCH  17  18
HETATM   18  C   UNK     0      34.937  12.395  18.834  0.00  0.00     0.050 C 
BRANCH  18  19
HETATM   19  C   UNK     0      34.980  13.045  17.448  0.00  0.00     0.273 C 
BRANCH  19  20
HETATM   20  N   UNK     0      33.839  12.656  16.628  0.00  0.00     0.080 N 
HETATM   21  C   UNK     0      32.628  12.553  17.445  0.00  0.00     0.309 C 
HETATM   22  C   UNK     0      34.101  11.386  15.948  0.00  0.00     0.309 C 
ENDBRANCH  19  20
ENDBRANCH  18  19
ENDBRANCH  17  18
ENDBRANCH   2  17
TORSDOF 4
ENDMDL
MODEL 2
REMARK VINA RESULT:      -5.8     23.021     25.187
REMARK  4 active torsions:
REMARK  status: ('A' for Active; 'I' for Inactive)
REMARK    1  A    between atoms: N_2  and  C_4 
REMARK    2  A    between atoms: N_3  and  C_12 
REMARK    3  A    between atoms: C_4  and  C_11 
REMARK    4  A    between atoms: C_11  and  C_12 
ROOT
HETATM    1 Cl   UNK     0      15.587  32.058  26.439  0.00  0.00    -0.084 Cl
HETATM    2  N   UNK     0      14.787  30.013  21.782  0.00  0.00    -0.346 N 
HETATM    3  C   UNK     0      14.558  31.126  22.638  0.00  0.00     0.042 A 
HETATM    4  C   UNK     0      13.952  29.515  20.748  0.00  0.00     0.041 A 
HETATM    5  C   UNK     0      13.107  32.490  20.949  0.00  0.00     0.045 C 
HETATM    6  C   UNK     0      13.757  31.821  19.750  0.00  0.00     0.045 C 
HETATM    7  C   UNK     0      13.766  32.248  22.291  0.00  0.00    -0.031 A 
HETATM    8  C   UNK     0      13.435  30.355  19.748  0.00  0.00    -0.031 A 
HETATM    9  C   UNK     0      15.102  31.118  23.949  0.00  0.00     0.054 A 
HETATM   10  C   UNK     0      13.621  28.143  20.689  0.00  0.00     0.030 A 
HETATM   11  C   UNK     0      13.535  33.267  23.249  0.00  0.00     0.011 A 
HETATM   12  C   UNK     0      12.620  29.829  18.729  0.00  0.00     0.009 A 
HETATM   13  C   UNK     0      14.880  32.143  24.873  0.00  0.00     0.036 A 
HETATM   14  C   UNK     0      12.810  27.628  19.676  0.00  0.00     0.002 A 
HETATM   15  C   UNK     0      14.088  33.219  24.523  0.00  0.00     0.024 A 
HETATM   16  C   UNK     0      12.310  28.472  18.694  0.00  0.00     0.001 A 
ENDROOT
BRANCH   2  17
HETATM   17  C   UNK     0      15.950  29.158  22.070  0.00  0.00     0.131 C 
BRANCH  17  18
HETATM   18  C   UNK     0      17.040  29.355  21.019  0.00  0.00     0.050 C 
BRANCH  18  19
HETATM   19  C   UNK     0      18.137  28.286  21.030  0.00  0.00     0.273 C 
BRANCH  19  20
HETATM   20  N   UNK     0      18.237  27.593  19.752  0.00  0.00     0.080 N 
HETATM   21  C   UNK     0      19.557  27.800  19.154  0.00  0.00     0.309 C 
HETATM   22  C   UNK     0      17.190  28.049  18.835  0.00  0.00     0.309 C 
ENDBRANCH  19  20
ENDBRANCH  18  19
ENDBRANCH  17  18
ENDBRANCH   2  17
TORSDOF 4
ENDMDL
MODEL 3
REMARK VINA RESULT:      -5.8     33.569     35.645
REMARK  4 active torsions:
REMARK  status: ('A' for Active; 'I' for Inactive)
REMARK    1  A    between atoms: N_2  and  C_4 
REMARK    2  A    between atoms: N_3  and  C_12 
REMARK    3  A    between atoms: C_4  and  C_11 
REMARK    4  A    between atoms: C_11  and  C_12 
ROOT
HETATM    1 Cl   UNK     0       8.337  32.336   3.025  0.00  0.00    -0.084 Cl
HETATM    2  N   UNK     0      12.349  35.325   1.808  0.00  0.00    -0.346 N 
HETATM    3  C   UNK     0      11.506  34.256   1.397  0.00  0.00     0.042 A 
HETATM    4  C   UNK     0      13.716  35.536   1.490  0.00  0.00     0.041 A 
HETATM    5  C   UNK     0      12.716  33.794  -0.870  0.00  0.00     0.045 C 
HETATM    6  C   UNK     0      13.228  35.222  -0.962  0.00  0.00     0.045 C 
HETATM    7  C   UNK     0      11.677  33.523   0.197  0.00  0.00    -0.031 A 
HETATM    8  C   UNK     0      14.181  35.495   0.165  0.00  0.00    -0.031 A 
HETATM    9  C   UNK     0      10.445  33.841   2.245  0.00  0.00     0.054 A 
HETATM   10  C   UNK     0      14.658  35.806   2.508  0.00  0.00     0.030 A 
HETATM   11  C   UNK     0      10.828  32.422  -0.079  0.00  0.00     0.011 A 
HETATM   12  C   UNK     0      15.540  35.721  -0.119  0.00  0.00     0.009 A 
HETATM   13  C   UNK     0       9.605  32.766   1.945  0.00  0.00     0.036 A 
HETATM   14  C   UNK     0      16.006  36.028   2.219  0.00  0.00     0.002 A 
HETATM   15  C   UNK     0       9.801  32.049   0.781  0.00  0.00     0.024 A 
HETATM   16  C   UNK     0      16.447  35.986   0.904  0.00  0.00     0.001 A 
ENDROOT
BRANCH   2  17
HETATM   17  C   UNK     0      11.819  36.268   2.806  0.00  0.00     0.131 C 
BRANCH  17  18
HETATM   18  C   UNK     0      11.070  37.413   2.125  0.00  0.00     0.050 C 
BRANCH  18  19
HETATM   19  C   UNK     0      11.963  38.556   1.634  0.00  0.00     0.273 C 
BRANCH  19  20
HETATM   20  N   UNK     0      12.898  38.997   2.662  0.00  0.00     0.080 N 
HETATM   21  C   UNK     0      12.298  40.045   3.490  0.00  0.00     0.309 C 
HETATM   22  C   UNK     0      14.141  39.479   2.057  0.00  0.00     0.309 C 
ENDBRANCH  19  20
ENDBRANCH  18  19
ENDBRANCH  17  18
ENDBRANCH   2  17
TORSDOF 4
ENDMDL
