MODEL 1
REMARK VINA RESULT:      -6.7      0.000      0.000
REMARK  4 active torsions:
REMARK  status: ('A' for Active; 'I' for Inactive)
REMARK    1  A    between atoms: N_2  and  C_4 
REMARK    2  A    between atoms: N_3  and  C_12 
REMARK    3  A    between atoms: C_4  and  C_11 
REMARK    4  A    between atoms: C_11  and  C_12 
ROOT
HETATM    1 Cl   UNK     0     -36.457 -11.435  28.588  0.00  0.00    -0.084 Cl
HETATM    2  N   UNK     0     -37.166  -9.386  23.918  0.00  0.00    -0.346 N 
HETATM    3  C   UNK     0     -37.127 -10.580  24.689  0.00  0.00     0.042 A 
HETATM    4  C   UNK     0     -36.829  -9.214  22.550  0.00  0.00     0.041 A 
HETATM    5  C   UNK     0     -37.584 -12.217  22.707  0.00  0.00     0.045 C 
HETATM    6  C   UNK     0     -38.312 -11.149  21.908  0.00  0.00     0.045 C 
HETATM    7  C   UNK     0     -37.280 -11.882  24.152  0.00  0.00    -0.031 A 
HETATM    8  C   UNK     0     -37.361 -10.044  21.549  0.00  0.00    -0.031 A 
HETATM    9  C   UNK     0     -36.871 -10.499  26.084  0.00  0.00     0.054 A 
HETATM   10  C   UNK     0     -35.946  -8.187  22.150  0.00  0.00     0.030 A 
HETATM   11  C   UNK     0     -37.143 -13.011  24.997  0.00  0.00     0.011 A 
HETATM   12  C   UNK     0     -37.018  -9.840  20.200  0.00  0.00     0.009 A 
HETATM   13  C   UNK     0     -36.760 -11.624  26.905  0.00  0.00     0.036 A 
HETATM   14  C   UNK     0     -35.608  -7.991  20.810  0.00  0.00     0.002 A 
HETATM   15  C   UNK     0     -36.891 -12.886  26.359  0.00  0.00     0.024 A 
HETATM   16  C   UNK     0     -36.145  -8.819  19.833  0.00  0.00     0.001 A 
ENDROOT
BRANCH   2  17
HETATM   17  C   UNK     0     -37.441  -8.125  24.625  0.00  0.00     0.131 C 
BRANCH  17  18
HETATM   18  C   UNK     0     -38.922  -7.763  24.530  0.00  0.00     0.050 C 
BRANCH  18  19
HETATM   19  C   UNK     0     -39.777  -8.261  25.699  0.00  0.00     0.273 C 
BRANCH  19  20
HETATM   20  N   UNK     0     -40.820  -9.178  25.260  0.00  0.00     0.080 N 
HETATM   21  C   UNK     0     -40.615 -10.509  25.835  0.00  0.00     0.309 C 
HETATM   22  C   UNK     0     -40.855  -9.258  23.798  0.00  0.00     0.309 C 
ENDBRANCH  19  20
ENDBRANCH  18  19
ENDBRANCH  17  18
ENDBRANCH   2  17
TORSDOF 4
ENDMDL
MODEL 2
REMARK VINA RESULT:      -6.7      1.285      1.742
REMARK  4 active torsions:
REMARK  status: ('A' for Active; 'I' for Inactive)
REMARK    1  A    between atoms: N_2  and  C_4 
REMARK    2  A    between atoms: N_3  and  C_12 
REMARK    3  A    between atoms: C_4  and  C_11 
REMARK    4  A    between atoms: C_11  and  C_12 
ROOT
HETATM    1 Cl   UNK     0     -36.445 -11.609  28.571  0.00  0.00    -0.084 Cl
HETATM    2  N   UNK     0     -37.164  -9.431  23.961  0.00  0.00    -0.346 N 
HETATM    3  C   UNK     0     -37.126 -10.646  24.700  0.00  0.00     0.042 A 
HETATM    4  C   UNK     0     -36.831  -9.223  22.597  0.00  0.00     0.041 A 
HETATM    5  C   UNK     0     -37.597 -12.226  22.675  0.00  0.00     0.045 C 
HETATM    6  C   UNK     0     -38.325 -11.133  21.909  0.00  0.00     0.045 C 
HETATM    7  C   UNK     0     -37.286 -11.931  24.127  0.00  0.00    -0.031 A 
HETATM    8  C   UNK     0     -37.371 -10.023  21.576  0.00  0.00    -0.031 A 
HETATM    9  C   UNK     0     -36.864 -10.604  26.095  0.00  0.00     0.054 A 
HETATM   10  C   UNK     0     -35.946  -8.189  22.222  0.00  0.00     0.030 A 
HETATM   11  C   UNK     0     -37.151 -13.084  24.941  0.00  0.00     0.011 A 
HETATM   12  C   UNK     0     -37.032  -9.783  20.232  0.00  0.00     0.009 A 
HETATM   13  C   UNK     0     -36.755 -11.751  26.885  0.00  0.00     0.036 A 
HETATM   14  C   UNK     0     -35.612  -7.958  20.886  0.00  0.00     0.002 A 
HETATM   15  C   UNK     0     -36.893 -12.997  26.305  0.00  0.00     0.024 A 
HETATM   16  C   UNK     0     -36.156  -8.756  19.890  0.00  0.00     0.001 A 
ENDROOT
BRANCH   2  17
HETATM   17  C   UNK     0     -37.430  -8.188  24.703  0.00  0.00     0.131 C 
BRANCH  17  18
HETATM   18  C   UNK     0     -38.899  -7.787  24.577  0.00  0.00     0.050 C 
BRANCH  18  19
HETATM   19  C   UNK     0     -39.173  -6.689  23.545  0.00  0.00     0.273 C 
BRANCH  19  20
HETATM   20  N   UNK     0     -39.908  -7.195  22.393  0.00  0.00     0.080 N 
HETATM   21  C   UNK     0     -39.261  -6.783  21.146  0.00  0.00     0.309 C 
HETATM   22  C   UNK     0     -41.297  -6.730  22.421  0.00  0.00     0.309 C 
ENDBRANCH  19  20
ENDBRANCH  18  19
ENDBRANCH  17  18
ENDBRANCH   2  17
TORSDOF 4
ENDMDL
MODEL 3
REMARK VINA RESULT:      -6.1     26.539     29.327
REMARK  4 active torsions:
REMARK  status: ('A' for Active; 'I' for Inactive)
REMARK    1  A    between atoms: N_2  and  C_4 
REMARK    2  A    between atoms: N_3  and  C_12 
REMARK    3  A    between atoms: C_4  and  C_11 
REMARK    4  A    between atoms: C_11  and  C_12 
ROOT
HETATM    1 Cl   UNK     0     -20.647  12.343  23.148  0.00  0.00    -0.084 Cl
HETATM    2  N   UNK     0     -21.700  14.131  18.435  0.00  0.00    -0.346 N 
HETATM    3  C   UNK     0     -20.715  13.564  19.290  0.00  0.00     0.042 A 
HETATM    4  C   UNK     0     -21.512  15.033  17.356  0.00  0.00     0.041 A 
HETATM    5  C   UNK     0     -18.773  13.594  17.544  0.00  0.00     0.045 C 
HETATM    6  C   UNK     0     -19.739  13.535  16.373  0.00  0.00     0.045 C 
HETATM    7  C   UNK     0     -19.367  13.344  18.915  0.00  0.00    -0.031 A 
HETATM    8  C   UNK     0     -20.576  14.781  16.339  0.00  0.00    -0.031 A 
HETATM    9  C   UNK     0     -21.060  13.234  20.627  0.00  0.00     0.054 A 
HETATM   10  C   UNK     0     -22.276  16.216  17.266  0.00  0.00     0.030 A 
HETATM   11  C   UNK     0     -18.444  12.849  19.870  0.00  0.00     0.011 A 
HETATM   12  C   UNK     0     -20.421  15.688  15.275  0.00  0.00     0.009 A 
HETATM   13  C   UNK     0     -20.141  12.726  21.549  0.00  0.00     0.036 A 
HETATM   14  C   UNK     0     -22.117  17.113  16.208  0.00  0.00     0.002 A 
HETATM   15  C   UNK     0     -18.826  12.538  21.171  0.00  0.00     0.024 A 
HETATM   16  C   UNK     0     -21.188  16.848  15.211  0.00  0.00     0.001 A 
ENDROOT
BRANCH   2  17
HETATM   17  C   UNK     0     -23.113  13.895  18.773  0.00  0.00     0.131 C 
BRANCH  17  18
HETATM   18  C   UNK     0     -23.634  12.638  18.078  0.00  0.00     0.050 C 
BRANCH  18  19
HETATM   19  C   UNK     0     -24.557  11.770  18.939  0.00  0.00     0.273 C 
BRANCH  19  20
HETATM   20  N   UNK     0     -24.232  11.868  20.356  0.00  0.00     0.080 N 
HETATM   21  C   UNK     0     -23.641  10.618  20.839  0.00  0.00     0.309 C 
HETATM   22  C   UNK     0     -25.426  12.198  21.138  0.00  0.00     0.309 C 
ENDBRANCH  19  20
ENDBRANCH  18  19
ENDBRANCH  17  18
ENDBRANCH   2  17
TORSDOF 4
ENDMDL
