MODEL 1
REMARK VINA RESULT:      -6.4      0.000      0.000
REMARK  4 active torsions:
REMARK  status: ('A' for Active; 'I' for Inactive)
REMARK    1  A    between atoms: N_2  and  C_4 
REMARK    2  A    between atoms: N_3  and  C_12 
REMARK    3  A    between atoms: C_4  and  C_11 
REMARK    4  A    between atoms: C_11  and  C_12 
ROOT
HETATM    1 Cl   UNK     0     -37.387 -10.791  28.507  0.00  0.00    -0.084 Cl
HETATM    2  N   UNK     0     -37.790  -8.861  23.750  0.00  0.00    -0.346 N 
HETATM    3  C   UNK     0     -37.863 -10.027  24.561  0.00  0.00     0.042 A 
HETATM    4  C   UNK     0     -37.395  -8.761  22.391  0.00  0.00     0.041 A 
HETATM    5  C   UNK     0     -38.369 -11.695  22.617  0.00  0.00     0.045 C 
HETATM    6  C   UNK     0     -38.992 -10.606  21.759  0.00  0.00     0.045 C 
HETATM    7  C   UNK     0     -38.091 -11.332  24.060  0.00  0.00    -0.031 A 
HETATM    8  C   UNK     0     -37.953  -9.585  21.398  0.00  0.00    -0.031 A 
HETATM    9  C   UNK     0     -37.648  -9.916  25.960  0.00  0.00     0.054 A 
HETATM   10  C   UNK     0     -36.429  -7.813  21.990  0.00  0.00     0.030 A 
HETATM   11  C   UNK     0     -38.064 -12.438  24.946  0.00  0.00     0.011 A 
HETATM   12  C   UNK     0     -37.550  -9.453  20.057  0.00  0.00     0.009 A 
HETATM   13  C   UNK     0     -37.646 -11.016  26.821  0.00  0.00     0.036 A 
HETATM   14  C   UNK     0     -36.033  -7.688  20.657  0.00  0.00     0.002 A 
HETATM   15  C   UNK     0     -37.850 -12.284  26.311  0.00  0.00     0.024 A 
HETATM   16  C   UNK     0     -36.595  -8.509  19.689  0.00  0.00     0.001 A 
ENDROOT
BRANCH   2  17
HETATM   17  C   UNK     0     -37.997  -7.559  24.406  0.00  0.00     0.131 C 
BRANCH  17  18
HETATM   18  C   UNK     0     -39.317  -6.933  23.961  0.00  0.00     0.050 C 
BRANCH  18  19
HETATM   19  C   UNK     0     -39.176  -5.572  23.270  0.00  0.00     0.273 C 
BRANCH  19  20
HETATM   20  N   UNK     0     -39.834  -5.550  21.970  0.00  0.00     0.080 N 
HETATM   21  C   UNK     0     -40.469  -6.840  21.691  0.00  0.00     0.309 C 
HETATM   22  C   UNK     0     -38.878  -5.217  20.913  0.00  0.00     0.309 C 
ENDBRANCH  19  20
ENDBRANCH  18  19
ENDBRANCH  17  18
ENDBRANCH   2  17
TORSDOF 4
ENDMDL
MODEL 2
REMARK VINA RESULT:      -6.4      1.516      2.078
REMARK  4 active torsions:
REMARK  status: ('A' for Active; 'I' for Inactive)
REMARK    1  A    between atoms: N_2  and  C_4 
REMARK    2  A    between atoms: N_3  and  C_12 
REMARK    3  A    between atoms: C_4  and  C_11 
REMARK    4  A    between atoms: C_11  and  C_12 
ROOT
HETATM    1 Cl   UNK     0     -37.196 -11.051  28.616  0.00  0.00    -0.084 Cl
HETATM    2  N   UNK     0     -37.947  -9.197  23.871  0.00  0.00    -0.346 N 
HETATM    3  C   UNK     0     -37.908 -10.357  24.693  0.00  0.00     0.042 A 
HETATM    4  C   UNK     0     -37.625  -9.087  22.493  0.00  0.00     0.041 A 
HETATM    5  C   UNK     0     -38.405 -12.073  22.787  0.00  0.00     0.045 C 
HETATM    6  C   UNK     0     -39.134 -11.033  21.953  0.00  0.00     0.045 C 
HETATM    7  C   UNK     0     -38.079 -11.679  24.213  0.00  0.00    -0.031 A 
HETATM    8  C   UNK     0     -38.178  -9.953  21.535  0.00  0.00    -0.031 A 
HETATM    9  C   UNK     0     -37.633 -10.219  26.079  0.00  0.00     0.054 A 
HETATM   10  C   UNK     0     -36.739  -8.086  22.039  0.00  0.00     0.030 A 
HETATM   11  C   UNK     0     -37.942 -12.772  25.104  0.00  0.00     0.011 A 
HETATM   12  C   UNK     0     -37.850  -9.810  20.175  0.00  0.00     0.009 A 
HETATM   13  C   UNK     0     -37.522 -11.309  26.946  0.00  0.00     0.036 A 
HETATM   14  C   UNK     0     -36.417  -7.951  20.687  0.00  0.00     0.002 A 
HETATM   15  C   UNK     0     -37.671 -12.592  26.456  0.00  0.00     0.024 A 
HETATM   16  C   UNK     0     -36.974  -8.814  19.754  0.00  0.00     0.001 A 
ENDROOT
BRANCH   2  17
HETATM   17  C   UNK     0     -38.201  -7.904  24.527  0.00  0.00     0.131 C 
BRANCH  17  18
HETATM   18  C   UNK     0     -39.598  -7.390  24.185  0.00  0.00     0.050 C 
BRANCH  18  19
HETATM   19  C   UNK     0     -40.728  -8.020  25.006  0.00  0.00     0.273 C 
BRANCH  19  20
HETATM   20  N   UNK     0     -41.592  -8.861  24.188  0.00  0.00     0.080 N 
HETATM   21  C   UNK     0     -42.965  -8.350  24.193  0.00  0.00     0.309 C 
HETATM   22  C   UNK     0     -41.566 -10.245  24.664  0.00  0.00     0.309 C 
ENDBRANCH  19  20
ENDBRANCH  18  19
ENDBRANCH  17  18
ENDBRANCH   2  17
TORSDOF 4
ENDMDL
MODEL 3
REMARK VINA RESULT:      -6.3     25.940     28.548
REMARK  4 active torsions:
REMARK  status: ('A' for Active; 'I' for Inactive)
REMARK    1  A    between atoms: N_2  and  C_4 
REMARK    2  A    between atoms: N_3  and  C_12 
REMARK    3  A    between atoms: C_4  and  C_11 
REMARK    4  A    between atoms: C_11  and  C_12 
ROOT
HETATM    1 Cl   UNK     0     -23.920  14.619  21.108  0.00  0.00    -0.084 Cl
HETATM    2  N   UNK     0     -19.812  12.659  18.699  0.00  0.00    -0.346 N 
HETATM    3  C   UNK     0     -20.891  13.584  18.631  0.00  0.00     0.042 A 
HETATM    4  C   UNK     0     -19.189  11.959  17.633  0.00  0.00     0.041 A 
HETATM    5  C   UNK     0     -20.366  14.458  16.227  0.00  0.00     0.045 C 
HETATM    6  C   UNK     0     -18.892  14.110  16.353  0.00  0.00     0.045 C 
HETATM    7  C   UNK     0     -21.182  14.387  17.501  0.00  0.00    -0.031 A 
HETATM    8  C   UNK     0     -18.729  12.623  16.483  0.00  0.00    -0.031 A 
HETATM    9  C   UNK     0     -21.782  13.696  19.732  0.00  0.00     0.054 A 
HETATM   10  C   UNK     0     -19.000  10.562  17.704  0.00  0.00     0.030 A 
HETATM   11  C   UNK     0     -22.330  15.218  17.507  0.00  0.00     0.011 A 
HETATM   12  C   UNK     0     -18.103  11.904  15.450  0.00  0.00     0.009 A 
HETATM   13  C   UNK     0     -22.897  14.537  19.727  0.00  0.00     0.036 A 
HETATM   14  C   UNK     0     -18.379   9.853  16.673  0.00  0.00     0.002 A 
HETATM   15  C   UNK     0     -23.176  15.297  18.608  0.00  0.00     0.024 A 
HETATM   16  C   UNK     0     -17.929  10.526  15.545  0.00  0.00     0.001 A 
ENDROOT
BRANCH   2  17
HETATM   17  C   UNK     0     -19.359  12.236  20.034  0.00  0.00     0.131 C 
BRANCH  17  18
HETATM   18  C   UNK     0     -20.234  11.104  20.569  0.00  0.00     0.050 C 
BRANCH  18  19
HETATM   19  C   UNK     0     -19.683  10.408  21.817  0.00  0.00     0.273 C 
BRANCH  19  20
HETATM   20  N   UNK     0     -20.081   9.007  21.881  0.00  0.00     0.080 N 
HETATM   21  C   UNK     0     -20.311   8.474  20.537  0.00  0.00     0.309 C 
HETATM   22  C   UNK     0     -21.284   8.849  22.701  0.00  0.00     0.309 C 
ENDBRANCH  19  20
ENDBRANCH  18  19
ENDBRANCH  17  18
ENDBRANCH   2  17
TORSDOF 4
ENDMDL
