MODEL 1
REMARK VINA RESULT:      -5.7      0.000      0.000
REMARK  4 active torsions:
REMARK  status: ('A' for Active; 'I' for Inactive)
REMARK    1  A    between atoms: N_2  and  C_4 
REMARK    2  A    between atoms: N_3  and  C_12 
REMARK    3  A    between atoms: C_4  and  C_11 
REMARK    4  A    between atoms: C_11  and  C_12 
ROOT
HETATM    1 Cl   UNK     0     -37.044  15.727   1.010  0.00  0.00    -0.084 Cl
HETATM    2  N   UNK     0     -41.361  16.914  -1.532  0.00  0.00    -0.346 N 
HETATM    3  C   UNK     0     -40.731  16.807  -0.262  0.00  0.00     0.042 A 
HETATM    4  C   UNK     0     -42.731  16.725  -1.850  0.00  0.00     0.041 A 
HETATM    5  C   UNK     0     -42.816  17.499   1.150  0.00  0.00     0.045 C 
HETATM    6  C   UNK     0     -43.410  18.296   0.001  0.00  0.00     0.045 C 
HETATM    7  C   UNK     0     -41.385  17.035   0.974  0.00  0.00    -0.031 A 
HETATM    8  C   UNK     0     -43.751  17.375  -1.135  0.00  0.00    -0.031 A 
HETATM    9  C   UNK     0     -39.373  16.399  -0.191  0.00  0.00     0.054 A 
HETATM   10  C   UNK     0     -43.113  15.878  -2.914  0.00  0.00     0.030 A 
HETATM   11  C   UNK     0     -40.686  16.822   2.188  0.00  0.00     0.011 A 
HETATM   12  C   UNK     0     -45.100  17.178  -1.483  0.00  0.00     0.009 A 
HETATM   13  C   UNK     0     -38.694  16.214   1.016  0.00  0.00     0.036 A 
HETATM   14  C   UNK     0     -44.454  15.686  -3.253  0.00  0.00     0.002 A 
HETATM   15  C   UNK     0     -39.354  16.421   2.211  0.00  0.00     0.024 A 
HETATM   16  C   UNK     0     -45.448  16.337  -2.536  0.00  0.00     0.001 A 
ENDROOT
BRANCH   2  17
HETATM   17  C   UNK     0     -40.497  17.093  -2.710  0.00  0.00     0.131 C 
BRANCH  17  18
HETATM   18  C   UNK     0     -40.238  18.576  -2.971  0.00  0.00     0.050 C 
BRANCH  18  19
HETATM   19  C   UNK     0     -40.921  19.130  -4.226  0.00  0.00     0.273 C 
BRANCH  19  20
HETATM   20  N   UNK     0     -40.019  19.959  -5.016  0.00  0.00     0.080 N 
HETATM   21  C   UNK     0     -40.775  20.892  -5.853  0.00  0.00     0.309 C 
HETATM   22  C   UNK     0     -39.147  19.126  -5.846  0.00  0.00     0.309 C 
ENDBRANCH  19  20
ENDBRANCH  18  19
ENDBRANCH  17  18
ENDBRANCH   2  17
TORSDOF 4
ENDMDL
MODEL 2
REMARK VINA RESULT:      -5.3     35.876     36.934
REMARK  4 active torsions:
REMARK  status: ('A' for Active; 'I' for Inactive)
REMARK    1  A    between atoms: N_2  and  C_4 
REMARK    2  A    between atoms: N_3  and  C_12 
REMARK    3  A    between atoms: C_4  and  C_11 
REMARK    4  A    between atoms: C_11  and  C_12 
ROOT
HETATM    1 Cl   UNK     0     -43.724  44.991  22.045  0.00  0.00    -0.084 Cl
HETATM    2  N   UNK     0     -40.948  48.127  19.049  0.00  0.00    -0.346 N 
HETATM    3  C   UNK     0     -42.184  47.444  19.217  0.00  0.00     0.042 A 
HETATM    4  C   UNK     0     -40.286  48.456  17.837  0.00  0.00     0.041 A 
HETATM    5  C   UNK     0     -43.252  48.228  16.968  0.00  0.00     0.045 C 
HETATM    6  C   UNK     0     -42.399  49.485  16.926  0.00  0.00     0.045 C 
HETATM    7  C   UNK     0     -43.233  47.448  18.266  0.00  0.00    -0.031 A 
HETATM    8  C   UNK     0     -40.951  49.113  16.788  0.00  0.00    -0.031 A 
HETATM    9  C   UNK     0     -42.391  46.657  20.382  0.00  0.00     0.054 A 
HETATM   10  C   UNK     0     -38.922  48.140  17.654  0.00  0.00     0.030 A 
HETATM   11  C   UNK     0     -44.393  46.667  18.496  0.00  0.00     0.011 A 
HETATM   12  C   UNK     0     -40.264  49.439  15.605  0.00  0.00     0.009 A 
HETATM   13  C   UNK     0     -43.551  45.910  20.600  0.00  0.00     0.036 A 
HETATM   14  C   UNK     0     -38.247  48.464  16.475  0.00  0.00     0.002 A 
HETATM   15  C   UNK     0     -44.554  45.911  19.651  0.00  0.00     0.024 A 
HETATM   16  C   UNK     0     -38.919  49.115  15.450  0.00  0.00     0.001 A 
ENDROOT
BRANCH   2  17
HETATM   17  C   UNK     0     -40.154  48.410  20.255  0.00  0.00     0.131 C 
BRANCH  17  18
HETATM   18  C   UNK     0     -39.356  47.179  20.680  0.00  0.00     0.050 C 
BRANCH  18  19
HETATM   19  C   UNK     0     -38.108  47.484  21.515  0.00  0.00     0.273 C 
BRANCH  19  20
HETATM   20  N   UNK     0     -37.223  46.331  21.614  0.00  0.00     0.080 N 
HETATM   21  C   UNK     0     -37.681  45.417  22.662  0.00  0.00     0.309 C 
HETATM   22  C   UNK     0     -35.848  46.758  21.881  0.00  0.00     0.309 C 
ENDBRANCH  19  20
ENDBRANCH  18  19
ENDBRANCH  17  18
ENDBRANCH   2  17
TORSDOF 4
ENDMDL
MODEL 3
REMARK VINA RESULT:      -5.2     27.222     29.445
REMARK  4 active torsions:
REMARK  status: ('A' for Active; 'I' for Inactive)
REMARK    1  A    between atoms: N_2  and  C_4 
REMARK    2  A    between atoms: N_3  and  C_12 
REMARK    3  A    between atoms: C_4  and  C_11 
REMARK    4  A    between atoms: C_11  and  C_12 
ROOT
HETATM    1 Cl   UNK     0     -44.447  25.092  24.229  0.00  0.00    -0.084 Cl
HETATM    2  N   UNK     0     -40.683  22.372  26.455  0.00  0.00    -0.346 N 
HETATM    3  C   UNK     0     -41.009  23.503  25.656  0.00  0.00     0.042 A 
HETATM    4  C   UNK     0     -39.505  21.582  26.418  0.00  0.00     0.041 A 
HETATM    5  C   UNK     0     -38.552  24.303  25.279  0.00  0.00     0.045 C 
HETATM    6  C   UNK     0     -38.074  23.652  26.567  0.00  0.00     0.045 C 
HETATM    7  C   UNK     0     -40.052  24.375  25.082  0.00  0.00    -0.031 A 
HETATM    8  C   UNK     0     -38.226  22.161  26.471  0.00  0.00    -0.031 A 
HETATM    9  C   UNK     0     -42.370  23.774  25.356  0.00  0.00     0.054 A 
HETATM   10  C   UNK     0     -39.586  20.175  26.338  0.00  0.00     0.030 A 
HETATM   11  C   UNK     0     -40.480  25.426  24.233  0.00  0.00     0.011 A 
HETATM   12  C   UNK     0     -37.078  21.350  26.446  0.00  0.00     0.009 A 
HETATM   13  C   UNK     0     -42.774  24.829  24.533  0.00  0.00     0.036 A 
HETATM   14  C   UNK     0     -38.441  19.375  26.311  0.00  0.00     0.002 A 
HETATM   15  C   UNK     0     -41.825  25.656  23.965  0.00  0.00     0.024 A 
HETATM   16  C   UNK     0     -37.185  19.964  26.366  0.00  0.00     0.001 A 
ENDROOT
BRANCH   2  17
HETATM   17  C   UNK     0     -41.733  21.834  27.336  0.00  0.00     0.131 C 
BRANCH  17  18
HETATM   18  C   UNK     0     -41.455  22.196  28.794  0.00  0.00     0.050 C 
BRANCH  18  19
HETATM   19  C   UNK     0     -41.105  21.005  29.691  0.00  0.00     0.273 C 
BRANCH  19  20
HETATM   20  N   UNK     0     -40.162  21.371  30.740  0.00  0.00     0.080 N 
HETATM   21  C   UNK     0     -40.723  22.419  31.595  0.00  0.00     0.309 C 
HETATM   22  C   UNK     0     -38.892  21.815  30.161  0.00  0.00     0.309 C 
ENDBRANCH  19  20
ENDBRANCH  18  19
ENDBRANCH  17  18
ENDBRANCH   2  17
TORSDOF 4
ENDMDL
