MODEL 1
REMARK VINA RESULT:      -6.7      0.000      0.000
REMARK  4 active torsions:
REMARK  status: ('A' for Active; 'I' for Inactive)
REMARK    1  A    between atoms: N_2  and  C_4 
REMARK    2  A    between atoms: N_3  and  C_12 
REMARK    3  A    between atoms: C_4  and  C_11 
REMARK    4  A    between atoms: C_11  and  C_12 
ROOT
HETATM    1 Cl   UNK     0     -28.326 -25.964  23.526  0.00  0.00    -0.084 Cl
HETATM    2  N   UNK     0     -30.327 -28.504  27.533  0.00  0.00    -0.346 N 
HETATM    3  C   UNK     0     -29.646 -28.610  26.289  0.00  0.00     0.042 A 
HETATM    4  C   UNK     0     -31.234 -29.426  28.118  0.00  0.00     0.041 A 
HETATM    5  C   UNK     0     -29.532 -31.218  26.249  0.00  0.00     0.045 C 
HETATM    6  C   UNK     0     -29.597 -31.309  27.764  0.00  0.00     0.045 C 
HETATM    7  C   UNK     0     -29.306 -29.837  25.670  0.00  0.00    -0.031 A 
HETATM    8  C   UNK     0     -30.919 -30.789  28.249  0.00  0.00    -0.031 A 
HETATM    9  C   UNK     0     -29.317 -27.428  25.574  0.00  0.00     0.054 A 
HETATM   10  C   UNK     0     -32.488 -28.993  28.601  0.00  0.00     0.030 A 
HETATM   11  C   UNK     0     -28.699 -29.832  24.389  0.00  0.00     0.011 A 
HETATM   12  C   UNK     0     -31.833 -31.675  28.846  0.00  0.00     0.009 A 
HETATM   13  C   UNK     0     -28.699 -27.444  24.320  0.00  0.00     0.036 A 
HETATM   14  C   UNK     0     -33.392 -29.879  29.191  0.00  0.00     0.002 A 
HETATM   15  C   UNK     0     -28.393 -28.651  23.723  0.00  0.00     0.024 A 
HETATM   16  C   UNK     0     -33.064 -31.222  29.314  0.00  0.00     0.001 A 
ENDROOT
BRANCH   2  17
HETATM   17  C   UNK     0     -30.222 -27.230  28.263  0.00  0.00     0.131 C 
BRANCH  17  18
HETATM   18  C   UNK     0     -29.192 -27.333  29.386  0.00  0.00     0.050 C 
BRANCH  18  19
HETATM   19  C   UNK     0     -27.834 -26.701  29.065  0.00  0.00     0.273 C 
BRANCH  19  20
HETATM   20  N   UNK     0     -26.736 -27.639  29.262  0.00  0.00     0.080 N 
HETATM   21  C   UNK     0     -27.232 -29.016  29.288  0.00  0.00     0.309 C 
HETATM   22  C   UNK     0     -26.014 -27.337  30.499  0.00  0.00     0.309 C 
ENDBRANCH  19  20
ENDBRANCH  18  19
ENDBRANCH  17  18
ENDBRANCH   2  17
TORSDOF 4
ENDMDL
MODEL 2
REMARK VINA RESULT:      -5.9      3.104      6.097
REMARK  4 active torsions:
REMARK  status: ('A' for Active; 'I' for Inactive)
REMARK    1  A    between atoms: N_2  and  C_4 
REMARK    2  A    between atoms: N_3  and  C_12 
REMARK    3  A    between atoms: C_4  and  C_11 
REMARK    4  A    between atoms: C_11  and  C_12 
ROOT
HETATM    1 Cl   UNK     0     -30.752 -29.728  33.112  0.00  0.00    -0.084 Cl
HETATM    2  N   UNK     0     -30.626 -29.205  27.990  0.00  0.00    -0.346 N 
HETATM    3  C   UNK     0     -30.217 -29.984  29.108  0.00  0.00     0.042 A 
HETATM    4  C   UNK     0     -29.950 -29.018  26.757  0.00  0.00     0.041 A 
HETATM    5  C   UNK     0     -28.853 -31.744  27.745  0.00  0.00     0.045 C 
HETATM    6  C   UNK     0     -29.680 -31.511  26.492  0.00  0.00     0.045 C 
HETATM    7  C   UNK     0     -29.381 -31.124  29.021  0.00  0.00    -0.031 A 
HETATM    8  C   UNK     0     -29.479 -30.106  26.002  0.00  0.00    -0.031 A 
HETATM    9  C   UNK     0     -30.616 -29.591  30.413  0.00  0.00     0.054 A 
HETATM   10  C   UNK     0     -29.738 -27.721  26.241  0.00  0.00     0.030 A 
HETATM   11  C   UNK     0     -28.967 -31.782  30.206  0.00  0.00     0.011 A 
HETATM   12  C   UNK     0     -28.823 -29.889  24.776  0.00  0.00     0.009 A 
HETATM   13  C   UNK     0     -30.214 -30.266  31.568  0.00  0.00     0.036 A 
HETATM   14  C   UNK     0     -29.085 -27.513  25.024  0.00  0.00     0.002 A 
HETATM   15  C   UNK     0     -29.381 -31.363  31.465  0.00  0.00     0.024 A 
HETATM   16  C   UNK     0     -28.628 -28.599  24.291  0.00  0.00     0.001 A 
ENDROOT
BRANCH   2  17
HETATM   17  C   UNK     0     -31.816 -28.353  28.150  0.00  0.00     0.131 C 
BRANCH  17  18
HETATM   18  C   UNK     0     -33.091 -29.192  28.114  0.00  0.00     0.050 C 
BRANCH  18  19
HETATM   19  C   UNK     0     -34.221 -28.675  29.010  0.00  0.00     0.273 C 
BRANCH  19  20
HETATM   20  N   UNK     0     -35.531 -29.097  28.534  0.00  0.00     0.080 N 
HETATM   21  C   UNK     0     -35.452 -30.415  27.901  0.00  0.00     0.309 C 
HETATM   22  C   UNK     0     -36.079 -28.117  27.593  0.00  0.00     0.309 C 
ENDBRANCH  19  20
ENDBRANCH  18  19
ENDBRANCH  17  18
ENDBRANCH   2  17
TORSDOF 4
ENDMDL
MODEL 3
REMARK VINA RESULT:      -5.8     31.547     33.772
REMARK  4 active torsions:
REMARK  status: ('A' for Active; 'I' for Inactive)
REMARK    1  A    between atoms: N_2  and  C_4 
REMARK    2  A    between atoms: N_3  and  C_12 
REMARK    3  A    between atoms: C_4  and  C_11 
REMARK    4  A    between atoms: C_11  and  C_12 
ROOT
HETATM    1 Cl   UNK     0     -28.304 -45.243   0.387  0.00  0.00    -0.084 Cl
HETATM    2  N   UNK     0     -29.667 -50.107   1.388  0.00  0.00    -0.346 N 
HETATM    3  C   UNK     0     -28.601 -49.167   1.335  0.00  0.00     0.042 A 
HETATM    4  C   UNK     0     -29.614 -51.506   1.156  0.00  0.00     0.041 A 
HETATM    5  C   UNK     0     -26.713 -50.836   2.017  0.00  0.00     0.045 C 
HETATM    6  C   UNK     0     -27.686 -51.733   2.764  0.00  0.00     0.045 C 
HETATM    7  C   UNK     0     -27.243 -49.486   1.584  0.00  0.00    -0.031 A 
HETATM    8  C   UNK     0     -28.674 -52.326   1.801  0.00  0.00    -0.031 A 
HETATM    9  C   UNK     0     -28.876 -47.824   0.964  0.00  0.00     0.054 A 
HETATM   10  C   UNK     0     -30.523 -52.122   0.268  0.00  0.00     0.030 A 
HETATM   11  C   UNK     0     -26.248 -48.490   1.425  0.00  0.00     0.011 A 
HETATM   12  C   UNK     0     -28.655 -53.712   1.560  0.00  0.00     0.009 A 
HETATM   13  C   UNK     0     -27.882 -46.850   0.833  0.00  0.00     0.036 A 
HETATM   14  C   UNK     0     -30.498 -53.498   0.031  0.00  0.00     0.002 A 
HETATM   15  C   UNK     0     -26.562 -47.186   1.059  0.00  0.00     0.024 A 
HETATM   16  C   UNK     0     -29.563 -54.294   0.679  0.00  0.00     0.001 A 
ENDROOT
BRANCH   2  17
HETATM   17  C   UNK     0     -31.032 -49.583   1.553  0.00  0.00     0.131 C 
BRANCH  17  18
HETATM   18  C   UNK     0     -31.729 -49.451   0.200  0.00  0.00     0.050 C 
BRANCH  18  19
HETATM   19  C   UNK     0     -32.276 -48.053  -0.102  0.00  0.00     0.273 C 
BRANCH  19  20
HETATM   20  N   UNK     0     -32.991 -47.490   1.037  0.00  0.00     0.080 N 
HETATM   21  C   UNK     0     -34.345 -47.089   0.649  0.00  0.00     0.309 C 
HETATM   22  C   UNK     0     -32.264 -46.346   1.590  0.00  0.00     0.309 C 
ENDBRANCH  19  20
ENDBRANCH  18  19
ENDBRANCH  17  18
ENDBRANCH   2  17
TORSDOF 4
ENDMDL
