MODEL 1
REMARK VINA RESULT:      -8.7      0.000      0.000
REMARK  4 active torsions:
REMARK  status: ('A' for Active; 'I' for Inactive)
REMARK    1  A    between atoms: N_2  and  C_4 
REMARK    2  A    between atoms: N_3  and  C_12 
REMARK    3  A    between atoms: C_4  and  C_11 
REMARK    4  A    between atoms: C_11  and  C_12 
ROOT
HETATM    1 Cl   UNK     0      -0.978  18.403 -22.720  0.00  0.00    -0.084 Cl
HETATM    2  N   UNK     0      -4.711  18.202 -26.261  0.00  0.00    -0.346 N 
HETATM    3  C   UNK     0      -3.461  18.773 -25.895  0.00  0.00     0.042 A 
HETATM    4  C   UNK     0      -5.747  18.784 -27.038  0.00  0.00     0.041 A 
HETATM    5  C   UNK     0      -3.223  20.309 -27.993  0.00  0.00     0.045 C 
HETATM    6  C   UNK     0      -4.094  19.396 -28.840  0.00  0.00     0.045 C 
HETATM    7  C   UNK     0      -2.783  19.760 -26.652  0.00  0.00    -0.031 A 
HETATM    8  C   UNK     0      -5.490  19.369 -28.289  0.00  0.00    -0.031 A 
HETATM    9  C   UNK     0      -2.852  18.386 -24.672  0.00  0.00     0.054 A 
HETATM   10  C   UNK     0      -7.081  18.781 -26.576  0.00  0.00     0.030 A 
HETATM   11  C   UNK     0      -1.581  20.322 -26.156  0.00  0.00     0.011 A 
HETATM   12  C   UNK     0      -6.540  19.926 -29.042  0.00  0.00     0.009 A 
HETATM   13  C   UNK     0      -1.654  18.937 -24.209  0.00  0.00     0.036 A 
HETATM   14  C   UNK     0      -8.118  19.336 -27.328  0.00  0.00     0.002 A 
HETATM   15  C   UNK     0      -1.018  19.913 -24.952  0.00  0.00     0.024 A 
HETATM   16  C   UNK     0      -7.847  19.909 -28.563  0.00  0.00     0.001 A 
ENDROOT
BRANCH   2  17
HETATM   17  C   UNK     0      -5.076  16.912 -25.655  0.00  0.00     0.131 C 
BRANCH  17  18
HETATM   18  C   UNK     0      -4.796  15.762 -26.621  0.00  0.00     0.050 C 
BRANCH  18  19
HETATM   19  C   UNK     0      -6.047  15.041 -27.134  0.00  0.00     0.273 C 
BRANCH  19  20
HETATM   20  N   UNK     0      -6.260  13.769 -26.455  0.00  0.00     0.080 N 
HETATM   21  C   UNK     0      -5.212  12.811 -26.812  0.00  0.00     0.309 C 
HETATM   22  C   UNK     0      -7.578  13.223 -26.782  0.00  0.00     0.309 C 
ENDBRANCH  19  20
ENDBRANCH  18  19
ENDBRANCH  17  18
ENDBRANCH   2  17
TORSDOF 4
ENDMDL
MODEL 2
REMARK VINA RESULT:      -8.1      2.358      5.544
REMARK  4 active torsions:
REMARK  status: ('A' for Active; 'I' for Inactive)
REMARK    1  A    between atoms: N_2  and  C_4 
REMARK    2  A    between atoms: N_3  and  C_12 
REMARK    3  A    between atoms: C_4  and  C_11 
REMARK    4  A    between atoms: C_11  and  C_12 
ROOT
HETATM    1 Cl   UNK     0      -6.292  12.755 -26.098  0.00  0.00    -0.084 Cl
HETATM    2  N   UNK     0      -4.934  17.652 -26.932  0.00  0.00    -0.346 N 
HETATM    3  C   UNK     0      -5.947  16.665 -27.085  0.00  0.00     0.042 A 
HETATM    4  C   UNK     0      -4.651  18.757 -27.775  0.00  0.00     0.041 A 
HETATM    5  C   UNK     0      -7.646  18.194 -28.347  0.00  0.00     0.045 C 
HETATM    6  C   UNK     0      -7.073  19.456 -27.722  0.00  0.00     0.045 C 
HETATM    7  C   UNK     0      -7.175  16.882 -27.757  0.00  0.00    -0.031 A 
HETATM    8  C   UNK     0      -5.656  19.653 -28.179  0.00  0.00    -0.031 A 
HETATM    9  C   UNK     0      -5.722  15.354 -26.586  0.00  0.00     0.054 A 
HETATM   10  C   UNK     0      -3.337  18.998 -28.229  0.00  0.00     0.030 A 
HETATM   11  C   UNK     0      -8.082  15.806 -27.924  0.00  0.00     0.011 A 
HETATM   12  C   UNK     0      -5.343  20.747 -29.005  0.00  0.00     0.009 A 
HETATM   13  C   UNK     0      -6.639  14.312 -26.743  0.00  0.00     0.036 A 
HETATM   14  C   UNK     0      -3.033  20.086 -29.051  0.00  0.00     0.002 A 
HETATM   15  C   UNK     0      -7.822  14.537 -27.419  0.00  0.00     0.024 A 
HETATM   16  C   UNK     0      -4.037  20.962 -29.439  0.00  0.00     0.001 A 
ENDROOT
BRANCH   2  17
HETATM   17  C   UNK     0      -3.942  17.451 -25.863  0.00  0.00     0.131 C 
BRANCH  17  18
HETATM   18  C   UNK     0      -4.084  18.523 -24.784  0.00  0.00     0.050 C 
BRANCH  18  19
HETATM   19  C   UNK     0      -3.085  18.401 -23.629  0.00  0.00     0.273 C 
BRANCH  19  20
HETATM   20  N   UNK     0      -1.705  18.437 -24.096  0.00  0.00     0.080 N 
HETATM   21  C   UNK     0      -0.776  18.388 -22.966  0.00  0.00     0.309 C 
HETATM   22  C   UNK     0      -1.462  19.638 -24.899  0.00  0.00     0.309 C 
ENDBRANCH  19  20
ENDBRANCH  18  19
ENDBRANCH  17  18
ENDBRANCH   2  17
TORSDOF 4
ENDMDL
MODEL 3
REMARK VINA RESULT:      -7.2      2.691      5.513
REMARK  4 active torsions:
REMARK  status: ('A' for Active; 'I' for Inactive)
REMARK    1  A    between atoms: N_2  and  C_4 
REMARK    2  A    between atoms: N_3  and  C_12 
REMARK    3  A    between atoms: C_4  and  C_11 
REMARK    4  A    between atoms: C_11  and  C_12 
ROOT
HETATM    1 Cl   UNK     0      -4.912  21.808 -29.856  0.00  0.00    -0.084 Cl
HETATM    2  N   UNK     0      -6.721  17.496 -27.699  0.00  0.00    -0.346 N 
HETATM    3  C   UNK     0      -5.616  18.383 -27.817  0.00  0.00     0.042 A 
HETATM    4  C   UNK     0      -6.702  16.096 -27.467  0.00  0.00     0.041 A 
HETATM    5  C   UNK     0      -4.002  17.035 -26.268  0.00  0.00     0.045 C 
HETATM    6  C   UNK     0      -5.156  16.411 -25.502  0.00  0.00     0.045 C 
HETATM    7  C   UNK     0      -4.357  18.173 -27.202  0.00  0.00    -0.031 A 
HETATM    8  C   UNK     0      -5.960  15.532 -26.416  0.00  0.00    -0.031 A 
HETATM    9  C   UNK     0      -5.733  19.536 -28.638  0.00  0.00     0.054 A 
HETATM   10  C   UNK     0      -7.445  15.221 -28.289  0.00  0.00     0.030 A 
HETATM   11  C   UNK     0      -3.295  19.078 -27.450  0.00  0.00     0.011 A 
HETATM   12  C   UNK     0      -5.971  14.142 -26.204  0.00  0.00     0.009 A 
HETATM   13  C   UNK     0      -4.680  20.428 -28.854  0.00  0.00     0.036 A 
HETATM   14  C   UNK     0      -7.451  13.841 -28.074  0.00  0.00     0.002 A 
HETATM   15  C   UNK     0      -3.454  20.196 -28.262  0.00  0.00     0.024 A 
HETATM   16  C   UNK     0      -6.713  13.301 -27.030  0.00  0.00     0.001 A 
ENDROOT
BRANCH   2  17
HETATM   17  C   UNK     0      -8.060  18.031 -27.996  0.00  0.00     0.131 C 
BRANCH  17  18
HETATM   18  C   UNK     0      -8.788  18.412 -26.709  0.00  0.00     0.050 C 
BRANCH  18  19
HETATM   19  C   UNK     0      -8.678  19.892 -26.329  0.00  0.00     0.273 C 
BRANCH  19  20
HETATM   20  N   UNK     0      -8.942  20.768 -27.463  0.00  0.00     0.080 N 
HETATM   21  C   UNK     0      -8.288  22.064 -27.279  0.00  0.00     0.309 C 
HETATM   22  C   UNK     0     -10.383  20.950 -27.650  0.00  0.00     0.309 C 
ENDBRANCH  19  20
ENDBRANCH  18  19
ENDBRANCH  17  18
ENDBRANCH   2  17
TORSDOF 4
ENDMDL
