MODEL 1
REMARK VINA RESULT:      -8.0      0.000      0.000
REMARK  4 active torsions:
REMARK  status: ('A' for Active; 'I' for Inactive)
REMARK    1  A    between atoms: N_2  and  C_4 
REMARK    2  A    between atoms: N_3  and  C_12 
REMARK    3  A    between atoms: C_4  and  C_11 
REMARK    4  A    between atoms: C_11  and  C_12 
ROOT
HETATM    1 Cl   UNK     0       6.349   7.264  13.458  0.00  0.00    -0.084 Cl
HETATM    2  N   UNK     0       4.103   7.470  18.087  0.00  0.00    -0.346 N 
HETATM    3  C   UNK     0       5.325   7.547  17.363  0.00  0.00     0.042 A 
HETATM    4  C   UNK     0       3.896   7.004  19.411  0.00  0.00     0.041 A 
HETATM    5  C   UNK     0       6.867   7.887  19.443  0.00  0.00     0.045 C 
HETATM    6  C   UNK     0       5.741   8.499  20.259  0.00  0.00     0.045 C 
HETATM    7  C   UNK     0       6.598   7.701  17.964  0.00  0.00    -0.031 A 
HETATM    8  C   UNK     0       4.665   7.477  20.488  0.00  0.00    -0.031 A 
HETATM    9  C   UNK     0       5.306   7.414  15.949  0.00  0.00     0.054 A 
HETATM   10  C   UNK     0       2.893   6.050  19.690  0.00  0.00     0.030 A 
HETATM   11  C   UNK     0       7.762   7.685  17.156  0.00  0.00     0.011 A 
HETATM   12  C   UNK     0       4.427   7.006  21.792  0.00  0.00     0.009 A 
HETATM   13  C   UNK     0       6.464   7.421  15.167  0.00  0.00     0.036 A 
HETATM   14  C   UNK     0       2.663   5.586  20.987  0.00  0.00     0.002 A 
HETATM   15  C   UNK     0       7.698   7.552  15.773  0.00  0.00     0.024 A 
HETATM   16  C   UNK     0       3.431   6.065  22.039  0.00  0.00     0.001 A 
ENDROOT
BRANCH   2  17
HETATM   17  C   UNK     0       2.858   7.758  17.357  0.00  0.00     0.131 C 
BRANCH  17  18
HETATM   18  C   UNK     0       2.331   9.147  17.711  0.00  0.00     0.050 C 
BRANCH  18  19
HETATM   19  C   UNK     0       3.191  10.306  17.197  0.00  0.00     0.273 C 
BRANCH  19  20
HETATM   20  N   UNK     0       3.920  10.963  18.274  0.00  0.00     0.080 N 
HETATM   21  C   UNK     0       3.210  12.163  18.721  0.00  0.00     0.309 C 
HETATM   22  C   UNK     0       5.277  11.309  17.843  0.00  0.00     0.309 C 
ENDBRANCH  19  20
ENDBRANCH  18  19
ENDBRANCH  17  18
ENDBRANCH   2  17
TORSDOF 4
ENDMDL
MODEL 2
REMARK VINA RESULT:      -7.9      2.753      5.097
REMARK  4 active torsions:
REMARK  status: ('A' for Active; 'I' for Inactive)
REMARK    1  A    between atoms: N_2  and  C_4 
REMARK    2  A    between atoms: N_3  and  C_12 
REMARK    3  A    between atoms: C_4  and  C_11 
REMARK    4  A    between atoms: C_11  and  C_12 
ROOT
HETATM    1 Cl   UNK     0       7.274   7.860  24.367  0.00  0.00    -0.084 Cl
HETATM    2  N   UNK     0       5.274   7.709  19.624  0.00  0.00    -0.346 N 
HETATM    3  C   UNK     0       5.081   7.392  20.997  0.00  0.00     0.042 A 
HETATM    4  C   UNK     0       4.772   7.025  18.487  0.00  0.00     0.041 A 
HETATM    5  C   UNK     0       2.743   6.268  20.705  0.00  0.00     0.045 C 
HETATM    6  C   UNK     0       2.443   7.070  19.449  0.00  0.00     0.045 C 
HETATM    7  C   UNK     0       3.952   6.705  21.505  0.00  0.00    -0.031 A 
HETATM    8  C   UNK     0       3.411   6.698  18.364  0.00  0.00    -0.031 A 
HETATM    9  C   UNK     0       6.091   7.729  21.937  0.00  0.00     0.054 A 
HETATM   10  C   UNK     0       5.633   6.658  17.430  0.00  0.00     0.030 A 
HETATM   11  C   UNK     0       3.896   6.367  22.880  0.00  0.00     0.011 A 
HETATM   12  C   UNK     0       2.942   6.031  17.218  0.00  0.00     0.009 A 
HETATM   13  C   UNK     0       6.008   7.405  23.294  0.00  0.00     0.036 A 
HETATM   14  C   UNK     0       5.161   5.994  16.296  0.00  0.00     0.002 A 
HETATM   15  C   UNK     0       4.908   6.716  23.767  0.00  0.00     0.024 A 
HETATM   16  C   UNK     0       3.813   5.680  16.190  0.00  0.00     0.001 A 
ENDROOT
BRANCH   2  17
HETATM   17  C   UNK     0       6.227   8.783  19.299  0.00  0.00     0.131 C 
BRANCH  17  18
HETATM   18  C   UNK     0       5.497  10.106  19.075  0.00  0.00     0.050 C 
BRANCH  18  19
HETATM   19  C   UNK     0       5.380  10.528  17.607  0.00  0.00     0.273 C 
BRANCH  19  20
HETATM   20  N   UNK     0       3.993  10.704  17.199  0.00  0.00     0.080 N 
HETATM   21  C   UNK     0       3.098  10.598  18.353  0.00  0.00     0.309 C 
HETATM   22  C   UNK     0       3.624   9.717  16.182  0.00  0.00     0.309 C 
ENDBRANCH  19  20
ENDBRANCH  18  19
ENDBRANCH  17  18
ENDBRANCH   2  17
TORSDOF 4
ENDMDL
MODEL 3
REMARK VINA RESULT:      -7.9      1.308      1.786
REMARK  4 active torsions:
REMARK  status: ('A' for Active; 'I' for Inactive)
REMARK    1  A    between atoms: N_2  and  C_4 
REMARK    2  A    between atoms: N_3  and  C_12 
REMARK    3  A    between atoms: C_4  and  C_11 
REMARK    4  A    between atoms: C_11  and  C_12 
ROOT
HETATM    1 Cl   UNK     0       4.809   7.862  13.885  0.00  0.00    -0.084 Cl
HETATM    2  N   UNK     0       4.895   8.298  19.016  0.00  0.00    -0.346 N 
HETATM    3  C   UNK     0       5.652   8.037  17.840  0.00  0.00     0.042 A 
HETATM    4  C   UNK     0       5.101   7.785  20.323  0.00  0.00     0.041 A 
HETATM    5  C   UNK     0       7.923   7.600  19.054  0.00  0.00     0.045 C 
HETATM    6  C   UNK     0       7.527   8.462  20.241  0.00  0.00     0.045 C 
HETATM    7  C   UNK     0       7.024   7.683  17.838  0.00  0.00    -0.031 A 
HETATM    8  C   UNK     0       6.357   7.846  20.950  0.00  0.00    -0.031 A 
HETATM    9  C   UNK     0       5.008   8.077  16.575  0.00  0.00     0.054 A 
HETATM   10  C   UNK     0       4.035   7.202  21.042  0.00  0.00     0.030 A 
HETATM   11  C   UNK     0       7.664   7.364  16.614  0.00  0.00     0.011 A 
HETATM   12  C   UNK     0       6.525   7.341  22.252  0.00  0.00     0.009 A 
HETATM   13  C   UNK     0       5.663   7.779  15.377  0.00  0.00     0.036 A 
HETATM   14  C   UNK     0       4.210   6.701  22.334  0.00  0.00     0.002 A 
HETATM   15  C   UNK     0       6.995   7.416  15.397  0.00  0.00     0.024 A 
HETATM   16  C   UNK     0       5.457   6.771  22.940  0.00  0.00     0.001 A 
ENDROOT
BRANCH   2  17
HETATM   17  C   UNK     0       3.651   9.070  18.869  0.00  0.00     0.131 C 
BRANCH  17  18
HETATM   18  C   UNK     0       3.884  10.542  19.203  0.00  0.00     0.050 C 
BRANCH  18  19
HETATM   19  C   UNK     0       3.366  11.525  18.148  0.00  0.00     0.273 C 
BRANCH  19  20
HETATM   20  N   UNK     0       4.215  11.552  16.964  0.00  0.00     0.080 N 
HETATM   21  C   UNK     0       5.614  11.771  17.337  0.00  0.00     0.309 C 
HETATM   22  C   UNK     0       3.770  12.592  16.034  0.00  0.00     0.309 C 
ENDBRANCH  19  20
ENDBRANCH  18  19
ENDBRANCH  17  18
ENDBRANCH   2  17
TORSDOF 4
ENDMDL
