MODEL 1
REMARK VINA RESULT:      -7.4      0.000      0.000
REMARK  4 active torsions:
REMARK  status: ('A' for Active; 'I' for Inactive)
REMARK    1  A    between atoms: N_2  and  C_4 
REMARK    2  A    between atoms: N_3  and  C_12 
REMARK    3  A    between atoms: C_4  and  C_11 
REMARK    4  A    between atoms: C_11  and  C_12 
ROOT
HETATM    1 Cl   UNK     0      17.731  62.263  23.940  0.00  0.00    -0.084 Cl
HETATM    2  N   UNK     0      17.838  57.133  24.376  0.00  0.00    -0.346 N 
HETATM    3  C   UNK     0      18.589  58.339  24.441  0.00  0.00     0.042 A 
HETATM    4  C   UNK     0      18.283  55.842  23.989  0.00  0.00     0.041 A 
HETATM    5  C   UNK     0      20.890  57.216  24.953  0.00  0.00     0.045 C 
HETATM    6  C   UNK     0      20.229  56.001  25.584  0.00  0.00     0.045 C 
HETATM    7  C   UNK     0      19.986  58.397  24.667  0.00  0.00    -0.031 A 
HETATM    8  C   UNK     0      19.433  55.260  24.550  0.00  0.00    -0.031 A 
HETATM    9  C   UNK     0      17.934  59.579  24.218  0.00  0.00     0.054 A 
HETATM   10  C   UNK     0      17.571  55.093  23.028  0.00  0.00     0.030 A 
HETATM   11  C   UNK     0      20.652  59.647  24.632  0.00  0.00     0.011 A 
HETATM   12  C   UNK     0      19.841  53.973  24.155  0.00  0.00     0.009 A 
HETATM   13  C   UNK     0      18.605  60.805  24.208  0.00  0.00     0.036 A 
HETATM   14  C   UNK     0      17.983  53.817  22.640  0.00  0.00     0.002 A 
HETATM   15  C   UNK     0      19.970  60.839  24.410  0.00  0.00     0.024 A 
HETATM   16  C   UNK     0      19.120  53.256  23.205  0.00  0.00     0.001 A 
ENDROOT
BRANCH   2  17
HETATM   17  C   UNK     0      16.384  57.222  24.583  0.00  0.00     0.131 C 
BRANCH  17  18
HETATM   18  C   UNK     0      15.974  56.500  25.865  0.00  0.00     0.050 C 
BRANCH  18  19
HETATM   19  C   UNK     0      14.911  55.414  25.673  0.00  0.00     0.273 C 
BRANCH  19  20
HETATM   20  N   UNK     0      15.348  54.125  26.196  0.00  0.00     0.080 N 
HETATM   21  C   UNK     0      14.305  53.527  27.031  0.00  0.00     0.309 C 
HETATM   22  C   UNK     0      16.587  54.272  26.962  0.00  0.00     0.309 C 
ENDBRANCH  19  20
ENDBRANCH  18  19
ENDBRANCH  17  18
ENDBRANCH   2  17
TORSDOF 4
ENDMDL
MODEL 2
REMARK VINA RESULT:      -7.3      2.636      4.930
REMARK  4 active torsions:
REMARK  status: ('A' for Active; 'I' for Inactive)
REMARK    1  A    between atoms: N_2  and  C_4 
REMARK    2  A    between atoms: N_3  and  C_12 
REMARK    3  A    between atoms: C_4  and  C_11 
REMARK    4  A    between atoms: C_11  and  C_12 
ROOT
HETATM    1 Cl   UNK     0      19.992  53.394  25.974  0.00  0.00    -0.084 Cl
HETATM    2  N   UNK     0      17.738  57.947  25.131  0.00  0.00    -0.346 N 
HETATM    3  C   UNK     0      18.694  56.999  24.671  0.00  0.00     0.042 A 
HETATM    4  C   UNK     0      17.760  59.358  24.983  0.00  0.00     0.041 A 
HETATM    5  C   UNK     0      19.496  58.383  22.607  0.00  0.00     0.045 C 
HETATM    6  C   UNK     0      18.172  59.123  22.507  0.00  0.00     0.045 C 
HETATM    7  C   UNK     0      19.530  57.194  23.544  0.00  0.00    -0.031 A 
HETATM    8  C   UNK     0      17.965  59.965  23.733  0.00  0.00    -0.031 A 
HETATM    9  C   UNK     0      18.882  55.793  25.396  0.00  0.00     0.054 A 
HETATM   10  C   UNK     0      17.563  60.201  26.098  0.00  0.00     0.030 A 
HETATM   11  C   UNK     0      20.507  56.220  23.218  0.00  0.00     0.011 A 
HETATM   12  C   UNK     0      17.969  61.367  23.616  0.00  0.00     0.009 A 
HETATM   13  C   UNK     0      19.838  54.834  25.046  0.00  0.00     0.036 A 
HETATM   14  C   UNK     0      17.569  61.593  25.975  0.00  0.00     0.002 A 
HETATM   15  C   UNK     0      20.657  55.051  23.956  0.00  0.00     0.024 A 
HETATM   16  C   UNK     0      17.772  62.176  24.732  0.00  0.00     0.001 A 
ENDROOT
BRANCH   2  17
HETATM   17  C   UNK     0      16.657  57.457  26.002  0.00  0.00     0.131 C 
BRANCH  17  18
HETATM   18  C   UNK     0      15.544  56.816  25.175  0.00  0.00     0.050 C 
BRANCH  18  19
HETATM   19  C   UNK     0      14.999  55.505  25.749  0.00  0.00     0.273 C 
BRANCH  19  20
HETATM   20  N   UNK     0      14.629  54.563  24.700  0.00  0.00     0.080 N 
HETATM   21  C   UNK     0      13.488  53.747  25.117  0.00  0.00     0.309 C 
HETATM   22  C   UNK     0      15.764  53.706  24.352  0.00  0.00     0.309 C 
ENDBRANCH  19  20
ENDBRANCH  18  19
ENDBRANCH  17  18
ENDBRANCH   2  17
TORSDOF 4
ENDMDL
MODEL 3
REMARK VINA RESULT:      -6.9      1.387      1.993
REMARK  4 active torsions:
REMARK  status: ('A' for Active; 'I' for Inactive)
REMARK    1  A    between atoms: N_2  and  C_4 
REMARK    2  A    between atoms: N_3  and  C_12 
REMARK    3  A    between atoms: C_4  and  C_11 
REMARK    4  A    between atoms: C_11  and  C_12 
ROOT
HETATM    1 Cl   UNK     0      17.678  62.012  24.104  0.00  0.00    -0.084 Cl
HETATM    2  N   UNK     0      17.870  56.879  24.473  0.00  0.00    -0.346 N 
HETATM    3  C   UNK     0      18.614  58.091  24.470  0.00  0.00     0.042 A 
HETATM    4  C   UNK     0      18.281  55.596  24.028  0.00  0.00     0.041 A 
HETATM    5  C   UNK     0      20.965  56.982  24.724  0.00  0.00     0.045 C 
HETATM    6  C   UNK     0      20.384  55.756  25.409  0.00  0.00     0.045 C 
HETATM    7  C   UNK     0      20.027  58.158  24.548  0.00  0.00    -0.031 A 
HETATM    8  C   UNK     0      19.488  55.018  24.457  0.00  0.00    -0.031 A 
HETATM    9  C   UNK     0      17.929  59.327  24.331  0.00  0.00     0.054 A 
HETATM   10  C   UNK     0      17.476  54.850  23.140  0.00  0.00     0.030 A 
HETATM   11  C   UNK     0      20.676  59.415  24.456  0.00  0.00     0.011 A 
HETATM   12  C   UNK     0      19.862  53.738  24.008  0.00  0.00     0.009 A 
HETATM   13  C   UNK     0      18.586  60.559  24.263  0.00  0.00     0.036 A 
HETATM   14  C   UNK     0      17.854  53.581  22.697  0.00  0.00     0.002 A 
HETATM   15  C   UNK     0      19.966  60.603  24.320  0.00  0.00     0.024 A 
HETATM   16  C   UNK     0      19.049  53.024  23.132  0.00  0.00     0.001 A 
ENDROOT
BRANCH   2  17
HETATM   17  C   UNK     0      16.445  56.954  24.834  0.00  0.00     0.131 C 
BRANCH  17  18
HETATM   18  C   UNK     0      16.164  56.151  26.102  0.00  0.00     0.050 C 
BRANCH  18  19
HETATM   19  C   UNK     0      16.979  56.585  27.325  0.00  0.00     0.273 C 
BRANCH  19  20
HETATM   20  N   UNK     0      16.684  57.958  27.716  0.00  0.00     0.080 N 
HETATM   21  C   UNK     0      17.916  58.674  28.054  0.00  0.00     0.309 C 
HETATM   22  C   UNK     0      15.756  57.985  28.848  0.00  0.00     0.309 C 
ENDBRANCH  19  20
ENDBRANCH  18  19
ENDBRANCH  17  18
ENDBRANCH   2  17
TORSDOF 4
ENDMDL
