MODEL 1
REMARK VINA RESULT:      -6.3      0.000      0.000
REMARK  4 active torsions:
REMARK  status: ('A' for Active; 'I' for Inactive)
REMARK    1  A    between atoms: N_2  and  C_4 
REMARK    2  A    between atoms: N_3  and  C_12 
REMARK    3  A    between atoms: C_4  and  C_11 
REMARK    4  A    between atoms: C_11  and  C_12 
ROOT
HETATM    1 Cl   UNK     0     -24.501   1.564  16.905  0.00  0.00    -0.084 Cl
HETATM    2  N   UNK     0     -26.587  -1.396  20.567  0.00  0.00    -0.346 N 
HETATM    3  C   UNK     0     -25.590  -1.293  19.557  0.00  0.00     0.042 A 
HETATM    4  C   UNK     0     -27.263  -2.560  21.016  0.00  0.00     0.041 A 
HETATM    5  C   UNK     0     -24.614  -3.694  19.874  0.00  0.00     0.045 C 
HETATM    6  C   UNK     0     -25.066  -3.756  21.324  0.00  0.00     0.045 C 
HETATM    7  C   UNK     0     -24.704  -2.340  19.202  0.00  0.00    -0.031 A 
HETATM    8  C   UNK     0     -26.565  -3.720  21.392  0.00  0.00    -0.031 A 
HETATM    9  C   UNK     0     -25.483  -0.093  18.805  0.00  0.00     0.054 A 
HETATM   10  C   UNK     0     -28.672  -2.582  21.109  0.00  0.00     0.030 A 
HETATM   11  C   UNK     0     -23.801  -2.161  18.125  0.00  0.00     0.011 A 
HETATM   12  C   UNK     0     -27.264  -4.853  21.846  0.00  0.00     0.009 A 
HETATM   13  C   UNK     0     -24.571   0.072  17.759  0.00  0.00     0.036 A 
HETATM   14  C   UNK     0     -29.359  -3.711  21.559  0.00  0.00     0.002 A 
HETATM   15  C   UNK     0     -23.730  -0.968  17.414  0.00  0.00     0.024 A 
HETATM   16  C   UNK     0     -28.654  -4.848  21.928  0.00  0.00     0.001 A 
ENDROOT
BRANCH   2  17
HETATM   17  C   UNK     0     -27.116  -0.145  21.133  0.00  0.00     0.131 C 
BRANCH  17  18
HETATM   18  C   UNK     0     -27.076  -0.182  22.660  0.00  0.00     0.050 C 
BRANCH  18  19
HETATM   19  C   UNK     0     -28.377   0.252  23.342  0.00  0.00     0.273 C 
BRANCH  19  20
HETATM   20  N   UNK     0     -29.318   0.840  22.398  0.00  0.00     0.080 N 
HETATM   21  C   UNK     0     -29.416   2.287  22.599  0.00  0.00     0.309 C 
HETATM   22  C   UNK     0     -30.638   0.220  22.530  0.00  0.00     0.309 C 
ENDBRANCH  19  20
ENDBRANCH  18  19
ENDBRANCH  17  18
ENDBRANCH   2  17
TORSDOF 4
ENDMDL
MODEL 2
REMARK VINA RESULT:      -6.3      3.033      5.269
REMARK  4 active torsions:
REMARK  status: ('A' for Active; 'I' for Inactive)
REMARK    1  A    between atoms: N_2  and  C_4 
REMARK    2  A    between atoms: N_3  and  C_12 
REMARK    3  A    between atoms: C_4  and  C_11 
REMARK    4  A    between atoms: C_11  and  C_12 
ROOT
HETATM    1 Cl   UNK     0     -27.464  -1.858  26.394  0.00  0.00    -0.084 Cl
HETATM    2  N   UNK     0     -26.499  -2.319  21.356  0.00  0.00    -0.346 N 
HETATM    3  C   UNK     0     -26.184  -2.777  22.666  0.00  0.00     0.042 A 
HETATM    4  C   UNK     0     -25.648  -2.251  20.223  0.00  0.00     0.041 A 
HETATM    5  C   UNK     0     -24.342  -4.479  21.937  0.00  0.00     0.045 C 
HETATM    6  C   UNK     0     -24.957  -4.652  20.558  0.00  0.00     0.045 C 
HETATM    7  C   UNK     0     -25.181  -3.734  22.955  0.00  0.00    -0.031 A 
HETATM    8  C   UNK     0     -24.888  -3.356  19.803  0.00  0.00    -0.031 A 
HETATM    9  C   UNK     0     -26.867  -2.222  23.780  0.00  0.00     0.054 A 
HETATM   10  C   UNK     0     -25.549  -1.062  19.469  0.00  0.00     0.030 A 
HETATM   11  C   UNK     0     -24.891  -4.062  24.303  0.00  0.00     0.011 A 
HETATM   12  C   UNK     0     -24.064  -3.261  18.667  0.00  0.00     0.009 A 
HETATM   13  C   UNK     0     -26.581  -2.573  25.102  0.00  0.00     0.036 A 
HETATM   14  C   UNK     0     -24.727  -0.974  18.343  0.00  0.00     0.002 A 
HETATM   15  C   UNK     0     -25.585  -3.493  25.365  0.00  0.00     0.024 A 
HETATM   16  C   UNK     0     -23.984  -2.075  17.942  0.00  0.00     0.001 A 
ENDROOT
BRANCH   2  17
HETATM   17  C   UNK     0     -27.815  -1.692  21.151  0.00  0.00     0.131 C 
BRANCH  17  18
HETATM   18  C   UNK     0     -28.913  -2.751  21.071  0.00  0.00     0.050 C 
BRANCH  18  19
HETATM   19  C   UNK     0     -30.176  -2.420  21.873  0.00  0.00     0.273 C 
BRANCH  19  20
HETATM   20  N   UNK     0     -30.983  -3.605  22.131  0.00  0.00     0.080 N 
HETATM   21  C   UNK     0     -30.472  -4.336  23.293  0.00  0.00     0.309 C 
HETATM   22  C   UNK     0     -31.010  -4.479  20.956  0.00  0.00     0.309 C 
ENDBRANCH  19  20
ENDBRANCH  18  19
ENDBRANCH  17  18
ENDBRANCH   2  17
TORSDOF 4
ENDMDL
MODEL 3
REMARK VINA RESULT:      -6.1     46.807     49.326
REMARK  4 active torsions:
REMARK  status: ('A' for Active; 'I' for Inactive)
REMARK    1  A    between atoms: N_2  and  C_4 
REMARK    2  A    between atoms: N_3  and  C_12 
REMARK    3  A    between atoms: C_4  and  C_11 
REMARK    4  A    between atoms: C_11  and  C_12 
ROOT
HETATM    1 Cl   UNK     0     -17.178 -45.725  17.847  0.00  0.00    -0.084 Cl
HETATM    2  N   UNK     0     -16.087 -48.368  13.564  0.00  0.00    -0.346 N 
HETATM    3  C   UNK     0     -15.563 -47.709  14.710  0.00  0.00     0.042 A 
HETATM    4  C   UNK     0     -15.492 -48.506  12.283  0.00  0.00     0.041 A 
HETATM    5  C   UNK     0     -13.046 -48.114  14.146  0.00  0.00     0.045 C 
HETATM    6  C   UNK     0     -13.362 -49.356  13.330  0.00  0.00     0.045 C 
HETATM    7  C   UNK     0     -14.180 -47.551  14.976  0.00  0.00    -0.031 A 
HETATM    8  C   UNK     0     -14.179 -48.981  12.127  0.00  0.00    -0.031 A 
HETATM    9  C   UNK     0     -16.457 -47.116  15.641  0.00  0.00     0.054 A 
HETATM   10  C   UNK     0     -16.214 -48.178  11.115  0.00  0.00     0.030 A 
HETATM   11  C   UNK     0     -13.764 -46.806  16.107  0.00  0.00     0.011 A 
HETATM   12  C   UNK     0     -13.621 -49.120  10.843  0.00  0.00     0.009 A 
HETATM   13  C   UNK     0     -16.026 -46.403  16.763  0.00  0.00     0.036 A 
HETATM   14  C   UNK     0     -15.654 -48.316   9.844  0.00  0.00     0.002 A 
HETATM   15  C   UNK     0     -14.674 -46.242  16.994  0.00  0.00     0.024 A 
HETATM   16  C   UNK     0     -14.356 -48.789   9.708  0.00  0.00     0.001 A 
ENDROOT
BRANCH   2  17
HETATM   17  C   UNK     0     -17.477 -48.848  13.629  0.00  0.00     0.131 C 
BRANCH  17  18
HETATM   18  C   UNK     0     -17.519 -50.352  13.894  0.00  0.00     0.050 C 
BRANCH  18  19
HETATM   19  C   UNK     0     -18.023 -51.192  12.716  0.00  0.00     0.273 C 
BRANCH  19  20
HETATM   20  N   UNK     0     -17.029 -52.162  12.274  0.00  0.00     0.080 N 
HETATM   21  C   UNK     0     -15.884 -52.181  13.187  0.00  0.00     0.309 C 
HETATM   22  C   UNK     0     -16.585 -51.863  10.911  0.00  0.00     0.309 C 
ENDBRANCH  19  20
ENDBRANCH  18  19
ENDBRANCH  17  18
ENDBRANCH   2  17
TORSDOF 4
ENDMDL
