MODEL 1
REMARK VINA RESULT:      -6.5      0.000      0.000
REMARK  4 active torsions:
REMARK  status: ('A' for Active; 'I' for Inactive)
REMARK    1  A    between atoms: N_2  and  C_4 
REMARK    2  A    between atoms: N_3  and  C_12 
REMARK    3  A    between atoms: C_4  and  C_11 
REMARK    4  A    between atoms: C_11  and  C_12 
ROOT
HETATM    1 Cl   UNK     0      -9.094   3.446  -5.760  0.00  0.00    -0.084 Cl
HETATM    2  N   UNK     0     -10.236   5.042  -0.999  0.00  0.00    -0.346 N 
HETATM    3  C   UNK     0      -9.205   4.649  -1.898  0.00  0.00     0.042 A 
HETATM    4  C   UNK     0     -10.280   4.880   0.410  0.00  0.00     0.041 A 
HETATM    5  C   UNK     0      -7.239   4.879  -0.194  0.00  0.00     0.045 C 
HETATM    6  C   UNK     0      -7.990   5.911   0.631  0.00  0.00     0.045 C 
HETATM    7  C   UNK     0      -7.839   4.535  -1.542  0.00  0.00    -0.031 A 
HETATM    8  C   UNK     0      -9.216   5.288   1.233  0.00  0.00    -0.031 A 
HETATM    9  C   UNK     0      -9.542   4.295  -3.231  0.00  0.00     0.054 A 
HETATM   10  C   UNK     0     -11.410   4.308   1.033  0.00  0.00     0.030 A 
HETATM   11  C   UNK     0      -6.903   4.057  -2.493  0.00  0.00     0.011 A 
HETATM   12  C   UNK     0      -9.296   5.126   2.628  0.00  0.00     0.009 A 
HETATM   13  C   UNK     0      -8.601   3.845  -4.161  0.00  0.00     0.036 A 
HETATM   14  C   UNK     0     -11.481   4.149   2.419  0.00  0.00     0.002 A 
HETATM   15  C   UNK     0      -7.277   3.720  -3.789  0.00  0.00     0.024 A 
HETATM   16  C   UNK     0     -10.423   4.559   3.217  0.00  0.00     0.001 A 
ENDROOT
BRANCH   2  17
HETATM   17  C   UNK     0     -11.491   5.545  -1.579  0.00  0.00     0.131 C 
BRANCH  17  18
HETATM   18  C   UNK     0     -11.436   7.061  -1.759  0.00  0.00     0.050 C 
BRANCH  18  19
HETATM   19  C   UNK     0     -12.543   7.830  -1.030  0.00  0.00     0.273 C 
BRANCH  19  20
HETATM   20  N   UNK     0     -13.228   8.766  -1.913  0.00  0.00     0.080 N 
HETATM   21  C   UNK     0     -14.443   8.162  -2.462  0.00  0.00     0.309 C 
HETATM   22  C   UNK     0     -12.342   9.196  -2.996  0.00  0.00     0.309 C 
ENDBRANCH  19  20
ENDBRANCH  18  19
ENDBRANCH  17  18
ENDBRANCH   2  17
TORSDOF 4
ENDMDL
MODEL 2
REMARK VINA RESULT:      -6.2      2.901      5.868
REMARK  4 active torsions:
REMARK  status: ('A' for Active; 'I' for Inactive)
REMARK    1  A    between atoms: N_2  and  C_4 
REMARK    2  A    between atoms: N_3  and  C_12 
REMARK    3  A    between atoms: C_4  and  C_11 
REMARK    4  A    between atoms: C_11  and  C_12 
ROOT
HETATM    1 Cl   UNK     0     -13.691   7.271   0.810  0.00  0.00    -0.084 Cl
HETATM    2  N   UNK     0     -10.189   3.989  -1.055  0.00  0.00    -0.346 N 
HETATM    3  C   UNK     0     -10.422   5.124  -0.231  0.00  0.00     0.042 A 
HETATM    4  C   UNK     0      -9.028   3.675  -1.808  0.00  0.00     0.041 A 
HETATM    5  C   UNK     0      -7.926   5.512   0.432  0.00  0.00     0.045 C 
HETATM    6  C   UNK     0      -7.574   4.050   0.216  0.00  0.00     0.045 C 
HETATM    7  C   UNK     0      -9.401   5.854   0.427  0.00  0.00    -0.031 A 
HETATM    8  C   UNK     0      -7.747   3.692  -1.231  0.00  0.00    -0.031 A 
HETATM    9  C   UNK     0     -11.746   5.613  -0.077  0.00  0.00     0.054 A 
HETATM   10  C   UNK     0      -9.129   3.323  -3.172  0.00  0.00     0.030 A 
HETATM   11  C   UNK     0      -9.734   7.020   1.161  0.00  0.00     0.011 A 
HETATM   12  C   UNK     0      -6.617   3.363  -2.002  0.00  0.00     0.009 A 
HETATM   13  C   UNK     0     -12.057   6.754   0.668  0.00  0.00     0.036 A 
HETATM   14  C   UNK     0      -8.003   2.999  -3.931  0.00  0.00     0.002 A 
HETATM   15  C   UNK     0     -11.046   7.464   1.285  0.00  0.00     0.024 A 
HETATM   16  C   UNK     0      -6.745   3.019  -3.344  0.00  0.00     0.001 A 
ENDROOT
BRANCH   2  17
HETATM   17  C   UNK     0     -11.321   3.081  -1.301  0.00  0.00     0.131 C 
BRANCH  17  18
HETATM   18  C   UNK     0     -11.098   1.737  -0.610  0.00  0.00     0.050 C 
BRANCH  18  19
HETATM   19  C   UNK     0     -11.539   1.694   0.856  0.00  0.00     0.273 C 
BRANCH  19  20
HETATM   20  N   UNK     0     -10.404   1.585   1.764  0.00  0.00     0.080 N 
HETATM   21  C   UNK     0     -10.549   0.415   2.633  0.00  0.00     0.309 C 
HETATM   22  C   UNK     0     -10.269   2.800   2.570  0.00  0.00     0.309 C 
ENDBRANCH  19  20
ENDBRANCH  18  19
ENDBRANCH  17  18
ENDBRANCH   2  17
TORSDOF 4
ENDMDL
MODEL 3
REMARK VINA RESULT:      -6.2      3.174      6.211
REMARK  4 active torsions:
REMARK  status: ('A' for Active; 'I' for Inactive)
REMARK    1  A    between atoms: N_2  and  C_4 
REMARK    2  A    between atoms: N_3  and  C_12 
REMARK    3  A    between atoms: C_4  and  C_11 
REMARK    4  A    between atoms: C_11  and  C_12 
ROOT
HETATM    1 Cl   UNK     0     -15.447   5.537   1.261  0.00  0.00    -0.084 Cl
HETATM    2  N   UNK     0     -10.580   4.110   0.370  0.00  0.00    -0.346 N 
HETATM    3  C   UNK     0     -11.443   5.151   0.810  0.00  0.00     0.042 A 
HETATM    4  C   UNK     0      -9.331   4.227  -0.294  0.00  0.00     0.041 A 
HETATM    5  C   UNK     0      -9.568   6.921   1.222  0.00  0.00     0.045 C 
HETATM    6  C   UNK     0      -8.518   5.848   1.457  0.00  0.00     0.045 C 
HETATM    7  C   UNK     0     -11.006   6.450   1.169  0.00  0.00    -0.031 A 
HETATM    8  C   UNK     0      -8.309   5.056   0.199  0.00  0.00    -0.031 A 
HETATM    9  C   UNK     0     -12.844   4.921   0.856  0.00  0.00     0.054 A 
HETATM   10  C   UNK     0      -9.074   3.500  -1.476  0.00  0.00     0.030 A 
HETATM   11  C   UNK     0     -11.959   7.440   1.517  0.00  0.00     0.011 A 
HETATM   12  C   UNK     0      -7.077   5.141  -0.474  0.00  0.00     0.009 A 
HETATM   13  C   UNK     0     -13.766   5.904   1.222  0.00  0.00     0.036 A 
HETATM   14  C   UNK     0      -7.849   3.590  -2.140  0.00  0.00     0.002 A 
HETATM   15  C   UNK     0     -13.323   7.171   1.549  0.00  0.00     0.024 A 
HETATM   16  C   UNK     0      -6.849   4.412  -1.638  0.00  0.00     0.001 A 
ENDROOT
BRANCH   2  17
HETATM   17  C   UNK     0     -11.077   2.727   0.462  0.00  0.00     0.131 C 
BRANCH  17  18
HETATM   18  C   UNK     0     -10.314   1.948   1.531  0.00  0.00     0.050 C 
BRANCH  18  19
HETATM   19  C   UNK     0     -10.945   1.996   2.926  0.00  0.00     0.273 C 
BRANCH  19  20
HETATM   20  N   UNK     0     -10.047   2.589   3.910  0.00  0.00     0.080 N 
HETATM   21  C   UNK     0     -10.002   1.774   5.125  0.00  0.00     0.309 C 
HETATM   22  C   UNK     0     -10.464   3.956   4.232  0.00  0.00     0.309 C 
ENDBRANCH  19  20
ENDBRANCH  18  19
ENDBRANCH  17  18
ENDBRANCH   2  17
TORSDOF 4
ENDMDL
