MODEL 1
REMARK VINA RESULT:      -6.0      0.000      0.000
REMARK  4 active torsions:
REMARK  status: ('A' for Active; 'I' for Inactive)
REMARK    1  A    between atoms: N_2  and  C_4 
REMARK    2  A    between atoms: N_3  and  C_12 
REMARK    3  A    between atoms: C_4  and  C_11 
REMARK    4  A    between atoms: C_11  and  C_12 
ROOT
HETATM    1 Cl   UNK     0      27.021   8.022  24.116  0.00  0.00    -0.084 Cl
HETATM    2  N   UNK     0      24.759   7.599  28.723  0.00  0.00    -0.346 N 
HETATM    3  C   UNK     0      25.887   8.079  28.001  0.00  0.00     0.042 A 
HETATM    4  C   UNK     0      24.707   7.145  30.066  0.00  0.00     0.041 A 
HETATM    5  C   UNK     0      27.165   9.034  30.068  0.00  0.00     0.045 C 
HETATM    6  C   UNK     0      25.878   9.234  30.852  0.00  0.00     0.045 C 
HETATM    7  C   UNK     0      27.009   8.704  28.599  0.00  0.00    -0.031 A 
HETATM    8  C   UNK     0      25.235   7.905  31.123  0.00  0.00    -0.031 A 
HETATM    9  C   UNK     0      25.944   7.890  26.594  0.00  0.00     0.054 A 
HETATM   10  C   UNK     0      24.106   5.907  30.384  0.00  0.00     0.030 A 
HETATM   11  C   UNK     0      28.117   9.072  27.796  0.00  0.00     0.011 A 
HETATM   12  C   UNK     0      25.155   7.434  32.446  0.00  0.00     0.009 A 
HETATM   13  C   UNK     0      27.038   8.280  25.817  0.00  0.00     0.036 A 
HETATM   14  C   UNK     0      24.032   5.445  31.699  0.00  0.00     0.002 A 
HETATM   15  C   UNK     0      28.132   8.868  26.421  0.00  0.00     0.024 A 
HETATM   16  C   UNK     0      24.557   6.209  32.732  0.00  0.00     0.001 A 
ENDROOT
BRANCH   2  17
HETATM   17  C   UNK     0      23.508   7.392  27.976  0.00  0.00     0.131 C 
BRANCH  17  18
HETATM   18  C   UNK     0      22.569   8.584  28.151  0.00  0.00     0.050 C 
BRANCH  18  19
HETATM   19  C   UNK     0      21.086   8.263  27.945  0.00  0.00     0.273 C 
BRANCH  19  20
HETATM   20  N   UNK     0      20.314   9.449  27.598  0.00  0.00     0.080 N 
HETATM   21  C   UNK     0      21.182  10.626  27.526  0.00  0.00     0.309 C 
HETATM   22  C   UNK     0      19.241   9.670  28.570  0.00  0.00     0.309 C 
ENDBRANCH  19  20
ENDBRANCH  18  19
ENDBRANCH  17  18
ENDBRANCH   2  17
TORSDOF 4
ENDMDL
MODEL 2
REMARK VINA RESULT:      -5.4     20.797     22.220
REMARK  4 active torsions:
REMARK  status: ('A' for Active; 'I' for Inactive)
REMARK    1  A    between atoms: N_2  and  C_4 
REMARK    2  A    between atoms: N_3  and  C_12 
REMARK    3  A    between atoms: C_4  and  C_11 
REMARK    4  A    between atoms: C_11  and  C_12 
ROOT
HETATM    1 Cl   UNK     0      28.927  32.379  30.644  0.00  0.00    -0.084 Cl
HETATM    2  N   UNK     0      25.986  29.275  33.512  0.00  0.00    -0.346 N 
HETATM    3  C   UNK     0      27.224  29.429  32.830  0.00  0.00     0.042 A 
HETATM    4  C   UNK     0      25.248  28.083  33.731  0.00  0.00     0.041 A 
HETATM    5  C   UNK     0      28.148  27.048  33.372  0.00  0.00     0.045 C 
HETATM    6  C   UNK     0      27.305  26.938  34.632  0.00  0.00     0.045 C 
HETATM    7  C   UNK     0      28.208  28.415  32.724  0.00  0.00    -0.031 A 
HETATM    8  C   UNK     0      25.848  26.932  34.271  0.00  0.00    -0.031 A 
HETATM    9  C   UNK     0      27.501  30.650  32.158  0.00  0.00     0.054 A 
HETATM   10  C   UNK     0      23.872  28.021  33.420  0.00  0.00     0.030 A 
HETATM   11  C   UNK     0      29.373  28.646  31.952  0.00  0.00     0.011 A 
HETATM   12  C   UNK     0      25.086  25.770  34.489  0.00  0.00     0.009 A 
HETATM   13  C   UNK     0      28.667  30.865  31.418  0.00  0.00     0.036 A 
HETATM   14  C   UNK     0      23.123  26.863  33.637  0.00  0.00     0.002 A 
HETATM   15  C   UNK     0      29.605  29.857  31.310  0.00  0.00     0.024 A 
HETATM   16  C   UNK     0      23.731  25.736  34.173  0.00  0.00     0.001 A 
ENDROOT
BRANCH   2  17
HETATM   17  C   UNK     0      25.277  30.497  33.925  0.00  0.00     0.131 C 
BRANCH  17  18
HETATM   18  C   UNK     0      25.609  30.852  35.373  0.00  0.00     0.050 C 
BRANCH  18  19
HETATM   19  C   UNK     0      26.060  32.300  35.587  0.00  0.00     0.273 C 
BRANCH  19  20
HETATM   20  N   UNK     0      27.343  32.375  36.273  0.00  0.00     0.080 N 
HETATM   21  C   UNK     0      27.900  33.726  36.181  0.00  0.00     0.309 C 
HETATM   22  C   UNK     0      28.284  31.401  35.717  0.00  0.00     0.309 C 
ENDBRANCH  19  20
ENDBRANCH  18  19
ENDBRANCH  17  18
ENDBRANCH   2  17
TORSDOF 4
ENDMDL
MODEL 3
REMARK VINA RESULT:      -5.3      7.756     10.218
REMARK  4 active torsions:
REMARK  status: ('A' for Active; 'I' for Inactive)
REMARK    1  A    between atoms: N_2  and  C_4 
REMARK    2  A    between atoms: N_3  and  C_12 
REMARK    3  A    between atoms: C_4  and  C_11 
REMARK    4  A    between atoms: C_11  and  C_12 
ROOT
HETATM    1 Cl   UNK     0      32.336  12.393  21.885  0.00  0.00    -0.084 Cl
HETATM    2  N   UNK     0      28.326  14.952  23.858  0.00  0.00    -0.346 N 
HETATM    3  C   UNK     0      29.233  13.870  24.025  0.00  0.00     0.042 A 
HETATM    4  C   UNK     0      26.980  15.044  24.298  0.00  0.00     0.041 A 
HETATM    5  C   UNK     0      28.212  12.983  26.258  0.00  0.00     0.045 C 
HETATM    6  C   UNK     0      27.660  14.350  26.624  0.00  0.00     0.045 C 
HETATM    7  C   UNK     0      29.177  12.940  25.092  0.00  0.00    -0.031 A 
HETATM    8  C   UNK     0      26.617  14.763  25.626  0.00  0.00    -0.031 A 
HETATM    9  C   UNK     0      30.242  13.650  23.049  0.00  0.00     0.054 A 
HETATM   10  C   UNK     0      25.957  15.436  23.407  0.00  0.00     0.030 A 
HETATM   11  C   UNK     0      30.081  11.849  25.121  0.00  0.00     0.011 A 
HETATM   12  C   UNK     0      25.276  14.876  26.035  0.00  0.00     0.009 A 
HETATM   13  C   UNK     0      31.137  12.579  23.106  0.00  0.00     0.036 A 
HETATM   14  C   UNK     0      24.627  15.544  23.819  0.00  0.00     0.002 A 
HETATM   15  C   UNK     0      31.054  11.671  24.143  0.00  0.00     0.024 A 
HETATM   16  C   UNK     0      24.287  15.264  25.135  0.00  0.00     0.001 A 
ENDROOT
BRANCH   2  17
HETATM   17  C   UNK     0      28.749  16.071  22.999  0.00  0.00     0.131 C 
BRANCH  17  18
HETATM   18  C   UNK     0      29.324  17.210  23.839  0.00  0.00     0.050 C 
BRANCH  18  19
HETATM   19  C   UNK     0      28.808  18.602  23.463  0.00  0.00     0.273 C 
BRANCH  19  20
HETATM   20  N   UNK     0      29.809  19.636  23.697  0.00  0.00     0.080 N 
HETATM   21  C   UNK     0      29.983  20.465  22.503  0.00  0.00     0.309 C 
HETATM   22  C   UNK     0      31.087  19.038  24.088  0.00  0.00     0.309 C 
ENDBRANCH  19  20
ENDBRANCH  18  19
ENDBRANCH  17  18
ENDBRANCH   2  17
TORSDOF 4
ENDMDL
