MODEL 1
REMARK VINA RESULT:      -8.3      0.000      0.000
REMARK  4 active torsions:
REMARK  status: ('A' for Active; 'I' for Inactive)
REMARK    1  A    between atoms: N_2  and  C_4 
REMARK    2  A    between atoms: N_3  and  C_12 
REMARK    3  A    between atoms: C_4  and  C_11 
REMARK    4  A    between atoms: C_11  and  C_12 
ROOT
HETATM    1 Cl   UNK     0     -22.642  11.048  15.007  0.00  0.00    -0.084 Cl
HETATM    2  N   UNK     0     -23.371   6.175  16.505  0.00  0.00    -0.346 N 
HETATM    3  C   UNK     0     -22.470   7.275  16.462  0.00  0.00     0.042 A 
HETATM    4  C   UNK     0     -23.065   4.789  16.486  0.00  0.00     0.041 A 
HETATM    5  C   UNK     0     -20.477   6.056  17.628  0.00  0.00     0.045 C 
HETATM    6  C   UNK     0     -21.405   5.098  18.357  0.00  0.00     0.045 C 
HETATM    7  C   UNK     0     -21.136   7.231  16.936  0.00  0.00    -0.031 A 
HETATM    8  C   UNK     0     -22.122   4.230  17.365  0.00  0.00    -0.031 A 
HETATM    9  C   UNK     0     -22.889   8.494  15.866  0.00  0.00     0.054 A 
HETATM   10  C   UNK     0     -23.714   3.922  15.581  0.00  0.00     0.030 A 
HETATM   11  C   UNK     0     -20.295   8.360  16.772  0.00  0.00     0.011 A 
HETATM   12  C   UNK     0     -21.851   2.850  17.331  0.00  0.00     0.009 A 
HETATM   13  C   UNK     0     -22.051   9.604  15.733  0.00  0.00     0.036 A 
HETATM   14  C   UNK     0     -23.438   2.553  15.551  0.00  0.00     0.002 A 
HETATM   15  C   UNK     0     -20.747   9.535  16.183  0.00  0.00     0.024 A 
HETATM   16  C   UNK     0     -22.506   2.017  16.428  0.00  0.00     0.001 A 
ENDROOT
BRANCH   2  17
HETATM   17  C   UNK     0     -24.810   6.467  16.405  0.00  0.00     0.131 C 
BRANCH  17  18
HETATM   18  C   UNK     0     -25.461   6.458  17.787  0.00  0.00     0.050 C 
BRANCH  18  19
HETATM   19  C   UNK     0     -25.706   5.062  18.367  0.00  0.00     0.273 C 
BRANCH  19  20
HETATM   20  N   UNK     0     -27.105   4.667  18.267  0.00  0.00     0.080 N 
HETATM   21  C   UNK     0     -27.273   3.606  17.272  0.00  0.00     0.309 C 
HETATM   22  C   UNK     0     -27.943   5.818  17.925  0.00  0.00     0.309 C 
ENDBRANCH  19  20
ENDBRANCH  18  19
ENDBRANCH  17  18
ENDBRANCH   2  17
TORSDOF 4
ENDMDL
MODEL 2
REMARK VINA RESULT:      -7.2     29.853     33.111
REMARK  4 active torsions:
REMARK  status: ('A' for Active; 'I' for Inactive)
REMARK    1  A    between atoms: N_2  and  C_4 
REMARK    2  A    between atoms: N_3  and  C_12 
REMARK    3  A    between atoms: C_4  and  C_11 
REMARK    4  A    between atoms: C_11  and  C_12 
ROOT
HETATM    1 Cl   UNK     0     -19.904 -21.732  16.074  0.00  0.00    -0.084 Cl
HETATM    2  N   UNK     0     -21.562 -26.449  14.843  0.00  0.00    -0.346 N 
HETATM    3  C   UNK     0     -20.659 -25.396  14.529  0.00  0.00     0.042 A 
HETATM    4  C   UNK     0     -22.155 -27.388  13.960  0.00  0.00     0.041 A 
HETATM    5  C   UNK     0     -19.575 -26.558  12.457  0.00  0.00     0.045 C 
HETATM    6  C   UNK     0     -19.899 -27.945  12.985  0.00  0.00     0.045 C 
HETATM    7  C   UNK     0     -19.771 -25.410  13.426  0.00  0.00    -0.031 A 
HETATM    8  C   UNK     0     -21.387 -28.132  13.049  0.00  0.00    -0.031 A 
HETATM    9  C   UNK     0     -20.660 -24.219  15.324  0.00  0.00     0.054 A 
HETATM   10  C   UNK     0     -23.549 -27.612  13.980  0.00  0.00     0.030 A 
HETATM   11  C   UNK     0     -18.969 -24.273  13.155  0.00  0.00     0.011 A 
HETATM   12  C   UNK     0     -22.004 -29.065  12.195  0.00  0.00     0.009 A 
HETATM   13  C   UNK     0     -19.847 -23.115  15.052  0.00  0.00     0.036 A 
HETATM   14  C   UNK     0     -24.155 -28.539  13.129  0.00  0.00     0.002 A 
HETATM   15  C   UNK     0     -19.002 -23.140  13.960  0.00  0.00     0.024 A 
HETATM   16  C   UNK     0     -23.380 -29.267  12.236  0.00  0.00     0.001 A 
ENDROOT
BRANCH   2  17
HETATM   17  C   UNK     0     -22.085 -26.512  16.217  0.00  0.00     0.131 C 
BRANCH  17  18
HETATM   18  C   UNK     0     -21.216 -27.420  17.086  0.00  0.00     0.050 C 
BRANCH  18  19
HETATM   19  C   UNK     0     -21.881 -28.740  17.492  0.00  0.00     0.273 C 
BRANCH  19  20
HETATM   20  N   UNK     0     -20.991 -29.878  17.302  0.00  0.00     0.080 N 
HETATM   21  C   UNK     0     -20.561 -30.419  18.593  0.00  0.00     0.309 C 
HETATM   22  C   UNK     0     -19.827 -29.497  16.500  0.00  0.00     0.309 C 
ENDBRANCH  19  20
ENDBRANCH  18  19
ENDBRANCH  17  18
ENDBRANCH   2  17
TORSDOF 4
ENDMDL
MODEL 3
REMARK VINA RESULT:      -7.0     24.396     27.914
REMARK  4 active torsions:
REMARK  status: ('A' for Active; 'I' for Inactive)
REMARK    1  A    between atoms: N_2  and  C_4 
REMARK    2  A    between atoms: N_3  and  C_12 
REMARK    3  A    between atoms: C_4  and  C_11 
REMARK    4  A    between atoms: C_11  and  C_12 
ROOT
HETATM    1 Cl   UNK     0     -35.062 -13.143  17.343  0.00  0.00    -0.084 Cl
HETATM    2  N   UNK     0     -37.668 -17.556  16.835  0.00  0.00    -0.346 N 
HETATM    3  C   UNK     0     -37.079 -16.448  16.164  0.00  0.00     0.042 A 
HETATM    4  C   UNK     0     -38.803 -18.314  16.447  0.00  0.00     0.041 A 
HETATM    5  C   UNK     0     -37.779 -17.170  13.754  0.00  0.00     0.045 C 
HETATM    6  C   UNK     0     -37.837 -18.638  14.141  0.00  0.00     0.045 C 
HETATM    7  C   UNK     0     -37.148 -16.235  14.765  0.00  0.00    -0.031 A 
HETATM    8  C   UNK     0     -38.922 -18.855  15.155  0.00  0.00    -0.031 A 
HETATM    9  C   UNK     0     -36.415 -15.448  16.923  0.00  0.00     0.054 A 
HETATM   10  C   UNK     0     -39.851 -18.558  17.360  0.00  0.00     0.030 A 
HETATM   11  C   UNK     0     -36.597 -15.055  14.207  0.00  0.00     0.011 A 
HETATM   12  C   UNK     0     -40.054 -19.613  14.805  0.00  0.00     0.009 A 
HETATM   13  C   UNK     0     -35.858 -14.301  16.350  0.00  0.00     0.036 A 
HETATM   14  C   UNK     0     -40.972 -19.311  17.005  0.00  0.00     0.002 A 
HETATM   15  C   UNK     0     -35.954 -14.101  14.987  0.00  0.00     0.024 A 
HETATM   16  C   UNK     0     -41.073 -19.839  15.726  0.00  0.00     0.001 A 
ENDROOT
BRANCH   2  17
HETATM   17  C   UNK     0     -37.157 -17.892  18.174  0.00  0.00     0.131 C 
BRANCH  17  18
HETATM   18  C   UNK     0     -36.207 -19.086  18.106  0.00  0.00     0.050 C 
BRANCH  18  19
HETATM   19  C   UNK     0     -35.959 -19.780  19.449  0.00  0.00     0.273 C 
BRANCH  19  20
HETATM   20  N   UNK     0     -34.667 -20.452  19.485  0.00  0.00     0.080 N 
HETATM   21  C   UNK     0     -34.223 -20.792  18.132  0.00  0.00     0.309 C 
HETATM   22  C   UNK     0     -34.734 -21.658  20.313  0.00  0.00     0.309 C 
ENDBRANCH  19  20
ENDBRANCH  18  19
ENDBRANCH  17  18
ENDBRANCH   2  17
TORSDOF 4
ENDMDL
