MODEL 1
REMARK VINA RESULT:      -8.1      0.000      0.000
REMARK  5 active torsions:
REMARK  status: ('A' for Active; 'I' for Inactive)
REMARK    1  A    between atoms: O_1  and  C_15 
REMARK    2  A    between atoms: C_3  and  C_4 
REMARK    3  A    between atoms: C_4  and  C_5 
REMARK    4  A    between atoms: C_6  and  C_7 
REMARK    5  A    between atoms: C_7  and  C_15 
ROOT
HETATM    1  C   UNK     0      54.661 -12.085  31.144  0.00  0.00    -0.058 A 
HETATM    2  C   UNK     0      54.802 -11.505  33.851  0.00  0.00    -0.044 A 
HETATM    3  C   UNK     0      53.898 -11.048  31.657  0.00  0.00     0.007 A 
HETATM    4  C   UNK     0      55.493 -12.838  31.958  0.00  0.00     0.007 A 
HETATM    5  C   UNK     0      53.969 -10.757  33.018  0.00  0.00     0.008 A 
HETATM    6  C   UNK     0      55.564 -12.546  33.320  0.00  0.00     0.008 A 
ENDROOT
BRANCH   2   7
HETATM    7  C   UNK     0      54.876 -11.194  35.308  0.00  0.00     0.112 C 
HETATM    8  C   UNK     0      55.442 -12.346  36.164  0.00  0.00     0.026 C 
BRANCH   7   9
HETATM    9  C   UNK     0      55.693  -9.932  35.604  0.00  0.00     0.148 C 
HETATM   10  O   UNK     0      55.259  -8.949  36.189  0.00  0.00    -0.649 OA
BRANCH   9  11
HETATM   11  O   UNK     0      56.970 -10.002  35.140  0.00  0.00    -0.776 OA
HETATM   12  H   UNK     0      57.012  -9.872  34.168  0.00  0.00     0.167 HD
ENDBRANCH   9  11
ENDBRANCH   7   9
ENDBRANCH   2   7
BRANCH   1  13
HETATM   13  C   UNK     0      54.586 -12.400  29.669  0.00  0.00     0.042 C 
BRANCH  13  14
HETATM   14  C   UNK     0      53.372 -11.771  28.960  0.00  0.00    -0.019 C 
HETATM   15  C   UNK     0      53.648 -11.504  27.479  0.00  0.00     0.010 C 
HETATM   16  C   UNK     0      52.156 -12.690  29.099  0.00  0.00     0.010 C 
ENDBRANCH  13  14
ENDBRANCH   1  13
TORSDOF 5
ENDMDL
MODEL 2
REMARK VINA RESULT:      -8.1      3.414      6.361
REMARK  5 active torsions:
REMARK  status: ('A' for Active; 'I' for Inactive)
REMARK    1  A    between atoms: O_1  and  C_15 
REMARK    2  A    between atoms: C_3  and  C_4 
REMARK    3  A    between atoms: C_4  and  C_5 
REMARK    4  A    between atoms: C_6  and  C_7 
REMARK    5  A    between atoms: C_7  and  C_15 
ROOT
HETATM    1  C   UNK     0      54.997 -12.117  32.563  0.00  0.00    -0.058 A 
HETATM    2  C   UNK     0      53.780 -11.352  30.192  0.00  0.00    -0.044 A 
HETATM    3  C   UNK     0      55.389 -12.713  31.375  0.00  0.00     0.007 A 
HETATM    4  C   UNK     0      54.008 -11.146  32.590  0.00  0.00     0.007 A 
HETATM    5  C   UNK     0      54.777 -12.328  30.183  0.00  0.00     0.008 A 
HETATM    6  C   UNK     0      53.396 -10.761  31.396  0.00  0.00     0.008 A 
ENDROOT
BRANCH   2   7
HETATM    7  C   UNK     0      53.125 -10.941  28.917  0.00  0.00     0.112 C 
HETATM    8  C   UNK     0      54.077 -10.919  27.704  0.00  0.00     0.026 C 
BRANCH   7   9
HETATM    9  C   UNK     0      51.918 -11.814  28.562  0.00  0.00     0.148 C 
HETATM   10  O   UNK     0      51.290 -12.488  29.368  0.00  0.00    -0.649 OA
BRANCH   9  11
HETATM   11  O   UNK     0      51.606 -11.780  27.238  0.00  0.00    -0.776 OA
HETATM   12  H   UNK     0      51.578 -10.862  26.894  0.00  0.00     0.167 HD
ENDBRANCH   9  11
ENDBRANCH   7   9
ENDBRANCH   2   7
BRANCH   1  13
HETATM   13  C   UNK     0      55.660 -12.533  33.854  0.00  0.00     0.042 C 
BRANCH  13  14
HETATM   14  C   UNK     0      55.373 -11.586  35.034  0.00  0.00    -0.019 C 
HETATM   15  C   UNK     0      55.366 -12.325  36.375  0.00  0.00     0.010 C 
HETATM   16  C   UNK     0      56.418 -10.468  35.069  0.00  0.00     0.010 C 
ENDBRANCH  13  14
ENDBRANCH   1  13
TORSDOF 5
ENDMDL
MODEL 3
REMARK VINA RESULT:      -7.6      3.313      6.364
REMARK  5 active torsions:
REMARK  status: ('A' for Active; 'I' for Inactive)
REMARK    1  A    between atoms: O_1  and  C_15 
REMARK    2  A    between atoms: C_3  and  C_4 
REMARK    3  A    between atoms: C_4  and  C_5 
REMARK    4  A    between atoms: C_6  and  C_7 
REMARK    5  A    between atoms: C_7  and  C_15 
ROOT
HETATM    1  C   UNK     0      54.691 -11.841  32.053  0.00  0.00    -0.058 A 
HETATM    2  C   UNK     0      53.971 -11.633  29.384  0.00  0.00    -0.044 A 
HETATM    3  C   UNK     0      55.271 -12.692  31.125  0.00  0.00     0.007 A 
HETATM    4  C   UNK     0      53.758 -10.889  31.674  0.00  0.00     0.007 A 
HETATM    5  C   UNK     0      54.909 -12.587  29.783  0.00  0.00     0.008 A 
HETATM    6  C   UNK     0      53.396 -10.784  30.330  0.00  0.00     0.008 A 
ENDROOT
BRANCH   2   7
HETATM    7  C   UNK     0      53.582 -11.522  27.949  0.00  0.00     0.112 C 
HETATM    8  C   UNK     0      52.114 -11.904  27.667  0.00  0.00     0.026 C 
BRANCH   7   9
HETATM    9  C   UNK     0      53.831 -10.125  27.373  0.00  0.00     0.148 C 
HETATM   10  O   UNK     0      54.934  -9.604  27.273  0.00  0.00    -0.649 OA
BRANCH   9  11
HETATM   11  O   UNK     0      52.689  -9.497  26.983  0.00  0.00    -0.776 OA
HETATM   12  H   UNK     0      52.791  -9.066  26.107  0.00  0.00     0.167 HD
ENDBRANCH   9  11
ENDBRANCH   7   9
ENDBRANCH   2   7
BRANCH   1  13
HETATM   13  C   UNK     0      55.085 -11.953  33.506  0.00  0.00     0.042 C 
BRANCH  13  14
HETATM   14  C   UNK     0      55.149 -10.601  34.240  0.00  0.00    -0.019 C 
HETATM   15  C   UNK     0      53.980 -10.418  35.211  0.00  0.00     0.010 C 
HETATM   16  C   UNK     0      56.472 -10.485  35.000  0.00  0.00     0.010 C 
ENDBRANCH  13  14
ENDBRANCH   1  13
TORSDOF 5
ENDMDL
