MODEL 1
REMARK VINA RESULT:      -7.4      0.000      0.000
REMARK  5 active torsions:
REMARK  status: ('A' for Active; 'I' for Inactive)
REMARK    1  A    between atoms: O_1  and  C_15 
REMARK    2  A    between atoms: C_3  and  C_4 
REMARK    3  A    between atoms: C_4  and  C_5 
REMARK    4  A    between atoms: C_6  and  C_7 
REMARK    5  A    between atoms: C_7  and  C_15 
ROOT
HETATM    1  C   UNK     0     -22.624 -13.958  25.867  0.00  0.00    -0.058 A 
HETATM    2  C   UNK     0     -24.683 -15.779  25.504  0.00  0.00    -0.044 A 
HETATM    3  C   UNK     0     -22.558 -14.857  24.813  0.00  0.00     0.007 A 
HETATM    4  C   UNK     0     -23.698 -13.952  26.743  0.00  0.00     0.007 A 
HETATM    5  C   UNK     0     -23.594 -15.773  24.631  0.00  0.00     0.008 A 
HETATM    6  C   UNK     0     -24.734 -14.868  26.559  0.00  0.00     0.008 A 
ENDROOT
BRANCH   2   7
HETATM    7  C   UNK     0     -25.790 -16.759  25.310  0.00  0.00     0.112 C 
HETATM    8  C   UNK     0     -27.150 -16.109  24.984  0.00  0.00     0.026 C 
BRANCH   7   9
HETATM    9  C   UNK     0     -25.482 -17.795  24.224  0.00  0.00     0.148 C 
HETATM   10  O   UNK     0     -25.446 -17.550  23.025  0.00  0.00    -0.649 OA
BRANCH   9  11
HETATM   11  O   UNK     0     -25.257 -19.040  24.722  0.00  0.00    -0.776 OA
HETATM   12  H   UNK     0     -24.458 -19.452  24.327  0.00  0.00     0.167 HD
ENDBRANCH   9  11
ENDBRANCH   7   9
ENDBRANCH   2   7
BRANCH   1  13
HETATM   13  C   UNK     0     -21.503 -12.966  26.064  0.00  0.00     0.042 C 
BRANCH  13  14
HETATM   14  C   UNK     0     -21.187 -12.128  24.811  0.00  0.00    -0.019 C 
HETATM   15  C   UNK     0     -22.248 -11.055  24.555  0.00  0.00     0.010 C 
HETATM   16  C   UNK     0     -19.814 -11.468  24.961  0.00  0.00     0.010 C 
ENDBRANCH  13  14
ENDBRANCH   1  13
TORSDOF 5
ENDMDL
MODEL 2
REMARK VINA RESULT:      -7.0      2.957      6.174
REMARK  5 active torsions:
REMARK  status: ('A' for Active; 'I' for Inactive)
REMARK    1  A    between atoms: O_1  and  C_15 
REMARK    2  A    between atoms: C_3  and  C_4 
REMARK    3  A    between atoms: C_4  and  C_5 
REMARK    4  A    between atoms: C_6  and  C_7 
REMARK    5  A    between atoms: C_7  and  C_15 
ROOT
HETATM    1  C   UNK     0     -24.473 -15.830  25.358  0.00  0.00    -0.058 A 
HETATM    2  C   UNK     0     -22.595 -13.894  25.999  0.00  0.00    -0.044 A 
HETATM    3  C   UNK     0     -24.676 -15.030  26.471  0.00  0.00     0.007 A 
HETATM    4  C   UNK     0     -23.350 -15.681  24.558  0.00  0.00     0.007 A 
HETATM    5  C   UNK     0     -23.731 -14.056  26.794  0.00  0.00     0.008 A 
HETATM    6  C   UNK     0     -22.406 -14.707  24.882  0.00  0.00     0.008 A 
ENDROOT
BRANCH   2   7
HETATM    7  C   UNK     0     -21.585 -12.853  26.345  0.00  0.00     0.112 C 
HETATM    8  C   UNK     0     -20.199 -13.425  26.710  0.00  0.00     0.026 C 
BRANCH   7   9
HETATM    9  C   UNK     0     -21.397 -11.816  25.234  0.00  0.00     0.148 C 
HETATM   10  O   UNK     0     -22.307 -11.177  24.723  0.00  0.00    -0.649 OA
BRANCH   9  11
HETATM   11  O   UNK     0     -20.099 -11.673  24.851  0.00  0.00    -0.776 OA
HETATM   12  H   UNK     0     -19.803 -12.414  24.281  0.00  0.00     0.167 HD
ENDBRANCH   9  11
ENDBRANCH   7   9
ENDBRANCH   2   7
BRANCH   1  13
HETATM   13  C   UNK     0     -25.496 -16.883  25.008  0.00  0.00     0.042 C 
BRANCH  13  14
HETATM   14  C   UNK     0     -26.814 -16.757  25.794  0.00  0.00    -0.019 C 
HETATM   15  C   UNK     0     -27.867 -15.957  25.024  0.00  0.00     0.010 C 
HETATM   16  C   UNK     0     -27.361 -18.149  26.119  0.00  0.00     0.010 C 
ENDBRANCH  13  14
ENDBRANCH   1  13
TORSDOF 5
ENDMDL
MODEL 3
REMARK VINA RESULT:      -6.9      3.730      4.673
REMARK  5 active torsions:
REMARK  status: ('A' for Active; 'I' for Inactive)
REMARK    1  A    between atoms: O_1  and  C_15 
REMARK    2  A    between atoms: C_3  and  C_4 
REMARK    3  A    between atoms: C_4  and  C_5 
REMARK    4  A    between atoms: C_6  and  C_7 
REMARK    5  A    between atoms: C_7  and  C_15 
ROOT
HETATM    1  C   UNK     0     -22.562 -13.715  25.751  0.00  0.00    -0.058 A 
HETATM    2  C   UNK     0     -23.051 -14.082  28.455  0.00  0.00    -0.044 A 
HETATM    3  C   UNK     0     -23.792 -14.209  26.159  0.00  0.00     0.007 A 
HETATM    4  C   UNK     0     -21.572 -13.402  26.669  0.00  0.00     0.007 A 
HETATM    5  C   UNK     0     -24.037 -14.394  27.519  0.00  0.00     0.008 A 
HETATM    6  C   UNK     0     -21.818 -13.586  28.030  0.00  0.00     0.008 A 
ENDROOT
BRANCH   2   7
HETATM    7  C   UNK     0     -23.313 -14.281  29.910  0.00  0.00     0.112 C 
HETATM    8  C   UNK     0     -24.612 -15.057  30.211  0.00  0.00     0.026 C 
BRANCH   7   9
HETATM    9  C   UNK     0     -22.158 -14.984  30.631  0.00  0.00     0.148 C 
HETATM   10  O   UNK     0     -20.974 -14.753  30.428  0.00  0.00    -0.649 OA
BRANCH   9  11
HETATM   11  O   UNK     0     -22.578 -15.914  31.530  0.00  0.00    -0.776 OA
HETATM   12  H   UNK     0     -23.544 -16.074  31.466  0.00  0.00     0.167 HD
ENDBRANCH   9  11
ENDBRANCH   7   9
ENDBRANCH   2   7
BRANCH   1  13
HETATM   13  C   UNK     0     -22.297 -13.514  24.279  0.00  0.00     0.042 C 
BRANCH  13  14
HETATM   14  C   UNK     0     -22.048 -12.046  23.886  0.00  0.00    -0.019 C 
HETATM   15  C   UNK     0     -23.147 -11.118  24.408  0.00  0.00     0.010 C 
HETATM   16  C   UNK     0     -20.690 -11.588  24.422  0.00  0.00     0.010 C 
ENDBRANCH  13  14
ENDBRANCH   1  13
TORSDOF 5
ENDMDL
