MODEL 1
REMARK VINA RESULT:      -6.7      0.000      0.000
REMARK  5 active torsions:
REMARK  status: ('A' for Active; 'I' for Inactive)
REMARK    1  A    between atoms: O_1  and  C_15 
REMARK    2  A    between atoms: C_3  and  C_4 
REMARK    3  A    between atoms: C_4  and  C_5 
REMARK    4  A    between atoms: C_6  and  C_7 
REMARK    5  A    between atoms: C_7  and  C_15 
ROOT
HETATM    1  C   UNK     0     -23.034 -13.643  26.704  0.00  0.00    -0.058 A 
HETATM    2  C   UNK     0     -23.902 -14.278  29.259  0.00  0.00    -0.044 A 
HETATM    3  C   UNK     0     -22.194 -13.415  27.783  0.00  0.00     0.007 A 
HETATM    4  C   UNK     0     -24.300 -14.182  26.877  0.00  0.00     0.007 A 
HETATM    5  C   UNK     0     -22.631 -13.735  29.068  0.00  0.00     0.008 A 
HETATM    6  C   UNK     0     -24.735 -14.502  28.164  0.00  0.00     0.008 A 
ENDROOT
BRANCH   2   7
HETATM    7  C   UNK     0     -24.369 -14.619  30.634  0.00  0.00     0.112 C 
HETATM    8  C   UNK     0     -25.782 -15.235  30.679  0.00  0.00     0.026 C 
BRANCH   7   9
HETATM    9  C   UNK     0     -23.412 -15.564  31.368  0.00  0.00     0.148 C 
HETATM   10  O   UNK     0     -22.834 -15.290  32.411  0.00  0.00    -0.649 OA
BRANCH   9  11
HETATM   11  O   UNK     0     -23.254 -16.759  30.738  0.00  0.00    -0.776 OA
HETATM   12  H   UNK     0     -22.571 -17.314  31.174  0.00  0.00     0.167 HD
ENDBRANCH   9  11
ENDBRANCH   7   9
ENDBRANCH   2   7
BRANCH   1  13
HETATM   13  C   UNK     0     -22.562 -13.297  25.313  0.00  0.00     0.042 C 
BRANCH  13  14
HETATM   14  C   UNK     0     -22.348 -11.789  25.084  0.00  0.00    -0.019 C 
HETATM   15  C   UNK     0     -21.154 -11.511  24.168  0.00  0.00     0.010 C 
HETATM   16  C   UNK     0     -23.612 -11.170  24.484  0.00  0.00     0.010 C 
ENDBRANCH  13  14
ENDBRANCH   1  13
TORSDOF 5
ENDMDL
MODEL 2
REMARK VINA RESULT:      -6.4      3.823      4.970
REMARK  5 active torsions:
REMARK  status: ('A' for Active; 'I' for Inactive)
REMARK    1  A    between atoms: O_1  and  C_15 
REMARK    2  A    between atoms: C_3  and  C_4 
REMARK    3  A    between atoms: C_4  and  C_5 
REMARK    4  A    between atoms: C_6  and  C_7 
REMARK    5  A    between atoms: C_7  and  C_15 
ROOT
HETATM    1  C   UNK     0     -23.592 -13.816  25.911  0.00  0.00    -0.058 A 
HETATM    2  C   UNK     0     -25.439 -15.845  25.513  0.00  0.00    -0.044 A 
HETATM    3  C   UNK     0     -24.683 -13.918  26.761  0.00  0.00     0.007 A 
HETATM    4  C   UNK     0     -23.407 -14.708  24.866  0.00  0.00     0.007 A 
HETATM    5  C   UNK     0     -25.612 -14.938  26.560  0.00  0.00     0.008 A 
HETATM    6  C   UNK     0     -24.337 -15.729  24.667  0.00  0.00     0.008 A 
ENDROOT
BRANCH   2   7
HETATM    7  C   UNK     0     -26.434 -16.935  25.298  0.00  0.00     0.112 C 
HETATM    8  C   UNK     0     -27.861 -16.430  25.000  0.00  0.00     0.026 C 
BRANCH   7   9
HETATM    9  C   UNK     0     -26.025 -17.899  24.179  0.00  0.00     0.148 C 
HETATM   10  O   UNK     0     -25.922 -17.587  23.001  0.00  0.00    -0.649 OA
BRANCH   9  11
HETATM   11  O   UNK     0     -25.790 -19.163  24.624  0.00  0.00    -0.776 OA
HETATM   12  H   UNK     0     -26.550 -19.758  24.448  0.00  0.00     0.167 HD
ENDBRANCH   9  11
ENDBRANCH   7   9
ENDBRANCH   2   7
BRANCH   1  13
HETATM   13  C   UNK     0     -22.586 -12.712  26.129  0.00  0.00     0.042 C 
BRANCH  13  14
HETATM   14  C   UNK     0     -21.936 -12.198  24.830  0.00  0.00    -0.019 C 
HETATM   15  C   UNK     0     -22.735 -11.054  24.202  0.00  0.00     0.010 C 
HETATM   16  C   UNK     0     -20.507 -11.731  25.115  0.00  0.00     0.010 C 
ENDBRANCH  13  14
ENDBRANCH   1  13
TORSDOF 5
ENDMDL
MODEL 3
REMARK VINA RESULT:      -6.3     27.894     30.757
REMARK  5 active torsions:
REMARK  status: ('A' for Active; 'I' for Inactive)
REMARK    1  A    between atoms: O_1  and  C_15 
REMARK    2  A    between atoms: C_3  and  C_4 
REMARK    3  A    between atoms: C_4  and  C_5 
REMARK    4  A    between atoms: C_6  and  C_7 
REMARK    5  A    between atoms: C_7  and  C_15 
ROOT
HETATM    1  C   UNK     0     -19.960  15.454  15.898  0.00  0.00    -0.058 A 
HETATM    2  C   UNK     0     -19.140  13.211  17.307  0.00  0.00    -0.044 A 
HETATM    3  C   UNK     0     -18.607  15.164  15.986  0.00  0.00     0.007 A 
HETATM    4  C   UNK     0     -20.911  14.644  16.501  0.00  0.00     0.007 A 
HETATM    5  C   UNK     0     -18.195  14.036  16.695  0.00  0.00     0.008 A 
HETATM    6  C   UNK     0     -20.498  13.516  17.209  0.00  0.00     0.008 A 
ENDROOT
BRANCH   2   7
HETATM    7  C   UNK     0     -18.699  12.005  18.066  0.00  0.00     0.112 C 
HETATM    8  C   UNK     0     -19.755  11.467  19.053  0.00  0.00     0.026 C 
BRANCH   7   9
HETATM    9  C   UNK     0     -18.268  10.854  17.152  0.00  0.00     0.148 C 
HETATM   10  O   UNK     0     -17.282  10.154  17.340  0.00  0.00    -0.649 OA
BRANCH   9  11
HETATM   11  O   UNK     0     -19.093  10.682  16.084  0.00  0.00    -0.776 OA
HETATM   12  H   UNK     0     -19.787  11.375  16.044  0.00  0.00     0.167 HD
ENDBRANCH   9  11
ENDBRANCH   7   9
ENDBRANCH   2   7
BRANCH   1  13
HETATM   13  C   UNK     0     -20.407  16.674  15.131  0.00  0.00     0.042 C 
BRANCH  13  14
HETATM   14  C   UNK     0     -21.023  17.775  16.015  0.00  0.00    -0.019 C 
HETATM   15  C   UNK     0     -19.955  18.571  16.768  0.00  0.00     0.010 C 
HETATM   16  C   UNK     0     -21.861  18.723  15.154  0.00  0.00     0.010 C 
ENDBRANCH  13  14
ENDBRANCH   1  13
TORSDOF 5
ENDMDL
