MODEL 1
REMARK VINA RESULT:      -6.7      0.000      0.000
REMARK  5 active torsions:
REMARK  status: ('A' for Active; 'I' for Inactive)
REMARK    1  A    between atoms: O_1  and  C_15 
REMARK    2  A    between atoms: C_3  and  C_4 
REMARK    3  A    between atoms: C_4  and  C_5 
REMARK    4  A    between atoms: C_6  and  C_7 
REMARK    5  A    between atoms: C_7  and  C_15 
ROOT
HETATM    1  C   UNK     0      -3.787  17.640 -24.970  0.00  0.00    -0.058 A 
HETATM    2  C   UNK     0      -6.050  18.135 -26.493  0.00  0.00    -0.044 A 
HETATM    3  C   UNK     0      -4.556  16.574 -25.410  0.00  0.00     0.007 A 
HETATM    4  C   UNK     0      -4.127  18.949 -25.277  0.00  0.00     0.007 A 
HETATM    5  C   UNK     0      -5.694  16.823 -26.176  0.00  0.00     0.008 A 
HETATM    6  C   UNK     0      -5.265  19.197 -26.044  0.00  0.00     0.008 A 
ENDROOT
BRANCH   2   7
HETATM    7  C   UNK     0      -7.267  18.401 -27.312  0.00  0.00     0.112 C 
HETATM    8  C   UNK     0      -7.622  17.264 -28.292  0.00  0.00     0.026 C 
BRANCH   7   9
HETATM    9  C   UNK     0      -8.504  18.699 -26.458  0.00  0.00     0.148 C 
HETATM   10  O   UNK     0      -8.804  19.809 -26.039  0.00  0.00    -0.649 OA
BRANCH   9  11
HETATM   11  O   UNK     0      -9.249  17.592 -26.193  0.00  0.00    -0.776 OA
HETATM   12  H   UNK     0      -9.859  17.378 -26.932  0.00  0.00     0.167 HD
ENDBRANCH   9  11
ENDBRANCH   7   9
ENDBRANCH   2   7
BRANCH   1  13
HETATM   13  C   UNK     0      -2.554  17.371 -24.141  0.00  0.00     0.042 C 
BRANCH  13  14
HETATM   14  C   UNK     0      -1.549  18.537 -24.123  0.00  0.00    -0.019 C 
HETATM   15  C   UNK     0      -0.695  18.540 -22.853  0.00  0.00     0.010 C 
HETATM   16  C   UNK     0      -0.642  18.459 -25.353  0.00  0.00     0.010 C 
ENDBRANCH  13  14
ENDBRANCH   1  13
TORSDOF 5
ENDMDL
MODEL 2
REMARK VINA RESULT:      -6.7      2.629      3.602
REMARK  5 active torsions:
REMARK  status: ('A' for Active; 'I' for Inactive)
REMARK    1  A    between atoms: O_1  and  C_15 
REMARK    2  A    between atoms: C_3  and  C_4 
REMARK    3  A    between atoms: C_4  and  C_5 
REMARK    4  A    between atoms: C_6  and  C_7 
REMARK    5  A    between atoms: C_7  and  C_15 
ROOT
HETATM    1  C   UNK     0      -4.355  17.526 -26.075  0.00  0.00    -0.058 A 
HETATM    2  C   UNK     0      -5.311  15.295 -27.415  0.00  0.00    -0.044 A 
HETATM    3  C   UNK     0      -4.275  17.478 -27.458  0.00  0.00     0.007 A 
HETATM    4  C   UNK     0      -4.904  16.481 -25.348  0.00  0.00     0.007 A 
HETATM    5  C   UNK     0      -4.756  16.356 -28.132  0.00  0.00     0.008 A 
HETATM    6  C   UNK     0      -5.385  15.359 -26.023  0.00  0.00     0.008 A 
ENDROOT
BRANCH   2   7
HETATM    7  C   UNK     0      -5.824  14.095 -28.135  0.00  0.00     0.112 C 
HETATM    8  C   UNK     0      -5.301  12.757 -27.573  0.00  0.00     0.026 C 
BRANCH   7   9
HETATM    9  C   UNK     0      -7.355  14.032 -28.169  0.00  0.00     0.148 C 
HETATM   10  O   UNK     0      -8.082  14.998 -28.354  0.00  0.00    -0.649 OA
BRANCH   9  11
HETATM   11  O   UNK     0      -7.842  12.780 -27.962  0.00  0.00    -0.776 OA
HETATM   12  H   UNK     0      -7.188  12.203 -27.511  0.00  0.00     0.167 HD
ENDBRANCH   9  11
ENDBRANCH   7   9
ENDBRANCH   2   7
BRANCH   1  13
HETATM   13  C   UNK     0      -3.836  18.742 -25.346  0.00  0.00     0.042 C 
BRANCH  13  14
HETATM   14  C   UNK     0      -2.349  18.645 -24.955  0.00  0.00    -0.019 C 
HETATM   15  C   UNK     0      -1.570  19.904 -25.342  0.00  0.00     0.010 C 
HETATM   16  C   UNK     0      -2.223  18.405 -23.449  0.00  0.00     0.010 C 
ENDBRANCH  13  14
ENDBRANCH   1  13
TORSDOF 5
ENDMDL
MODEL 3
REMARK VINA RESULT:      -6.7      3.894      6.170
REMARK  5 active torsions:
REMARK  status: ('A' for Active; 'I' for Inactive)
REMARK    1  A    between atoms: O_1  and  C_15 
REMARK    2  A    between atoms: C_3  and  C_4 
REMARK    3  A    between atoms: C_4  and  C_5 
REMARK    4  A    between atoms: C_6  and  C_7 
REMARK    5  A    between atoms: C_7  and  C_15 
ROOT
HETATM    1  C   UNK     0      -4.323  20.547 -27.293  0.00  0.00    -0.058 A 
HETATM    2  C   UNK     0      -2.633  18.958 -25.775  0.00  0.00    -0.044 A 
HETATM    3  C   UNK     0      -4.816  19.385 -26.720  0.00  0.00     0.007 A 
HETATM    4  C   UNK     0      -3.002  20.931 -27.121  0.00  0.00     0.007 A 
HETATM    5  C   UNK     0      -3.966  18.586 -25.957  0.00  0.00     0.008 A 
HETATM    6  C   UNK     0      -2.152  20.131 -26.357  0.00  0.00     0.008 A 
ENDROOT
BRANCH   2   7
HETATM    7  C   UNK     0      -1.724  18.103 -24.959  0.00  0.00     0.112 C 
HETATM    8  C   UNK     0      -0.227  18.430 -25.142  0.00  0.00     0.026 C 
BRANCH   7   9
HETATM    9  C   UNK     0      -2.045  18.153 -23.462  0.00  0.00     0.148 C 
HETATM   10  O   UNK     0      -3.174  18.253 -23.000  0.00  0.00    -0.649 OA
BRANCH   9  11
HETATM   11  O   UNK     0      -0.937  18.085 -22.676  0.00  0.00    -0.776 OA
HETATM   12  H   UNK     0      -1.160  18.167 -21.724  0.00  0.00     0.167 HD
ENDBRANCH   9  11
ENDBRANCH   7   9
ENDBRANCH   2   7
BRANCH   1  13
HETATM   13  C   UNK     0      -5.243  21.413 -28.118  0.00  0.00     0.042 C 
BRANCH  13  14
HETATM   14  C   UNK     0      -4.712  22.840 -28.352  0.00  0.00    -0.019 C 
HETATM   15  C   UNK     0      -4.626  23.184 -29.841  0.00  0.00     0.010 C 
HETATM   16  C   UNK     0      -5.613  23.852 -27.641  0.00  0.00     0.010 C 
ENDBRANCH  13  14
ENDBRANCH   1  13
TORSDOF 5
ENDMDL
