MODEL 1
REMARK VINA RESULT:      -7.6      0.000      0.000
REMARK  5 active torsions:
REMARK  status: ('A' for Active; 'I' for Inactive)
REMARK    1  A    between atoms: O_1  and  C_15 
REMARK    2  A    between atoms: C_3  and  C_4 
REMARK    3  A    between atoms: C_4  and  C_5 
REMARK    4  A    between atoms: C_6  and  C_7 
REMARK    5  A    between atoms: C_7  and  C_15 
ROOT
HETATM    1  C   UNK     0       4.220   7.118  21.819  0.00  0.00    -0.058 A 
HETATM    2  C   UNK     0       2.494   6.340  19.794  0.00  0.00    -0.044 A 
HETATM    3  C   UNK     0       3.405   6.012  22.009  0.00  0.00     0.007 A 
HETATM    4  C   UNK     0       4.190   7.841  20.637  0.00  0.00     0.007 A 
HETATM    5  C   UNK     0       2.537   5.622  20.990  0.00  0.00     0.008 A 
HETATM    6  C   UNK     0       3.321   7.449  19.618  0.00  0.00     0.008 A 
ENDROOT
BRANCH   2   7
HETATM    7  C   UNK     0       1.565   5.922  18.705  0.00  0.00     0.112 C 
HETATM    8  C   UNK     0       0.940   4.528  18.917  0.00  0.00     0.026 C 
BRANCH   7   9
HETATM    9  C   UNK     0       0.430   6.925  18.476  0.00  0.00     0.148 C 
HETATM   10  O   UNK     0       0.556   7.988  17.883  0.00  0.00    -0.649 OA
BRANCH   9  11
HETATM   11  O   UNK     0      -0.754   6.522  19.011  0.00  0.00    -0.776 OA
HETATM   12  H   UNK     0      -0.648   6.202  19.933  0.00  0.00     0.167 HD
ENDBRANCH   9  11
ENDBRANCH   7   9
ENDBRANCH   2   7
BRANCH   1  13
HETATM   13  C   UNK     0       5.161   7.541  22.921  0.00  0.00     0.042 C 
BRANCH  13  14
HETATM   14  C   UNK     0       6.620   7.101  22.697  0.00  0.00    -0.019 C 
HETATM   15  C   UNK     0       7.235   7.762  21.461  0.00  0.00     0.010 C 
HETATM   16  C   UNK     0       7.459   7.438  23.932  0.00  0.00     0.010 C 
ENDBRANCH  13  14
ENDBRANCH   1  13
TORSDOF 5
ENDMDL
MODEL 2
REMARK VINA RESULT:      -7.3      1.236      1.749
REMARK  5 active torsions:
REMARK  status: ('A' for Active; 'I' for Inactive)
REMARK    1  A    between atoms: O_1  and  C_15 
REMARK    2  A    between atoms: C_3  and  C_4 
REMARK    3  A    between atoms: C_4  and  C_5 
REMARK    4  A    between atoms: C_6  and  C_7 
REMARK    5  A    between atoms: C_7  and  C_15 
ROOT
HETATM    1  C   UNK     0       4.992   7.217  20.529  0.00  0.00    -0.058 A 
HETATM    2  C   UNK     0       2.677   6.250  19.348  0.00  0.00    -0.044 A 
HETATM    3  C   UNK     0       4.015   6.637  21.324  0.00  0.00     0.007 A 
HETATM    4  C   UNK     0       4.834   7.323  19.156  0.00  0.00     0.007 A 
HETATM    5  C   UNK     0       2.851   6.151  20.730  0.00  0.00     0.008 A 
HETATM    6  C   UNK     0       3.669   6.836  18.562  0.00  0.00     0.008 A 
ENDROOT
BRANCH   2   7
HETATM    7  C   UNK     0       1.432   5.731  18.713  0.00  0.00     0.112 C 
HETATM    8  C   UNK     0       0.799   4.539  19.461  0.00  0.00     0.026 C 
BRANCH   7   9
HETATM    9  C   UNK     0       0.359   6.811  18.541  0.00  0.00     0.148 C 
HETATM   10  O   UNK     0       0.542   7.885  17.984  0.00  0.00    -0.649 OA
BRANCH   9  11
HETATM   11  O   UNK     0      -0.840   6.464  19.083  0.00  0.00    -0.776 OA
HETATM   12  H   UNK     0      -1.590   6.872  18.600  0.00  0.00     0.167 HD
ENDBRANCH   9  11
ENDBRANCH   7   9
ENDBRANCH   2   7
BRANCH   1  13
HETATM   13  C   UNK     0       6.252   7.743  21.172  0.00  0.00     0.042 C 
BRANCH  13  14
HETATM   14  C   UNK     0       7.160   8.531  20.209  0.00  0.00    -0.019 C 
HETATM   15  C   UNK     0       7.885   9.680  20.914  0.00  0.00     0.010 C 
HETATM   16  C   UNK     0       8.185   7.590  19.572  0.00  0.00     0.010 C 
ENDBRANCH  13  14
ENDBRANCH   1  13
TORSDOF 5
ENDMDL
MODEL 3
REMARK VINA RESULT:      -6.8      1.151      1.489
REMARK  5 active torsions:
REMARK  status: ('A' for Active; 'I' for Inactive)
REMARK    1  A    between atoms: O_1  and  C_15 
REMARK    2  A    between atoms: C_3  and  C_4 
REMARK    3  A    between atoms: C_4  and  C_5 
REMARK    4  A    between atoms: C_6  and  C_7 
REMARK    5  A    between atoms: C_7  and  C_15 
ROOT
HETATM    1  C   UNK     0       4.458   7.731  21.264  0.00  0.00    -0.058 A 
HETATM    2  C   UNK     0       3.070   7.166  18.932  0.00  0.00    -0.044 A 
HETATM    3  C   UNK     0       3.898   6.474  21.094  0.00  0.00     0.007 A 
HETATM    4  C   UNK     0       4.337   8.711  20.291  0.00  0.00     0.007 A 
HETATM    5  C   UNK     0       3.200   6.190  19.921  0.00  0.00     0.008 A 
HETATM    6  C   UNK     0       3.639   8.426  19.117  0.00  0.00     0.008 A 
ENDROOT
BRANCH   2   7
HETATM    7  C   UNK     0       2.322   6.863  17.677  0.00  0.00     0.112 C 
HETATM    8  C   UNK     0       3.007   5.813  16.779  0.00  0.00     0.026 C 
BRANCH   7   9
HETATM    9  C   UNK     0       0.885   6.402  17.940  0.00  0.00     0.148 C 
HETATM   10  O   UNK     0       0.566   5.254  18.219  0.00  0.00    -0.649 OA
BRANCH   9  11
HETATM   11  O   UNK     0      -0.027   7.404  17.822  0.00  0.00    -0.776 OA
HETATM   12  H   UNK     0      -0.183   7.858  18.679  0.00  0.00     0.167 HD
ENDBRANCH   9  11
ENDBRANCH   7   9
ENDBRANCH   2   7
BRANCH   1  13
HETATM   13  C   UNK     0       5.215   8.038  22.533  0.00  0.00     0.042 C 
BRANCH  13  14
HETATM   14  C   UNK     0       6.677   7.552  22.519  0.00  0.00    -0.019 C 
HETATM   15  C   UNK     0       7.558   8.409  21.608  0.00  0.00     0.010 C 
HETATM   16  C   UNK     0       7.241   7.564  23.942  0.00  0.00     0.010 C 
ENDBRANCH  13  14
ENDBRANCH   1  13
TORSDOF 5
ENDMDL
