MODEL 1
REMARK VINA RESULT:      -6.8      0.000      0.000
REMARK  5 active torsions:
REMARK  status: ('A' for Active; 'I' for Inactive)
REMARK    1  A    between atoms: O_1  and  C_15 
REMARK    2  A    between atoms: C_3  and  C_4 
REMARK    3  A    between atoms: C_4  and  C_5 
REMARK    4  A    between atoms: C_6  and  C_7 
REMARK    5  A    between atoms: C_7  and  C_15 
ROOT
HETATM    1  C   UNK     0     -21.442 -42.155  26.509  0.00  0.00    -0.058 A 
HETATM    2  C   UNK     0     -20.854 -40.521  24.348  0.00  0.00    -0.044 A 
HETATM    3  C   UNK     0     -21.084 -42.731  25.300  0.00  0.00     0.007 A 
HETATM    4  C   UNK     0     -21.511 -40.778  26.659  0.00  0.00     0.007 A 
HETATM    5  C   UNK     0     -20.789 -41.909  24.213  0.00  0.00     0.008 A 
HETATM    6  C   UNK     0     -21.215 -39.957  25.571  0.00  0.00     0.008 A 
ENDROOT
BRANCH   2   7
HETATM    7  C   UNK     0     -20.539 -39.643  23.185  0.00  0.00     0.112 C 
HETATM    8  C   UNK     0     -19.506 -40.244  22.209  0.00  0.00     0.026 C 
BRANCH   7   9
HETATM    9  C   UNK     0     -21.784 -39.251  22.382  0.00  0.00     0.148 C 
HETATM   10  O   UNK     0     -22.201 -39.865  21.409  0.00  0.00    -0.649 OA
BRANCH   9  11
HETATM   11  O   UNK     0     -22.391 -38.129  22.853  0.00  0.00    -0.776 OA
HETATM   12  H   UNK     0     -22.141 -37.334  22.334  0.00  0.00     0.167 HD
ENDBRANCH   9  11
ENDBRANCH   7   9
ENDBRANCH   2   7
BRANCH   1  13
HETATM   13  C   UNK     0     -21.761 -43.044  27.686  0.00  0.00     0.042 C 
BRANCH  13  14
HETATM   14  C   UNK     0     -23.190 -43.619  27.663  0.00  0.00    -0.019 C 
HETATM   15  C   UNK     0     -24.196 -42.633  27.066  0.00  0.00     0.010 C 
HETATM   16  C   UNK     0     -23.211 -44.924  26.863  0.00  0.00     0.010 C 
ENDBRANCH  13  14
ENDBRANCH   1  13
TORSDOF 5
ENDMDL
MODEL 2
REMARK VINA RESULT:      -6.5     37.815     40.561
REMARK  5 active torsions:
REMARK  status: ('A' for Active; 'I' for Inactive)
REMARK    1  A    between atoms: O_1  and  C_15 
REMARK    2  A    between atoms: C_3  and  C_4 
REMARK    3  A    between atoms: C_4  and  C_5 
REMARK    4  A    between atoms: C_6  and  C_7 
REMARK    5  A    between atoms: C_7  and  C_15 
ROOT
HETATM    1  C   UNK     0     -24.717  -0.312  18.065  0.00  0.00    -0.058 A 
HETATM    2  C   UNK     0     -25.065  -2.497  19.736  0.00  0.00    -0.044 A 
HETATM    3  C   UNK     0     -24.026  -1.485  17.803  0.00  0.00     0.007 A 
HETATM    4  C   UNK     0     -25.579  -0.210  19.146  0.00  0.00     0.007 A 
HETATM    5  C   UNK     0     -24.201  -2.584  18.644  0.00  0.00     0.008 A 
HETATM    6  C   UNK     0     -25.754  -1.310  19.987  0.00  0.00     0.008 A 
ENDROOT
BRANCH   2   7
HETATM    7  C   UNK     0     -25.251  -3.672  20.636  0.00  0.00     0.112 C 
HETATM    8  C   UNK     0     -26.686  -4.239  20.635  0.00  0.00     0.026 C 
BRANCH   7   9
HETATM    9  C   UNK     0     -24.284  -4.818  20.324  0.00  0.00     0.148 C 
HETATM   10  O   UNK     0     -24.392  -5.573  19.367  0.00  0.00    -0.649 OA
BRANCH   9  11
HETATM   11  O   UNK     0     -23.277  -4.929  21.232  0.00  0.00    -0.776 OA
HETATM   12  H   UNK     0     -22.512  -4.360  20.999  0.00  0.00     0.167 HD
ENDBRANCH   9  11
ENDBRANCH   7   9
ENDBRANCH   2   7
BRANCH   1  13
HETATM   13  C   UNK     0     -24.529   0.877  17.155  0.00  0.00     0.042 C 
BRANCH  13  14
HETATM   14  C   UNK     0     -25.742   1.168  16.252  0.00  0.00    -0.019 C 
HETATM   15  C   UNK     0     -25.986   2.669  16.084  0.00  0.00     0.010 C 
HETATM   16  C   UNK     0     -25.534   0.524  14.879  0.00  0.00     0.010 C 
ENDBRANCH  13  14
ENDBRANCH   1  13
TORSDOF 5
ENDMDL
MODEL 3
REMARK VINA RESULT:      -6.4     37.661     40.408
REMARK  5 active torsions:
REMARK  status: ('A' for Active; 'I' for Inactive)
REMARK    1  A    between atoms: O_1  and  C_15 
REMARK    2  A    between atoms: C_3  and  C_4 
REMARK    3  A    between atoms: C_4  and  C_5 
REMARK    4  A    between atoms: C_6  and  C_7 
REMARK    5  A    between atoms: C_7  and  C_15 
ROOT
HETATM    1  C   UNK     0     -24.861  -0.326  18.170  0.00  0.00    -0.058 A 
HETATM    2  C   UNK     0     -23.878  -2.805  18.930  0.00  0.00    -0.044 A 
HETATM    3  C   UNK     0     -25.373  -0.943  19.302  0.00  0.00     0.007 A 
HETATM    4  C   UNK     0     -23.867  -0.924  17.411  0.00  0.00     0.007 A 
HETATM    5  C   UNK     0     -24.878  -2.189  19.683  0.00  0.00     0.008 A 
HETATM    6  C   UNK     0     -23.372  -2.171  17.794  0.00  0.00     0.008 A 
ENDROOT
BRANCH   2   7
HETATM    7  C   UNK     0     -23.349  -4.138  19.337  0.00  0.00     0.112 C 
HETATM    8  C   UNK     0     -23.543  -4.456  20.834  0.00  0.00     0.026 C 
BRANCH   7   9
HETATM    9  C   UNK     0     -23.949  -5.289  18.522  0.00  0.00     0.148 C 
HETATM   10  O   UNK     0     -23.556  -5.629  17.415  0.00  0.00    -0.649 OA
BRANCH   9  11
HETATM   11  O   UNK     0     -24.986  -5.904  19.151  0.00  0.00    -0.776 OA
HETATM   12  H   UNK     0     -24.777  -6.838  19.371  0.00  0.00     0.167 HD
ENDBRANCH   9  11
ENDBRANCH   7   9
ENDBRANCH   2   7
BRANCH   1  13
HETATM   13  C   UNK     0     -25.396   1.024  17.758  0.00  0.00     0.042 C 
BRANCH  13  14
HETATM   14  C   UNK     0     -25.722   1.131  16.256  0.00  0.00    -0.019 C 
HETATM   15  C   UNK     0     -27.230   1.110  15.994  0.00  0.00     0.010 C 
HETATM   16  C   UNK     0     -25.118   2.416  15.684  0.00  0.00     0.010 C 
ENDBRANCH  13  14
ENDBRANCH   1  13
TORSDOF 5
ENDMDL
