MODEL 1
REMARK VINA RESULT:      -5.4      0.000      0.000
REMARK  0 active torsions:
REMARK  status: ('A' for Active; 'I' for Inactive)
ROOT
HETATM    1  O   UNK     0      12.756  47.873  19.412  0.00  0.00    -0.265 OA
HETATM    2  O   UNK     0      17.311  47.970  20.534  0.00  0.00    -0.246 OA
HETATM    3  N   UNK     0      16.669  48.853  18.480  0.00  0.00    -0.286 N 
HETATM    4  N   UNK     0      13.583  49.194  16.858  0.00  0.00    -0.338 N 
HETATM    5  N   UNK     0      15.032  47.910  19.996  0.00  0.00    -0.269 N 
HETATM    6  N   UNK     0      15.699  49.709  16.386  0.00  0.00    -0.223 NA
HETATM    7  C   UNK     0      14.323  48.788  17.930  0.00  0.00     0.151 A 
HETATM    8  C   UNK     0      15.613  49.115  17.616  0.00  0.00     0.167 A 
HETATM    9  C   UNK     0      13.921  48.158  19.146  0.00  0.00     0.282 A 
HETATM   10  C   UNK     0      16.412  48.228  19.725  0.00  0.00     0.332 A 
HETATM   11  C   UNK     0      14.456  49.742  15.954  0.00  0.00     0.212 A 
HETATM   12  C   UNK     0      18.030  49.217  18.108  0.00  0.00     0.163 C 
HETATM   13  C   UNK     0      12.154  49.080  16.682  0.00  0.00     0.157 C 
HETATM   14  C   UNK     0      14.747  47.267  21.275  0.00  0.00     0.164 C 
ENDROOT
TORSDOF 0
ENDMDL
MODEL 2
REMARK VINA RESULT:      -5.2      2.084      3.384
REMARK  0 active torsions:
REMARK  status: ('A' for Active; 'I' for Inactive)
ROOT
HETATM    1  O   UNK     0      17.305  49.364  17.851  0.00  0.00    -0.265 OA
HETATM    2  O   UNK     0      17.557  45.876  20.980  0.00  0.00    -0.246 OA
HETATM    3  N   UNK     0      15.451  46.670  20.392  0.00  0.00    -0.286 N 
HETATM    4  N   UNK     0      14.340  49.171  18.205  0.00  0.00    -0.338 N 
HETATM    5  N   UNK     0      17.457  47.618  19.417  0.00  0.00    -0.269 N 
HETATM    6  N   UNK     0      13.372  47.709  19.581  0.00  0.00    -0.223 NA
HETATM    7  C   UNK     0      15.354  48.463  18.783  0.00  0.00     0.151 A 
HETATM    8  C   UNK     0      14.734  47.575  19.619  0.00  0.00     0.167 A 
HETATM    9  C   UNK     0      16.767  48.561  18.610  0.00  0.00     0.282 A 
HETATM   10  C   UNK     0      16.866  46.658  20.317  0.00  0.00     0.332 A 
HETATM   11  C   UNK     0      13.167  48.682  18.717  0.00  0.00     0.212 A 
HETATM   12  C   UNK     0      14.755  45.740  21.271  0.00  0.00     0.163 C 
HETATM   13  C   UNK     0      14.453  50.237  17.238  0.00  0.00     0.157 C 
HETATM   14  C   UNK     0      18.913  47.620  19.326  0.00  0.00     0.164 C 
ENDROOT
TORSDOF 0
ENDMDL
MODEL 3
REMARK VINA RESULT:      -5.1      1.929      4.718
REMARK  0 active torsions:
REMARK  status: ('A' for Active; 'I' for Inactive)
ROOT
HETATM    1  O   UNK     0      17.608  49.826  17.095  0.00  0.00    -0.265 OA
HETATM    2  O   UNK     0      12.933  50.116  17.374  0.00  0.00    -0.246 OA
HETATM    3  N   UNK     0      14.019  48.573  18.735  0.00  0.00    -0.286 N 
HETATM    4  N   UNK     0      17.380  47.694  19.181  0.00  0.00    -0.338 N 
HETATM    5  N   UNK     0      15.267  49.990  17.216  0.00  0.00    -0.269 N 
HETATM    6  N   UNK     0      15.432  47.041  20.045  0.00  0.00    -0.223 NA
HETATM    7  C   UNK     0      16.420  48.446  18.568  0.00  0.00     0.151 A 
HETATM    8  C   UNK     0      15.238  48.028  19.115  0.00  0.00     0.167 A 
HETATM    9  C   UNK     0      16.537  49.462  17.573  0.00  0.00     0.282 A 
HETATM   10  C   UNK     0      13.988  49.594  17.752  0.00  0.00     0.332 A 
HETATM   11  C   UNK     0      16.736  46.863  20.061  0.00  0.00     0.212 A 
HETATM   12  C   UNK     0      12.781  48.100  19.341  0.00  0.00     0.163 C 
HETATM   13  C   UNK     0      18.807  47.742  18.964  0.00  0.00     0.157 C 
HETATM   14  C   UNK     0      15.256  51.040  16.204  0.00  0.00     0.164 C 
ENDROOT
TORSDOF 0
ENDMDL
