MODEL 1
REMARK VINA RESULT:      -4.8      0.000      0.000
REMARK  0 active torsions:
REMARK  status: ('A' for Active; 'I' for Inactive)
ROOT
HETATM    1  O   UNK     0      33.384  40.712  26.840  0.00  0.00    -0.265 OA
HETATM    2  O   UNK     0      29.892  38.182  24.990  0.00  0.00    -0.246 OA
HETATM    3  N   UNK     0      31.239  39.412  23.546  0.00  0.00    -0.286 N 
HETATM    4  N   UNK     0      33.993  41.524  24.025  0.00  0.00    -0.338 N 
HETATM    5  N   UNK     0      31.628  39.437  25.937  0.00  0.00    -0.269 N 
HETATM    6  N   UNK     0      32.818  40.806  22.272  0.00  0.00    -0.223 NA
HETATM    7  C   UNK     0      33.023  40.703  24.525  0.00  0.00     0.151 A 
HETATM    8  C   UNK     0      32.320  40.277  23.432  0.00  0.00     0.167 A 
HETATM    9  C   UNK     0      32.739  40.321  25.870  0.00  0.00     0.282 A 
HETATM   10  C   UNK     0      30.846  38.952  24.827  0.00  0.00     0.332 A 
HETATM   11  C   UNK     0      33.828  41.554  22.664  0.00  0.00     0.212 A 
HETATM   12  C   UNK     0      30.515  38.981  22.357  0.00  0.00     0.163 C 
HETATM   13  C   UNK     0      35.008  42.236  24.763  0.00  0.00     0.157 C 
HETATM   14  C   UNK     0      31.239  38.974  27.264  0.00  0.00     0.164 C 
ENDROOT
TORSDOF 0
ENDMDL
MODEL 2
REMARK VINA RESULT:      -4.8      1.719      4.445
REMARK  0 active torsions:
REMARK  status: ('A' for Active; 'I' for Inactive)
ROOT
HETATM    1  O   UNK     0      32.777  40.660  22.278  0.00  0.00    -0.265 OA
HETATM    2  O   UNK     0      34.416  41.634  26.565  0.00  0.00    -0.246 OA
HETATM    3  N   UNK     0      32.543  40.266  26.392  0.00  0.00    -0.286 N 
HETATM    4  N   UNK     0      30.686  39.047  23.684  0.00  0.00    -0.338 N 
HETATM    5  N   UNK     0      33.616  41.163  24.414  0.00  0.00    -0.269 N 
HETATM    6  N   UNK     0      30.587  38.854  25.902  0.00  0.00    -0.223 NA
HETATM    7  C   UNK     0      31.723  39.784  24.177  0.00  0.00     0.151 A 
HETATM    8  C   UNK     0      31.640  39.648  25.536  0.00  0.00     0.167 A 
HETATM    9  C   UNK     0      32.717  40.552  23.500  0.00  0.00     0.282 A 
HETATM   10  C   UNK     0      33.584  41.061  25.852  0.00  0.00     0.332 A 
HETATM   11  C   UNK     0      30.031  38.507  24.760  0.00  0.00     0.212 A 
HETATM   12  C   UNK     0      32.421  40.096  27.834  0.00  0.00     0.163 C 
HETATM   13  C   UNK     0      30.324  38.856  22.299  0.00  0.00     0.157 C 
HETATM   14  C   UNK     0      34.682  41.977  23.839  0.00  0.00     0.164 C 
ENDROOT
TORSDOF 0
ENDMDL
MODEL 3
REMARK VINA RESULT:      -4.8     14.409     16.174
REMARK  0 active torsions:
REMARK  status: ('A' for Active; 'I' for Inactive)
ROOT
HETATM    1  O   UNK     0      34.783  38.029  11.205  0.00  0.00    -0.265 OA
HETATM    2  O   UNK     0      36.628  42.143   9.905  0.00  0.00    -0.246 OA
HETATM    3  N   UNK     0      36.872  40.330   8.469  0.00  0.00    -0.286 N 
HETATM    4  N   UNK     0      35.851  36.982   8.614  0.00  0.00    -0.338 N 
HETATM    5  N   UNK     0      35.699  40.100  10.576  0.00  0.00    -0.269 N 
HETATM    6  N   UNK     0      36.972  38.247   7.161  0.00  0.00    -0.223 NA
HETATM    7  C   UNK     0      35.915  38.230   9.164  0.00  0.00     0.151 A 
HETATM    8  C   UNK     0      36.604  38.983   8.255  0.00  0.00     0.167 A 
HETATM    9  C   UNK     0      35.403  38.722  10.402  0.00  0.00     0.282 A 
HETATM   10  C   UNK     0      36.420  40.949   9.660  0.00  0.00     0.332 A 
HETATM   11  C   UNK     0      36.501  37.042   7.409  0.00  0.00     0.212 A 
HETATM   12  C   UNK     0      37.610  41.099   7.475  0.00  0.00     0.163 C 
HETATM   13  C   UNK     0      35.225  35.806   9.172  0.00  0.00     0.157 C 
HETATM   14  C   UNK     0      35.225  40.720  11.809  0.00  0.00     0.164 C 
ENDROOT
TORSDOF 0
ENDMDL
