MODEL 1
REMARK VINA RESULT:      -6.1      0.000      0.000
REMARK  0 active torsions:
REMARK  status: ('A' for Active; 'I' for Inactive)
ROOT
HETATM    1  O   UNK     0      10.167  13.993   3.566  0.00  0.00    -0.265 OA
HETATM    2  O   UNK     0      14.052  16.213   2.154  0.00  0.00    -0.246 OA
HETATM    3  N   UNK     0      12.226  16.174   0.712  0.00  0.00    -0.286 N 
HETATM    4  N   UNK     0       9.014  14.794   0.924  0.00  0.00    -0.338 N 
HETATM    5  N   UNK     0      12.124  15.098   2.881  0.00  0.00    -0.269 N 
HETATM    6  N   UNK     0      10.149  15.969  -0.592  0.00  0.00    -0.223 NA
HETATM    7  C   UNK     0      10.246  15.025   1.465  0.00  0.00     0.151 A 
HETATM    8  C   UNK     0      10.919  15.746   0.518  0.00  0.00     0.167 A 
HETATM    9  C   UNK     0      10.788  14.639   2.727  0.00  0.00     0.282 A 
HETATM   10  C   UNK     0      12.889  15.859   1.925  0.00  0.00     0.332 A 
HETATM   11  C   UNK     0       9.004  15.381  -0.315  0.00  0.00     0.212 A 
HETATM   12  C   UNK     0      12.910  16.940  -0.321  0.00  0.00     0.163 C 
HETATM   13  C   UNK     0       7.914  14.072   1.519  0.00  0.00     0.157 C 
HETATM   14  C   UNK     0      12.789  14.765   4.136  0.00  0.00     0.164 C 
ENDROOT
TORSDOF 0
ENDMDL
MODEL 2
REMARK VINA RESULT:      -6.1      1.535      3.077
REMARK  0 active torsions:
REMARK  status: ('A' for Active; 'I' for Inactive)
ROOT
HETATM    1  O   UNK     0       9.743  15.785  -0.485  0.00  0.00    -0.265 OA
HETATM    2  O   UNK     0      13.819  16.255   1.791  0.00  0.00    -0.246 OA
HETATM    3  N   UNK     0      12.159  14.955   2.773  0.00  0.00    -0.286 N 
HETATM    4  N   UNK     0       8.904  14.075   1.823  0.00  0.00    -0.338 N 
HETATM    5  N   UNK     0      11.793  16.036   0.636  0.00  0.00    -0.269 N 
HETATM    6  N   UNK     0      10.229  13.647   3.563  0.00  0.00    -0.223 NA
HETATM    7  C   UNK     0      10.076  14.732   1.581  0.00  0.00     0.151 A 
HETATM    8  C   UNK     0      10.869  14.453   2.660  0.00  0.00     0.167 A 
HETATM    9  C   UNK     0      10.469  15.547   0.477  0.00  0.00     0.282 A 
HETATM   10  C   UNK     0      12.679  15.780   1.745  0.00  0.00     0.332 A 
HETATM   11  C   UNK     0       9.045  13.437   3.027  0.00  0.00     0.212 A 
HETATM   12  C   UNK     0      12.973  14.634   3.938  0.00  0.00     0.163 C 
HETATM   13  C   UNK     0       7.726  14.042   0.988  0.00  0.00     0.157 C 
HETATM   14  C   UNK     0      12.310  16.883  -0.433  0.00  0.00     0.164 C 
ENDROOT
TORSDOF 0
ENDMDL
MODEL 3
REMARK VINA RESULT:      -6.0      1.824      4.368
REMARK  0 active torsions:
REMARK  status: ('A' for Active; 'I' for Inactive)
ROOT
HETATM    1  O   UNK     0       9.485  15.690  -0.431  0.00  0.00    -0.265 OA
HETATM    2  O   UNK     0       8.719  13.078   3.391  0.00  0.00    -0.246 OA
HETATM    3  N   UNK     0      10.778  14.140   3.184  0.00  0.00    -0.286 N 
HETATM    4  N   UNK     0      12.184  16.224   0.744  0.00  0.00    -0.338 N 
HETATM    5  N   UNK     0       9.078  14.376   1.474  0.00  0.00    -0.269 N 
HETATM    6  N   UNK     0      12.851  15.374   2.693  0.00  0.00    -0.223 NA
HETATM    7  C   UNK     0      11.143  15.473   1.209  0.00  0.00     0.151 A 
HETATM    8  C   UNK     0      11.577  14.966   2.403  0.00  0.00     0.167 A 
HETATM    9  C   UNK     0       9.858  15.223   0.642  0.00  0.00     0.282 A 
HETATM   10  C   UNK     0       9.474  13.808   2.739  0.00  0.00     0.332 A 
HETATM   11  C   UNK     0      13.189  16.133   1.672  0.00  0.00     0.212 A 
HETATM   12  C   UNK     0      11.277  13.619   4.450  0.00  0.00     0.163 C 
HETATM   13  C   UNK     0      12.244  16.978  -0.486  0.00  0.00     0.157 C 
HETATM   14  C   UNK     0       7.738  14.047   1.000  0.00  0.00     0.164 C 
ENDROOT
TORSDOF 0
ENDMDL
