MODEL 1
REMARK VINA RESULT:      -5.7      0.000      0.000
REMARK  0 active torsions:
REMARK  status: ('A' for Active; 'I' for Inactive)
ROOT
HETATM    1  O   UNK     0      50.440 -13.085  30.747  0.00  0.00    -0.265 OA
HETATM    2  O   UNK     0      53.347 -16.755  31.060  0.00  0.00    -0.246 OA
HETATM    3  N   UNK     0      54.177 -14.773  30.170  0.00  0.00    -0.286 N 
HETATM    4  N   UNK     0      52.770 -11.621  29.573  0.00  0.00    -0.338 N 
HETATM    5  N   UNK     0      51.877 -14.938  30.914  0.00  0.00    -0.269 N 
HETATM    6  N   UNK     0      54.770 -12.558  29.275  0.00  0.00    -0.223 NA
HETATM    7  C   UNK     0      52.660 -12.906  30.020  0.00  0.00     0.151 A 
HETATM    8  C   UNK     0      53.897 -13.456  29.828  0.00  0.00     0.167 A 
HETATM    9  C   UNK     0      51.544 -13.598  30.579  0.00  0.00     0.282 A 
HETATM   10  C   UNK     0      53.157 -15.578  30.736  0.00  0.00     0.332 A 
HETATM   11  C   UNK     0      54.058 -11.459  29.133  0.00  0.00     0.212 A 
HETATM   12  C   UNK     0      55.508 -15.322  29.949  0.00  0.00     0.163 C 
HETATM   13  C   UNK     0      51.743 -10.606  29.553  0.00  0.00     0.157 C 
HETATM   14  C   UNK     0      50.814 -15.750  31.497  0.00  0.00     0.164 C 
ENDROOT
TORSDOF 0
ENDMDL
MODEL 2
REMARK VINA RESULT:      -5.6      1.533      3.022
REMARK  0 active torsions:
REMARK  status: ('A' for Active; 'I' for Inactive)
ROOT
HETATM    1  O   UNK     0      55.387 -12.669  29.601  0.00  0.00    -0.265 OA
HETATM    2  O   UNK     0      53.331 -16.731  30.738  0.00  0.00    -0.246 OA
HETATM    3  N   UNK     0      51.995 -14.833  30.579  0.00  0.00    -0.286 N 
HETATM    4  N   UNK     0      52.650 -11.478  29.810  0.00  0.00    -0.338 N 
HETATM    5  N   UNK     0      54.380 -14.715  30.169  0.00  0.00    -0.269 N 
HETATM    6  N   UNK     0      50.843 -12.671  30.339  0.00  0.00    -0.223 NA
HETATM    7  C   UNK     0      53.080 -12.761  29.995  0.00  0.00     0.151 A 
HETATM    8  C   UNK     0      51.955 -13.469  30.316  0.00  0.00     0.167 A 
HETATM    9  C   UNK     0      54.388 -13.322  29.893  0.00  0.00     0.282 A 
HETATM   10  C   UNK     0      53.233 -15.519  30.514  0.00  0.00     0.332 A 
HETATM   11  C   UNK     0      51.297 -11.474  30.029  0.00  0.00     0.212 A 
HETATM   12  C   UNK     0      50.774 -15.552  30.918  0.00  0.00     0.163 C 
HETATM   13  C   UNK     0      53.446 -10.328  29.453  0.00  0.00     0.157 C 
HETATM   14  C   UNK     0      55.664 -15.404  30.096  0.00  0.00     0.164 C 
ENDROOT
TORSDOF 0
ENDMDL
MODEL 3
REMARK VINA RESULT:      -5.6      2.300      3.799
REMARK  0 active torsions:
REMARK  status: ('A' for Active; 'I' for Inactive)
ROOT
HETATM    1  O   UNK     0      53.855 -15.182  31.944  0.00  0.00    -0.265 OA
HETATM    2  O   UNK     0      50.813 -13.013  29.105  0.00  0.00    -0.246 OA
HETATM    3  N   UNK     0      52.187 -11.701  30.447  0.00  0.00    -0.286 N 
HETATM    4  N   UNK     0      54.678 -12.435  32.798  0.00  0.00    -0.338 N 
HETATM    5  N   UNK     0      52.323 -14.119  30.514  0.00  0.00    -0.269 N 
HETATM    6  N   UNK     0      53.760 -10.580  31.972  0.00  0.00    -0.223 NA
HETATM    7  C   UNK     0      53.738 -12.843  31.895  0.00  0.00     0.151 A 
HETATM    8  C   UNK     0      53.193 -11.689  31.404  0.00  0.00     0.167 A 
HETATM    9  C   UNK     0      53.351 -14.156  31.493  0.00  0.00     0.282 A 
HETATM   10  C   UNK     0      51.706 -12.940  29.957  0.00  0.00     0.332 A 
HETATM   11  C   UNK     0      54.653 -11.065  32.810  0.00  0.00     0.212 A 
HETATM   12  C   UNK     0      51.632 -10.449  29.948  0.00  0.00     0.163 C 
HETATM   13  C   UNK     0      55.544 -13.266  33.602  0.00  0.00     0.157 C 
HETATM   14  C   UNK     0      51.841 -15.405  30.021  0.00  0.00     0.164 C 
ENDROOT
TORSDOF 0
ENDMDL
