MODEL 1
REMARK VINA RESULT:      -5.6      0.000      0.000
REMARK  0 active torsions:
REMARK  status: ('A' for Active; 'I' for Inactive)
ROOT
HETATM    1  O   UNK     0     -22.153  10.582   3.169  0.00  0.00    -0.265 OA
HETATM    2  O   UNK     0     -24.932  13.933   4.921  0.00  0.00    -0.246 OA
HETATM    3  N   UNK     0     -24.640  11.989   6.165  0.00  0.00    -0.286 N 
HETATM    4  N   UNK     0     -22.803   9.050   5.656  0.00  0.00    -0.338 N 
HETATM    5  N   UNK     0     -23.541  12.274   4.025  0.00  0.00    -0.269 N 
HETATM    6  N   UNK     0     -24.146   9.836   7.252  0.00  0.00    -0.223 NA
HETATM    7  C   UNK     0     -23.208  10.285   5.240  0.00  0.00     0.151 A 
HETATM    8  C   UNK     0     -24.028  10.744   6.234  0.00  0.00     0.167 A 
HETATM    9  C   UNK     0     -22.894  11.009   4.051  0.00  0.00     0.282 A 
HETATM   10  C   UNK     0     -24.415  12.816   5.037  0.00  0.00     0.332 A 
HETATM   11  C   UNK     0     -23.394   8.824   6.872  0.00  0.00     0.212 A 
HETATM   12  C   UNK     0     -25.507  12.442   7.246  0.00  0.00     0.163 C 
HETATM   13  C   UNK     0     -21.922   8.136   4.968  0.00  0.00     0.157 C 
HETATM   14  C   UNK     0     -23.295  13.111   2.856  0.00  0.00     0.164 C 
ENDROOT
TORSDOF 0
ENDMDL
MODEL 2
REMARK VINA RESULT:      -5.5      1.835      4.643
REMARK  0 active torsions:
REMARK  status: ('A' for Active; 'I' for Inactive)
ROOT
HETATM    1  O   UNK     0     -23.842   9.847   7.476  0.00  0.00    -0.265 OA
HETATM    2  O   UNK     0     -21.505   8.141   3.783  0.00  0.00    -0.246 OA
HETATM    3  N   UNK     0     -22.615  10.170   3.535  0.00  0.00    -0.286 N 
HETATM    4  N   UNK     0     -24.554  12.138   5.689  0.00  0.00    -0.338 N 
HETATM    5  N   UNK     0     -22.665   8.972   5.640  0.00  0.00    -0.269 N 
HETATM    6  N   UNK     0     -23.877  12.283   3.570  0.00  0.00    -0.223 NA
HETATM    7  C   UNK     0     -23.808  11.021   5.449  0.00  0.00     0.151 A 
HETATM    8  C   UNK     0     -23.406  11.135   4.147  0.00  0.00     0.167 A 
HETATM    9  C   UNK     0     -23.474   9.931   6.307  0.00  0.00     0.282 A 
HETATM   10  C   UNK     0     -22.208   9.031   4.273  0.00  0.00     0.332 A 
HETATM   11  C   UNK     0     -24.567  12.867   4.528  0.00  0.00     0.212 A 
HETATM   12  C   UNK     0     -22.207  10.328   2.145  0.00  0.00     0.163 C 
HETATM   13  C   UNK     0     -25.215  12.507   6.918  0.00  0.00     0.157 C 
HETATM   14  C   UNK     0     -22.255   7.807   6.417  0.00  0.00     0.164 C 
ENDROOT
TORSDOF 0
ENDMDL
MODEL 3
REMARK VINA RESULT:      -5.5      1.718      3.114
REMARK  0 active torsions:
REMARK  status: ('A' for Active; 'I' for Inactive)
ROOT
HETATM    1  O   UNK     0     -24.129  10.076   7.374  0.00  0.00    -0.265 OA
HETATM    2  O   UNK     0     -24.186  13.251   3.920  0.00  0.00    -0.246 OA
HETATM    3  N   UNK     0     -23.047  11.256   3.556  0.00  0.00    -0.286 N 
HETATM    4  N   UNK     0     -22.494   8.402   5.510  0.00  0.00    -0.338 N 
HETATM    5  N   UNK     0     -24.172  11.682   5.659  0.00  0.00    -0.269 N 
HETATM    6  N   UNK     0     -21.928   9.066   3.459  0.00  0.00    -0.223 NA
HETATM    7  C   UNK     0     -23.034   9.645   5.349  0.00  0.00     0.151 A 
HETATM    8  C   UNK     0     -22.674  10.027   4.086  0.00  0.00     0.167 A 
HETATM    9  C   UNK     0     -23.813  10.438   6.244  0.00  0.00     0.282 A 
HETATM   10  C   UNK     0     -23.825  12.145   4.338  0.00  0.00     0.332 A 
HETATM   11  C   UNK     0     -21.837   8.097   4.346  0.00  0.00     0.212 A 
HETATM   12  C   UNK     0     -22.643  11.627   2.206  0.00  0.00     0.163 C 
HETATM   13  C   UNK     0     -22.581   7.549   6.672  0.00  0.00     0.157 C 
HETATM   14  C   UNK     0     -24.973  12.583   6.479  0.00  0.00     0.164 C 
ENDROOT
TORSDOF 0
ENDMDL
