MODEL 1
REMARK VINA RESULT:      -5.9      0.000      0.000
REMARK  0 active torsions:
REMARK  status: ('A' for Active; 'I' for Inactive)
ROOT
HETATM    1  O   UNK     0     -22.292  11.056   3.533  0.00  0.00    -0.265 OA
HETATM    2  O   UNK     0     -24.976  14.269   5.651  0.00  0.00    -0.246 OA
HETATM    3  N   UNK     0     -25.018  12.092   6.471  0.00  0.00    -0.286 N 
HETATM    4  N   UNK     0     -23.391   9.132   5.543  0.00  0.00    -0.338 N 
HETATM    5  N   UNK     0     -23.628  12.683   4.577  0.00  0.00    -0.269 N 
HETATM    6  N   UNK     0     -24.859   9.722   7.114  0.00  0.00    -0.223 NA
HETATM    7  C   UNK     0     -23.631  10.463   5.361  0.00  0.00     0.151 A 
HETATM    8  C   UNK     0     -24.530  10.799   6.335  0.00  0.00     0.167 A 
HETATM    9  C   UNK     0     -23.102  11.375   4.399  0.00  0.00     0.282 A 
HETATM   10  C   UNK     0     -24.577  13.101   5.579  0.00  0.00     0.332 A 
HETATM   11  C   UNK     0     -24.154   8.730   6.609  0.00  0.00     0.212 A 
HETATM   12  C   UNK     0     -25.976  12.410   7.522  0.00  0.00     0.163 C 
HETATM   13  C   UNK     0     -22.511   8.284   4.775  0.00  0.00     0.157 C 
HETATM   14  C   UNK     0     -23.161  13.708   3.650  0.00  0.00     0.164 C 
ENDROOT
TORSDOF 0
ENDMDL
MODEL 2
REMARK VINA RESULT:      -5.7      1.500      3.684
REMARK  0 active torsions:
REMARK  status: ('A' for Active; 'I' for Inactive)
ROOT
HETATM    1  O   UNK     0     -23.384  12.692   3.430  0.00  0.00    -0.265 OA
HETATM    2  O   UNK     0     -22.717   8.254   4.799  0.00  0.00    -0.246 OA
HETATM    3  N   UNK     0     -24.042   9.625   6.132  0.00  0.00    -0.286 N 
HETATM    4  N   UNK     0     -25.051  12.972   5.898  0.00  0.00    -0.338 N 
HETATM    5  N   UNK     0     -23.035  10.466   4.095  0.00  0.00    -0.269 N 
HETATM    6  N   UNK     0     -25.387  11.300   7.333  0.00  0.00    -0.223 NA
HETATM    7  C   UNK     0     -24.364  11.900   5.404  0.00  0.00     0.151 A 
HETATM    8  C   UNK     0     -24.587  10.892   6.300  0.00  0.00     0.167 A 
HETATM    9  C   UNK     0     -23.570  11.775   4.225  0.00  0.00     0.282 A 
HETATM   10  C   UNK     0     -23.229   9.361   5.001  0.00  0.00     0.332 A 
HETATM   11  C   UNK     0     -25.650  12.561   7.061  0.00  0.00     0.212 A 
HETATM   12  C   UNK     0     -24.303   8.577   7.110  0.00  0.00     0.163 C 
HETATM   13  C   UNK     0     -25.146  14.295   5.327  0.00  0.00     0.157 C 
HETATM   14  C   UNK     0     -22.202  10.213   2.924  0.00  0.00     0.164 C 
ENDROOT
TORSDOF 0
ENDMDL
MODEL 3
REMARK VINA RESULT:      -5.7      1.869      4.641
REMARK  0 active torsions:
REMARK  status: ('A' for Active; 'I' for Inactive)
ROOT
HETATM    1  O   UNK     0     -24.400   9.760   7.539  0.00  0.00    -0.265 OA
HETATM    2  O   UNK     0     -21.830   8.439   3.842  0.00  0.00    -0.246 OA
HETATM    3  N   UNK     0     -22.943  10.479   3.731  0.00  0.00    -0.286 N 
HETATM    4  N   UNK     0     -25.027  12.215   5.948  0.00  0.00    -0.338 N 
HETATM    5  N   UNK     0     -23.107   9.076   5.700  0.00  0.00    -0.269 N 
HETATM    6  N   UNK     0     -24.226  12.573   3.899  0.00  0.00    -0.223 NA
HETATM    7  C   UNK     0     -24.257  11.129   5.644  0.00  0.00     0.151 A 
HETATM    8  C   UNK     0     -23.778  11.374   4.387  0.00  0.00     0.167 A 
HETATM    9  C   UNK     0     -23.963   9.961   6.409  0.00  0.00     0.282 A 
HETATM   10  C   UNK     0     -22.570   9.274   4.376  0.00  0.00     0.332 A 
HETATM   11  C   UNK     0     -24.977  13.056   4.867  0.00  0.00     0.212 A 
HETATM   12  C   UNK     0     -22.454  10.776   2.391  0.00  0.00     0.163 C 
HETATM   13  C   UNK     0     -25.763  12.457   7.166  0.00  0.00     0.157 C 
HETATM   14  C   UNK     0     -22.733   7.842   6.381  0.00  0.00     0.164 C 
ENDROOT
TORSDOF 0
ENDMDL
