MODEL 1
REMARK VINA RESULT:      -5.3      0.000      0.000
REMARK  0 active torsions:
REMARK  status: ('A' for Active; 'I' for Inactive)
ROOT
HETATM    1  O   UNK     0     -39.826  50.977  13.906  0.00  0.00    -0.265 OA
HETATM    2  O   UNK     0     -40.837  46.990  16.163  0.00  0.00    -0.246 OA
HETATM    3  N   UNK     0     -38.978  48.202  16.859  0.00  0.00    -0.286 N 
HETATM    4  N   UNK     0     -37.513  51.200  15.790  0.00  0.00    -0.338 N 
HETATM    5  N   UNK     0     -40.352  48.976  15.021  0.00  0.00    -0.269 N 
HETATM    6  N   UNK     0     -37.083  49.688  17.371  0.00  0.00    -0.223 NA
HETATM    7  C   UNK     0     -38.483  50.245  15.680  0.00  0.00     0.151 A 
HETATM    8  C   UNK     0     -38.197  49.334  16.659  0.00  0.00     0.167 A 
HETATM    9  C   UNK     0     -39.584  50.146  14.777  0.00  0.00     0.282 A 
HETATM   10  C   UNK     0     -40.106  47.978  16.032  0.00  0.00     0.332 A 
HETATM   11  C   UNK     0     -36.694  50.819  16.822  0.00  0.00     0.212 A 
HETATM   12  C   UNK     0     -38.640  47.254  17.913  0.00  0.00     0.163 C 
HETATM   13  C   UNK     0     -37.355  52.390  14.988  0.00  0.00     0.157 C 
HETATM   14  C   UNK     0     -41.510  48.763  14.159  0.00  0.00     0.164 C 
ENDROOT
TORSDOF 0
ENDMDL
MODEL 2
REMARK VINA RESULT:      -5.3      1.861      3.337
REMARK  0 active torsions:
REMARK  status: ('A' for Active; 'I' for Inactive)
ROOT
HETATM    1  O   UNK     0     -37.554  49.272  16.670  0.00  0.00    -0.265 OA
HETATM    2  O   UNK     0     -40.960  46.059  16.961  0.00  0.00    -0.246 OA
HETATM    3  N   UNK     0     -41.224  47.803  15.443  0.00  0.00    -0.286 N 
HETATM    4  N   UNK     0     -39.254  50.566  14.576  0.00  0.00    -0.338 N 
HETATM    5  N   UNK     0     -39.246  47.651  16.834  0.00  0.00    -0.269 N 
HETATM    6  N   UNK     0     -41.227  49.749  13.937  0.00  0.00    -0.223 NA
HETATM    7  C   UNK     0     -39.459  49.438  15.318  0.00  0.00     0.151 A 
HETATM    8  C   UNK     0     -40.672  48.958  14.906  0.00  0.00     0.167 A 
HETATM    9  C   UNK     0     -38.642  48.827  16.316  0.00  0.00     0.282 A 
HETATM   10  C   UNK     0     -40.519  47.093  16.446  0.00  0.00     0.332 A 
HETATM   11  C   UNK     0     -40.347  50.712  13.760  0.00  0.00     0.212 A 
HETATM   12  C   UNK     0     -42.520  47.323  14.979  0.00  0.00     0.163 C 
HETATM   13  C   UNK     0     -38.117  51.455  14.622  0.00  0.00     0.157 C 
HETATM   14  C   UNK     0     -38.504  46.934  17.865  0.00  0.00     0.164 C 
ENDROOT
TORSDOF 0
ENDMDL
MODEL 3
REMARK VINA RESULT:      -5.2      1.848      3.245
REMARK  0 active torsions:
REMARK  status: ('A' for Active; 'I' for Inactive)
ROOT
HETATM    1  O   UNK     0     -38.802  47.889  17.391  0.00  0.00    -0.265 OA
HETATM    2  O   UNK     0     -42.550  47.480  14.598  0.00  0.00    -0.246 OA
HETATM    3  N   UNK     0     -41.075  49.235  14.203  0.00  0.00    -0.286 N 
HETATM    4  N   UNK     0     -38.105  50.283  15.738  0.00  0.00    -0.338 N 
HETATM    5  N   UNK     0     -40.687  47.664  16.006  0.00  0.00    -0.269 N 
HETATM    6  N   UNK     0     -39.350  50.982  14.026  0.00  0.00    -0.223 NA
HETATM    7  C   UNK     0     -39.160  49.420  15.655  0.00  0.00     0.151 A 
HETATM    8  C   UNK     0     -39.905  49.870  14.600  0.00  0.00     0.167 A 
HETATM    9  C   UNK     0     -39.485  48.280  16.448  0.00  0.00     0.282 A 
HETATM   10  C   UNK     0     -41.517  48.086  14.905  0.00  0.00     0.332 A 
HETATM   11  C   UNK     0     -38.265  51.206  14.737  0.00  0.00     0.212 A 
HETATM   12  C   UNK     0     -41.841  49.745  13.073  0.00  0.00     0.163 C 
HETATM   13  C   UNK     0     -37.018  50.254  16.687  0.00  0.00     0.157 C 
HETATM   14  C   UNK     0     -41.125  46.482  16.741  0.00  0.00     0.164 C 
ENDROOT
TORSDOF 0
ENDMDL
