MODEL 1
REMARK VINA RESULT:      -5.4      0.000      0.000
REMARK  0 active torsions:
REMARK  status: ('A' for Active; 'I' for Inactive)
ROOT
HETATM    1  O   UNK     0     -33.370 -57.132   9.887  0.00  0.00    -0.265 OA
HETATM    2  O   UNK     0     -32.646 -54.283   6.230  0.00  0.00    -0.246 OA
HETATM    3  N   UNK     0     -30.809 -55.373   7.151  0.00  0.00    -0.286 N 
HETATM    4  N   UNK     0     -30.418 -57.616   9.813  0.00  0.00    -0.338 N 
HETATM    5  N   UNK     0     -33.033 -55.699   8.055  0.00  0.00    -0.269 N 
HETATM    6  N   UNK     0     -29.066 -56.653   8.326  0.00  0.00    -0.223 NA
HETATM    7  C   UNK     0     -31.211 -56.829   9.029  0.00  0.00     0.151 A 
HETATM    8  C   UNK     0     -30.360 -56.252   8.127  0.00  0.00     0.167 A 
HETATM    9  C   UNK     0     -32.620 -56.603   9.071  0.00  0.00     0.282 A 
HETATM   10  C   UNK     0     -32.189 -55.058   7.077  0.00  0.00     0.332 A 
HETATM   11  C   UNK     0     -29.135 -57.476   9.351  0.00  0.00     0.212 A 
HETATM   12  C   UNK     0     -29.870 -54.779   6.208  0.00  0.00     0.163 C 
HETATM   13  C   UNK     0     -30.825 -58.445  10.923  0.00  0.00     0.157 C 
HETATM   14  C   UNK     0     -34.457 -55.388   7.995  0.00  0.00     0.164 C 
ENDROOT
TORSDOF 0
ENDMDL
MODEL 2
REMARK VINA RESULT:      -5.4      2.176      3.359
REMARK  0 active torsions:
REMARK  status: ('A' for Active; 'I' for Inactive)
ROOT
HETATM    1  O   UNK     0     -29.403 -55.855   7.661  0.00  0.00    -0.265 OA
HETATM    2  O   UNK     0     -34.017 -56.709   7.655  0.00  0.00    -0.246 OA
HETATM    3  N   UNK     0     -32.590 -58.399   8.375  0.00  0.00    -0.286 N 
HETATM    4  N   UNK     0     -29.111 -58.643   8.705  0.00  0.00    -0.338 N 
HETATM    5  N   UNK     0     -31.718 -56.259   7.648  0.00  0.00    -0.269 N 
HETATM    6  N   UNK     0     -30.848 -59.989   9.080  0.00  0.00    -0.223 NA
HETATM    7  C   UNK     0     -30.226 -57.932   8.366  0.00  0.00     0.151 A 
HETATM    8  C   UNK     0     -31.274 -58.777   8.605  0.00  0.00     0.167 A 
HETATM    9  C   UNK     0     -30.357 -56.601   7.867  0.00  0.00     0.282 A 
HETATM   10  C   UNK     0     -32.866 -57.101   7.878  0.00  0.00     0.332 A 
HETATM   11  C   UNK     0     -29.537 -59.875   9.129  0.00  0.00     0.212 A 
HETATM   12  C   UNK     0     -33.679 -59.329   8.643  0.00  0.00     0.163 C 
HETATM   13  C   UNK     0     -27.736 -58.207   8.640  0.00  0.00     0.157 C 
HETATM   14  C   UNK     0     -31.982 -54.918   7.138  0.00  0.00     0.164 C 
ENDROOT
TORSDOF 0
ENDMDL
MODEL 3
REMARK VINA RESULT:      -5.4      8.873     10.895
REMARK  0 active torsions:
REMARK  status: ('A' for Active; 'I' for Inactive)
ROOT
HETATM    1  O   UNK     0     -31.117 -49.553   1.133  0.00  0.00    -0.265 OA
HETATM    2  O   UNK     0     -28.718 -45.569   0.506  0.00  0.00    -0.246 OA
HETATM    3  N   UNK     0     -27.533 -47.480   1.105  0.00  0.00    -0.286 N 
HETATM    4  N   UNK     0     -28.467 -50.791   1.762  0.00  0.00    -0.338 N 
HETATM    5  N   UNK     0     -29.937 -47.545   0.814  0.00  0.00    -0.269 N 
HETATM    6  N   UNK     0     -26.554 -49.647   1.738  0.00  0.00    -0.223 NA
HETATM    7  C   UNK     0     -28.792 -49.510   1.421  0.00  0.00     0.151 A 
HETATM    8  C   UNK     0     -27.605 -48.832   1.413  0.00  0.00     0.167 A 
HETATM    9  C   UNK     0     -30.060 -48.927   1.123  0.00  0.00     0.282 A 
HETATM   10  C   UNK     0     -28.720 -46.773   0.788  0.00  0.00     0.332 A 
HETATM   11  C   UNK     0     -27.108 -50.824   1.943  0.00  0.00     0.212 A 
HETATM   12  C   UNK     0     -26.248 -46.793   1.107  0.00  0.00     0.163 C 
HETATM   13  C   UNK     0     -29.361 -51.916   1.912  0.00  0.00     0.157 C 
HETATM   14  C   UNK     0     -31.170 -46.835   0.489  0.00  0.00     0.164 C 
ENDROOT
TORSDOF 0
ENDMDL
