MODEL 1
REMARK VINA RESULT:      -5.8      0.000      0.000
REMARK  0 active torsions:
REMARK  status: ('A' for Active; 'I' for Inactive)
ROOT
HETATM    1  O   UNK     0      -3.405  16.863 -23.994  0.00  0.00    -0.265 OA
HETATM    2  O   UNK     0      -5.839  17.268 -27.985  0.00  0.00    -0.246 OA
HETATM    3  N   UNK     0      -4.121  18.786 -27.590  0.00  0.00    -0.286 N 
HETATM    4  N   UNK     0      -1.847  19.227 -24.962  0.00  0.00    -0.338 N 
HETATM    5  N   UNK     0      -4.639  17.046 -25.986  0.00  0.00    -0.269 N 
HETATM    6  N   UNK     0      -2.257  20.240 -26.904  0.00  0.00    -0.223 NA
HETATM    7  C   UNK     0      -2.889  18.553 -25.531  0.00  0.00     0.151 A 
HETATM    8  C   UNK     0      -3.119  19.193 -26.718  0.00  0.00     0.167 A 
HETATM    9  C   UNK     0      -3.628  17.426 -25.063  0.00  0.00     0.282 A 
HETATM   10  C   UNK     0      -4.933  17.676 -27.249  0.00  0.00     0.332 A 
HETATM   11  C   UNK     0      -1.502  20.234 -25.826  0.00  0.00     0.212 A 
HETATM   12  C   UNK     0      -4.334  19.493 -28.846  0.00  0.00     0.163 C 
HETATM   13  C   UNK     0      -1.212  18.954 -23.694  0.00  0.00     0.157 C 
HETATM   14  C   UNK     0      -5.463  15.900 -25.618  0.00  0.00     0.164 C 
ENDROOT
TORSDOF 0
ENDMDL
MODEL 2
REMARK VINA RESULT:      -5.7      1.555      3.678
REMARK  0 active torsions:
REMARK  status: ('A' for Active; 'I' for Inactive)
ROOT
HETATM    1  O   UNK     0      -3.444  16.940 -23.997  0.00  0.00    -0.265 OA
HETATM    2  O   UNK     0      -1.650  20.602 -26.317  0.00  0.00    -0.246 OA
HETATM    3  N   UNK     0      -3.395  19.425 -27.308  0.00  0.00    -0.286 N 
HETATM    4  N   UNK     0      -5.288  16.643 -26.334  0.00  0.00    -0.338 N 
HETATM    5  N   UNK     0      -2.529  18.777 -25.140  0.00  0.00    -0.269 N 
HETATM    6  N   UNK     0      -5.237  17.999 -28.102  0.00  0.00    -0.223 NA
HETATM    7  C   UNK     0      -4.295  17.548 -26.093  0.00  0.00     0.151 A 
HETATM    8  C   UNK     0      -4.286  18.366 -27.189  0.00  0.00     0.167 A 
HETATM    9  C   UNK     0      -3.419  17.683 -24.974  0.00  0.00     0.282 A 
HETATM   10  C   UNK     0      -2.466  19.675 -26.267  0.00  0.00     0.332 A 
HETATM   11  C   UNK     0      -5.825  16.955 -27.556  0.00  0.00     0.212 A 
HETATM   12  C   UNK     0      -3.417  20.274 -28.492  0.00  0.00     0.163 C 
HETATM   13  C   UNK     0      -5.712  15.555 -25.484  0.00  0.00     0.157 C 
HETATM   14  C   UNK     0      -1.580  19.019 -24.058  0.00  0.00     0.164 C 
ENDROOT
TORSDOF 0
ENDMDL
MODEL 3
REMARK VINA RESULT:      -5.6      1.784      3.157
REMARK  0 active torsions:
REMARK  status: ('A' for Active; 'I' for Inactive)
ROOT
HETATM    1  O   UNK     0      -2.007  20.748 -26.523  0.00  0.00    -0.265 OA
HETATM    2  O   UNK     0      -6.036  19.068 -28.246  0.00  0.00    -0.246 OA
HETATM    3  N   UNK     0      -5.119  18.020 -26.382  0.00  0.00    -0.286 N 
HETATM    4  N   UNK     0      -2.230  18.575 -24.479  0.00  0.00    -0.338 N 
HETATM    5  N   UNK     0      -4.024  19.925 -27.405  0.00  0.00    -0.269 N 
HETATM    6  N   UNK     0      -3.919  17.121 -24.430  0.00  0.00    -0.223 NA
HETATM    7  C   UNK     0      -3.048  18.905 -25.521  0.00  0.00     0.151 A 
HETATM    8  C   UNK     0      -4.073  18.001 -25.467  0.00  0.00     0.167 A 
HETATM    9  C   UNK     0      -2.935  19.944 -26.493  0.00  0.00     0.282 A 
HETATM   10  C   UNK     0      -5.132  19.002 -27.404  0.00  0.00     0.332 A 
HETATM   11  C   UNK     0      -2.796  17.495 -23.853  0.00  0.00     0.212 A 
HETATM   12  C   UNK     0      -6.193  17.040 -26.292  0.00  0.00     0.163 C 
HETATM   13  C   UNK     0      -0.999  19.221 -24.089  0.00  0.00     0.157 C 
HETATM   14  C   UNK     0      -4.021  20.944 -28.449  0.00  0.00     0.164 C 
ENDROOT
TORSDOF 0
ENDMDL
