MODEL 1
REMARK VINA RESULT:      -5.8      0.000      0.000
REMARK  0 active torsions:
REMARK  status: ('A' for Active; 'I' for Inactive)
ROOT
HETATM    1  O   UNK     0       4.445   9.348  19.247  0.00  0.00    -0.265 OA
HETATM    2  O   UNK     0       1.216   6.350  17.635  0.00  0.00    -0.246 OA
HETATM    3  N   UNK     0       2.258   5.857  19.656  0.00  0.00    -0.286 N 
HETATM    4  N   UNK     0       4.712   7.474  21.563  0.00  0.00    -0.338 N 
HETATM    5  N   UNK     0       2.825   7.862  18.419  0.00  0.00    -0.269 N 
HETATM    6  N   UNK     0       3.518   5.601  21.755  0.00  0.00    -0.223 NA
HETATM    7  C   UNK     0       3.913   7.415  20.458  0.00  0.00     0.151 A 
HETATM    8  C   UNK     0       3.193   6.262  20.601  0.00  0.00     0.167 A 
HETATM    9  C   UNK     0       3.792   8.315  19.356  0.00  0.00     0.282 A 
HETATM   10  C   UNK     0       2.035   6.658  18.509  0.00  0.00     0.332 A 
HETATM   11  C   UNK     0       4.439   6.359  22.313  0.00  0.00     0.212 A 
HETATM   12  C   UNK     0       1.510   4.621  19.845  0.00  0.00     0.163 C 
HETATM   13  C   UNK     0       5.671   8.499  21.902  0.00  0.00     0.157 C 
HETATM   14  C   UNK     0       2.609   8.700  17.244  0.00  0.00     0.164 C 
ENDROOT
TORSDOF 0
ENDMDL
MODEL 2
REMARK VINA RESULT:      -5.8      3.245      5.067
REMARK  0 active torsions:
REMARK  status: ('A' for Active; 'I' for Inactive)
ROOT
HETATM    1  O   UNK     0       3.892  10.599  13.980  0.00  0.00    -0.265 OA
HETATM    2  O   UNK     0       3.447   6.490  16.202  0.00  0.00    -0.246 OA
HETATM    3  N   UNK     0       3.354   8.439  17.470  0.00  0.00    -0.286 N 
HETATM    4  N   UNK     0       3.586  11.844  16.683  0.00  0.00    -0.338 N 
HETATM    5  N   UNK     0       3.672   8.529  15.070  0.00  0.00    -0.269 N 
HETATM    6  N   UNK     0       3.297  10.653  18.544  0.00  0.00    -0.223 NA
HETATM    7  C   UNK     0       3.587  10.533  16.301  0.00  0.00     0.151 A 
HETATM    8  C   UNK     0       3.408   9.826  17.458  0.00  0.00     0.167 A 
HETATM    9  C   UNK     0       3.735   9.947  15.008  0.00  0.00     0.282 A 
HETATM   10  C   UNK     0       3.487   7.725  16.253  0.00  0.00     0.332 A 
HETATM   11  C   UNK     0       3.408  11.865  18.042  0.00  0.00     0.212 A 
HETATM   12  C   UNK     0       3.162   7.722  18.724  0.00  0.00     0.163 C 
HETATM   13  C   UNK     0       3.740  13.006  15.839  0.00  0.00     0.157 C 
HETATM   14  C   UNK     0       3.810   7.812  13.807  0.00  0.00     0.164 C 
ENDROOT
TORSDOF 0
ENDMDL
MODEL 3
REMARK VINA RESULT:      -5.8      1.520      3.045
REMARK  0 active torsions:
REMARK  status: ('A' for Active; 'I' for Inactive)
ROOT
HETATM    1  O   UNK     0       3.585   5.553  21.733  0.00  0.00    -0.265 OA
HETATM    2  O   UNK     0       1.400   6.319  17.652  0.00  0.00    -0.246 OA
HETATM    3  N   UNK     0       2.896   7.929  18.414  0.00  0.00    -0.286 N 
HETATM    4  N   UNK     0       4.916   8.191  21.264  0.00  0.00    -0.338 N 
HETATM    5  N   UNK     0       2.478   5.914  19.692  0.00  0.00    -0.269 N 
HETATM    6  N   UNK     0       4.524   9.447  19.465  0.00  0.00    -0.223 NA
HETATM    7  C   UNK     0       4.002   7.509  20.514  0.00  0.00     0.151 A 
HETATM    8  C   UNK     0       3.781   8.298  19.419  0.00  0.00     0.167 A 
HETATM    9  C   UNK     0       3.371   6.250  20.745  0.00  0.00     0.282 A 
HETATM   10  C   UNK     0       2.199   6.700  18.515  0.00  0.00     0.332 A 
HETATM   11  C   UNK     0       5.199   9.352  20.591  0.00  0.00     0.212 A 
HETATM   12  C   UNK     0       2.688   8.798  17.263  0.00  0.00     0.163 C 
HETATM   13  C   UNK     0       5.491   7.791  22.527  0.00  0.00     0.157 C 
HETATM   14  C   UNK     0       1.770   4.644  19.814  0.00  0.00     0.164 C 
ENDROOT
TORSDOF 0
ENDMDL
