MODEL 1
REMARK VINA RESULT:      -4.8      0.000      0.000
REMARK  0 active torsions:
REMARK  status: ('A' for Active; 'I' for Inactive)
ROOT
HETATM    1  O   UNK     0      33.764  16.174  -0.798  0.00  0.00    -0.265 OA
HETATM    2  O   UNK     0      33.439  19.630   2.358  0.00  0.00    -0.246 OA
HETATM    3  N   UNK     0      31.507  18.454   1.818  0.00  0.00    -0.286 N 
HETATM    4  N   UNK     0      30.828  15.799  -0.364  0.00  0.00    -0.338 N 
HETATM    5  N   UNK     0      33.627  17.910   0.780  0.00  0.00    -0.269 N 
HETATM    6  N   UNK     0      29.640  17.043   1.053  0.00  0.00    -0.223 NA
HETATM    7  C   UNK     0      31.705  16.685   0.193  0.00  0.00     0.151 A 
HETATM    8  C   UNK     0      30.953  17.433   1.056  0.00  0.00     0.167 A 
HETATM    9  C   UNK     0      33.105  16.858  -0.020  0.00  0.00     0.282 A 
HETATM   10  C   UNK     0      32.891  18.735   1.706  0.00  0.00     0.332 A 
HETATM   11  C   UNK     0      29.598  16.054   0.185  0.00  0.00     0.212 A 
HETATM   12  C   UNK     0      30.672  19.228   2.727  0.00  0.00     0.163 C 
HETATM   13  C   UNK     0      31.114  14.779  -1.345  0.00  0.00     0.157 C 
HETATM   14  C   UNK     0      35.054  18.184   0.651  0.00  0.00     0.164 C 
ENDROOT
TORSDOF 0
ENDMDL
MODEL 2
REMARK VINA RESULT:      -4.7     15.719     16.445
REMARK  0 active torsions:
REMARK  status: ('A' for Active; 'I' for Inactive)
ROOT
HETATM    1  O   UNK     0      39.547   3.927  10.782  0.00  0.00    -0.265 OA
HETATM    2  O   UNK     0      40.980   5.164   6.489  0.00  0.00    -0.246 OA
HETATM    3  N   UNK     0      39.842   6.744   7.763  0.00  0.00    -0.286 N 
HETATM    4  N   UNK     0      38.446   6.702  10.975  0.00  0.00    -0.338 N 
HETATM    5  N   UNK     0      40.274   4.523   8.629  0.00  0.00    -0.269 N 
HETATM    6  N   UNK     0      38.621   8.196   9.331  0.00  0.00    -0.223 NA
HETATM    7  C   UNK     0      39.117   6.079   9.963  0.00  0.00     0.151 A 
HETATM    8  C   UNK     0      39.212   7.015   8.971  0.00  0.00     0.167 A 
HETATM    9  C   UNK     0      39.639   4.753   9.879  0.00  0.00     0.282 A 
HETATM   10  C   UNK     0      40.407   5.463   7.543  0.00  0.00     0.332 A 
HETATM   11  C   UNK     0      38.168   7.975  10.547  0.00  0.00     0.212 A 
HETATM   12  C   UNK     0      39.922   7.768   6.730  0.00  0.00     0.163 C 
HETATM   13  C   UNK     0      38.083   6.151  12.260  0.00  0.00     0.157 C 
HETATM   14  C   UNK     0      40.850   3.199   8.422  0.00  0.00     0.164 C 
ENDROOT
TORSDOF 0
ENDMDL
MODEL 3
REMARK VINA RESULT:      -4.6      2.537      4.465
REMARK  0 active torsions:
REMARK  status: ('A' for Active; 'I' for Inactive)
ROOT
HETATM    1  O   UNK     0      29.673  16.078   1.732  0.00  0.00    -0.265 OA
HETATM    2  O   UNK     0      32.387  16.454  -2.077  0.00  0.00    -0.246 OA
HETATM    3  N   UNK     0      30.178  15.785  -2.367  0.00  0.00    -0.286 N 
HETATM    4  N   UNK     0      27.509  15.250  -0.162  0.00  0.00    -0.338 N 
HETATM    5  N   UNK     0      31.052  16.273  -0.161  0.00  0.00    -0.269 N 
HETATM    6  N   UNK     0      27.813  15.103  -2.365  0.00  0.00    -0.223 NA
HETATM    7  C   UNK     0      28.809  15.600  -0.392  0.00  0.00     0.151 A 
HETATM    8  C   UNK     0      28.968  15.502  -1.747  0.00  0.00     0.167 A 
HETATM    9  C   UNK     0      29.835  15.993   0.517  0.00  0.00     0.282 A 
HETATM   10  C   UNK     0      31.286  16.189  -1.582  0.00  0.00     0.332 A 
HETATM   11  C   UNK     0      26.951  14.959  -1.380  0.00  0.00     0.212 A 
HETATM   12  C   UNK     0      30.307  15.669  -3.814  0.00  0.00     0.163 C 
HETATM   13  C   UNK     0      26.827  15.189   1.109  0.00  0.00     0.157 C 
HETATM   14  C   UNK     0      32.181  16.688   0.665  0.00  0.00     0.164 C 
ENDROOT
TORSDOF 0
ENDMDL
