MODEL 1
REMARK VINA RESULT:      -5.5      0.000      0.000
REMARK  0 active torsions:
REMARK  status: ('A' for Active; 'I' for Inactive)
ROOT
HETATM    1  O   UNK     0      16.671  52.867  23.331  0.00  0.00    -0.265 OA
HETATM    2  O   UNK     0      18.669  54.959  27.025  0.00  0.00    -0.246 OA
HETATM    3  N   UNK     0      16.361  54.672  27.044  0.00  0.00    -0.286 N 
HETATM    4  N   UNK     0      14.086  53.259  24.785  0.00  0.00    -0.338 N 
HETATM    5  N   UNK     0      17.695  53.912  25.170  0.00  0.00    -0.269 N 
HETATM    6  N   UNK     0      13.952  54.235  26.785  0.00  0.00    -0.223 NA
HETATM    7  C   UNK     0      15.363  53.596  25.132  0.00  0.00     0.151 A 
HETATM    8  C   UNK     0      15.253  54.190  26.359  0.00  0.00     0.167 A 
HETATM    9  C   UNK     0      16.592  53.406  24.432  0.00  0.00     0.282 A 
HETATM   10  C   UNK     0      17.647  54.549  26.463  0.00  0.00     0.332 A 
HETATM   11  C   UNK     0      13.273  53.665  25.812  0.00  0.00     0.212 A 
HETATM   12  C   UNK     0      16.202  55.299  28.350  0.00  0.00     0.163 C 
HETATM   13  C   UNK     0      13.647  52.603  23.576  0.00  0.00     0.157 C 
HETATM   14  C   UNK     0      19.011  53.775  24.556  0.00  0.00     0.164 C 
ENDROOT
TORSDOF 0
ENDMDL
MODEL 2
REMARK VINA RESULT:      -5.4      2.503      4.566
REMARK  0 active torsions:
REMARK  status: ('A' for Active; 'I' for Inactive)
ROOT
HETATM    1  O   UNK     0      17.488  52.365  23.567  0.00  0.00    -0.265 OA
HETATM    2  O   UNK     0      14.902  56.052  24.884  0.00  0.00    -0.246 OA
HETATM    3  N   UNK     0      17.178  56.379  24.533  0.00  0.00    -0.286 N 
HETATM    4  N   UNK     0      19.799  54.265  23.567  0.00  0.00    -0.338 N 
HETATM    5  N   UNK     0      16.172  54.196  24.227  0.00  0.00    -0.269 N 
HETATM    6  N   UNK     0      19.599  56.422  24.091  0.00  0.00    -0.223 NA
HETATM    7  C   UNK     0      18.481  54.466  23.859  0.00  0.00     0.151 A 
HETATM    8  C   UNK     0      18.386  55.793  24.175  0.00  0.00     0.167 A 
HETATM    9  C   UNK     0      17.384  53.554  23.857  0.00  0.00     0.282 A 
HETATM   10  C   UNK     0      16.004  55.586  24.573  0.00  0.00     0.332 A 
HETATM   11  C   UNK     0      20.432  55.471  23.721  0.00  0.00     0.212 A 
HETATM   12  C   UNK     0      17.118  57.797  24.864  0.00  0.00     0.163 C 
HETATM   13  C   UNK     0      20.433  53.030  23.169  0.00  0.00     0.157 C 
HETATM   14  C   UNK     0      14.974  53.364  24.262  0.00  0.00     0.164 C 
ENDROOT
TORSDOF 0
ENDMDL
MODEL 3
REMARK VINA RESULT:      -5.4      2.400      4.486
REMARK  0 active torsions:
REMARK  status: ('A' for Active; 'I' for Inactive)
ROOT
HETATM    1  O   UNK     0      18.621  56.678  24.735  0.00  0.00    -0.265 OA
HETATM    2  O   UNK     0      14.086  55.530  25.103  0.00  0.00    -0.246 OA
HETATM    3  N   UNK     0      15.552  53.945  24.238  0.00  0.00    -0.286 N 
HETATM    4  N   UNK     0      18.999  53.929  23.618  0.00  0.00    -0.338 N 
HETATM    5  N   UNK     0      16.344  56.127  24.929  0.00  0.00    -0.269 N 
HETATM    6  N   UNK     0      17.326  52.479  23.363  0.00  0.00    -0.223 NA
HETATM    7  C   UNK     0      17.874  54.564  24.060  0.00  0.00     0.151 A 
HETATM    8  C   UNK     0      16.866  53.655  23.893  0.00  0.00     0.167 A 
HETATM    9  C   UNK     0      17.702  55.877  24.591  0.00  0.00     0.282 A 
HETATM   10  C   UNK     0      15.237  55.216  24.779  0.00  0.00     0.332 A 
HETATM   11  C   UNK     0      18.618  52.677  23.209  0.00  0.00     0.212 A 
HETATM   12  C   UNK     0      14.505  52.949  24.045  0.00  0.00     0.163 C 
HETATM   13  C   UNK     0      20.345  54.451  23.578  0.00  0.00     0.157 C 
HETATM   14  C   UNK     0      16.040  57.441  25.485  0.00  0.00     0.164 C 
ENDROOT
TORSDOF 0
ENDMDL
