MODEL 1
REMARK VINA RESULT:      -5.9      0.000      0.000
REMARK  0 active torsions:
REMARK  status: ('A' for Active; 'I' for Inactive)
ROOT
HETATM    1  O   UNK     0      35.084  34.846  50.411  0.00  0.00    -0.265 OA
HETATM    2  O   UNK     0      34.659  37.045  54.534  0.00  0.00    -0.246 OA
HETATM    3  N   UNK     0      32.758  36.815  53.214  0.00  0.00    -0.286 N 
HETATM    4  N   UNK     0      32.155  35.362  50.084  0.00  0.00    -0.338 N 
HETATM    5  N   UNK     0      34.897  35.944  52.480  0.00  0.00    -0.269 N 
HETATM    6  N   UNK     0      30.930  36.425  51.612  0.00  0.00    -0.223 NA
HETATM    7  C   UNK     0      33.007  35.682  51.101  0.00  0.00     0.151 A 
HETATM    8  C   UNK     0      32.233  36.331  52.022  0.00  0.00     0.167 A 
HETATM    9  C   UNK     0      34.405  35.433  51.249  0.00  0.00     0.282 A 
HETATM   10  C   UNK     0      34.136  36.636  53.492  0.00  0.00     0.332 A 
HETATM   11  C   UNK     0      30.916  35.830  50.438  0.00  0.00     0.212 A 
HETATM   12  C   UNK     0      31.899  37.501  54.170  0.00  0.00     0.163 C 
HETATM   13  C   UNK     0      32.470  34.665  48.859  0.00  0.00     0.157 C 
HETATM   14  C   UNK     0      36.317  35.749  52.749  0.00  0.00     0.164 C 
ENDROOT
TORSDOF 0
ENDMDL
MODEL 2
REMARK VINA RESULT:      -5.3     15.905     17.383
REMARK  0 active torsions:
REMARK  status: ('A' for Active; 'I' for Inactive)
ROOT
HETATM    1  O   UNK     0      19.860  30.520  54.367  0.00  0.00    -0.265 OA
HETATM    2  O   UNK     0      15.329  29.628  55.198  0.00  0.00    -0.246 OA
HETATM    3  N   UNK     0      16.670  27.882  54.448  0.00  0.00    -0.286 N 
HETATM    4  N   UNK     0      20.059  27.636  53.596  0.00  0.00    -0.338 N 
HETATM    5  N   UNK     0      17.587  30.098  54.790  0.00  0.00    -0.269 N 
HETATM    6  N   UNK     0      18.322  26.240  53.650  0.00  0.00    -0.223 NA
HETATM    7  C   UNK     0      18.993  28.371  54.028  0.00  0.00     0.151 A 
HETATM    8  C   UNK     0      17.944  27.493  54.053  0.00  0.00     0.167 A 
HETATM    9  C   UNK     0      18.906  29.747  54.393  0.00  0.00     0.282 A 
HETATM   10  C   UNK     0      16.441  29.225  54.838  0.00  0.00     0.332 A 
HETATM   11  C   UNK     0      19.605  26.360  53.381  0.00  0.00     0.212 A 
HETATM   12  C   UNK     0      15.578  26.917  54.461  0.00  0.00     0.163 C 
HETATM   13  C   UNK     0      21.415  28.089  53.393  0.00  0.00     0.157 C 
HETATM   14  C   UNK     0      17.372  31.485  55.189  0.00  0.00     0.164 C 
ENDROOT
TORSDOF 0
ENDMDL
MODEL 3
REMARK VINA RESULT:      -5.2      2.888      4.712
REMARK  0 active torsions:
REMARK  status: ('A' for Active; 'I' for Inactive)
ROOT
HETATM    1  O   UNK     0      28.682  34.046  48.567  0.00  0.00    -0.265 OA
HETATM    2  O   UNK     0      30.826  35.644  52.423  0.00  0.00    -0.246 OA
HETATM    3  N   UNK     0      32.127  35.215  50.543  0.00  0.00    -0.286 N 
HETATM    4  N   UNK     0      31.403  34.039  47.324  0.00  0.00    -0.338 N 
HETATM    5  N   UNK     0      29.733  34.847  50.511  0.00  0.00    -0.269 N 
HETATM    6  N   UNK     0      33.239  34.675  48.414  0.00  0.00    -0.223 NA
HETATM    7  C   UNK     0      30.998  34.394  48.578  0.00  0.00     0.151 A 
HETATM    8  C   UNK     0      32.140  34.779  49.224  0.00  0.00     0.167 A 
HETATM    9  C   UNK     0      29.697  34.394  49.164  0.00  0.00     0.282 A 
HETATM   10  C   UNK     0      30.899  35.265  51.248  0.00  0.00     0.332 A 
HETATM   11  C   UNK     0      32.760  34.225  47.274  0.00  0.00     0.212 A 
HETATM   12  C   UNK     0      33.366  35.617  51.196  0.00  0.00     0.163 C 
HETATM   13  C   UNK     0      30.581  33.557  46.238  0.00  0.00     0.157 C 
HETATM   14  C   UNK     0      28.459  34.893  51.220  0.00  0.00     0.164 C 
ENDROOT
TORSDOF 0
ENDMDL
