MODEL 1
REMARK VINA RESULT:      -5.6      0.000      0.000
REMARK  0 active torsions:
REMARK  status: ('A' for Active; 'I' for Inactive)
ROOT
HETATM    1  O   UNK     0     -20.284 -43.381  21.906  0.00  0.00    -0.265 OA
HETATM    2  O   UNK     0     -21.599 -38.952  22.726  0.00  0.00    -0.246 OA
HETATM    3  N   UNK     0     -21.300 -40.363  24.551  0.00  0.00    -0.286 N 
HETATM    4  N   UNK     0     -20.359 -43.721  24.877  0.00  0.00    -0.338 N 
HETATM    5  N   UNK     0     -20.943 -41.159  22.291  0.00  0.00    -0.269 N 
HETATM    6  N   UNK     0     -20.910 -42.076  26.276  0.00  0.00    -0.223 NA
HETATM    7  C   UNK     0     -20.626 -42.632  24.099  0.00  0.00     0.151 A 
HETATM    8  C   UNK     0     -20.960 -41.640  24.979  0.00  0.00     0.167 A 
HETATM    9  C   UNK     0     -20.589 -42.478  22.680  0.00  0.00     0.282 A 
HETATM   10  C   UNK     0     -21.305 -40.070  23.165  0.00  0.00     0.332 A 
HETATM   11  C   UNK     0     -20.543 -43.337  26.180  0.00  0.00     0.212 A 
HETATM   12  C   UNK     0     -21.650 -39.333  25.521  0.00  0.00     0.163 C 
HETATM   13  C   UNK     0     -19.957 -45.038  24.440  0.00  0.00     0.157 C 
HETATM   14  C   UNK     0     -20.941 -40.876  20.860  0.00  0.00     0.164 C 
ENDROOT
TORSDOF 0
ENDMDL
MODEL 2
REMARK VINA RESULT:      -5.5      1.646      3.203
REMARK  0 active torsions:
REMARK  status: ('A' for Active; 'I' for Inactive)
ROOT
HETATM    1  O   UNK     0     -21.703 -40.021  26.061  0.00  0.00    -0.265 OA
HETATM    2  O   UNK     0     -20.145 -40.883  21.720  0.00  0.00    -0.246 OA
HETATM    3  N   UNK     0     -20.452 -42.689  23.153  0.00  0.00    -0.286 N 
HETATM    4  N   UNK     0     -21.547 -42.981  26.468  0.00  0.00    -0.338 N 
HETATM    5  N   UNK     0     -20.923 -40.427  23.882  0.00  0.00    -0.269 N 
HETATM    6  N   UNK     0     -20.869 -44.392  24.881  0.00  0.00    -0.223 NA
HETATM    7  C   UNK     0     -21.252 -42.215  25.377  0.00  0.00     0.151 A 
HETATM    8  C   UNK     0     -20.841 -43.103  24.421  0.00  0.00     0.167 A 
HETATM    9  C   UNK     0     -21.329 -40.803  25.191  0.00  0.00     0.282 A 
HETATM   10  C   UNK     0     -20.480 -41.310  22.831  0.00  0.00     0.332 A 
HETATM   11  C   UNK     0     -21.300 -44.284  26.121  0.00  0.00     0.212 A 
HETATM   12  C   UNK     0     -20.021 -43.666  22.162  0.00  0.00     0.163 C 
HETATM   13  C   UNK     0     -22.027 -42.532  27.754  0.00  0.00     0.157 C 
HETATM   14  C   UNK     0     -20.959 -39.003  23.569  0.00  0.00     0.164 C 
ENDROOT
TORSDOF 0
ENDMDL
MODEL 3
REMARK VINA RESULT:      -5.5      1.599      2.334
REMARK  0 active torsions:
REMARK  status: ('A' for Active; 'I' for Inactive)
ROOT
HETATM    1  O   UNK     0     -20.277 -41.197  21.942  0.00  0.00    -0.265 OA
HETATM    2  O   UNK     0     -21.690 -39.571  26.111  0.00  0.00    -0.246 OA
HETATM    3  N   UNK     0     -21.431 -41.869  25.861  0.00  0.00    -0.286 N 
HETATM    4  N   UNK     0     -20.447 -43.911  23.190  0.00  0.00    -0.338 N 
HETATM    5  N   UNK     0     -20.984 -40.358  24.021  0.00  0.00    -0.269 N 
HETATM    6  N   UNK     0     -21.072 -44.240  25.304  0.00  0.00    -0.223 NA
HETATM    7  C   UNK     0     -20.706 -42.675  23.709  0.00  0.00     0.151 A 
HETATM    8  C   UNK     0     -21.085 -42.904  25.002  0.00  0.00     0.167 A 
HETATM    9  C   UNK     0     -20.623 -41.384  23.106  0.00  0.00     0.282 A 
HETATM   10  C   UNK     0     -21.393 -40.532  25.393  0.00  0.00     0.332 A 
HETATM   11  C   UNK     0     -20.682 -44.820  24.189  0.00  0.00     0.212 A 
HETATM   12  C   UNK     0     -21.830 -42.155  27.233  0.00  0.00     0.163 C 
HETATM   13  C   UNK     0     -20.010 -44.229  21.851  0.00  0.00     0.157 C 
HETATM   14  C   UNK     0     -20.938 -38.989  23.520  0.00  0.00     0.164 C 
ENDROOT
TORSDOF 0
ENDMDL
