MODEL 1
REMARK VINA RESULT:      -6.3      0.000      0.000
REMARK  0 active torsions:
REMARK  status: ('A' for Active; 'I' for Inactive)
ROOT
HETATM    1  O   UNK     0     162.881  -3.426 343.741  0.00  0.00    -0.265 OA
HETATM    2  O   UNK     0     162.194  -2.667 339.162  0.00  0.00    -0.246 OA
HETATM    3  N   UNK     0     164.384  -2.813 339.932  0.00  0.00    -0.286 N 
HETATM    4  N   UNK     0     165.801  -3.344 343.092  0.00  0.00    -0.338 N 
HETATM    5  N   UNK     0     162.512  -3.046 341.451  0.00  0.00    -0.269 N 
HETATM    6  N   UNK     0     166.579  -3.012 341.029  0.00  0.00    -0.223 NA
HETATM    7  C   UNK     0     164.706  -3.202 342.289  0.00  0.00     0.151 A 
HETATM    8  C   UNK     0     165.209  -3.001 341.033  0.00  0.00     0.167 A 
HETATM    9  C   UNK     0     163.315  -3.242 342.607  0.00  0.00     0.282 A 
HETATM   10  C   UNK     0     162.978  -2.829 340.104  0.00  0.00     0.332 A 
HETATM   11  C   UNK     0     166.905  -3.222 342.288  0.00  0.00     0.212 A 
HETATM   12  C   UNK     0     164.960  -2.602 338.610  0.00  0.00     0.163 C 
HETATM   13  C   UNK     0     165.822  -3.579 344.516  0.00  0.00     0.157 C 
HETATM   14  C   UNK     0     161.066  -3.067 341.649  0.00  0.00     0.164 C 
ENDROOT
TORSDOF 0
ENDMDL
MODEL 2
REMARK VINA RESULT:      -6.2      2.431      4.353
REMARK  0 active torsions:
REMARK  status: ('A' for Active; 'I' for Inactive)
ROOT
HETATM    1  O   UNK     0     164.897  -2.589 343.725  0.00  0.00    -0.265 OA
HETATM    2  O   UNK     0     167.693  -6.355 343.840  0.00  0.00    -0.246 OA
HETATM    3  N   UNK     0     167.026  -5.548 341.762  0.00  0.00    -0.286 N 
HETATM    4  N   UNK     0     165.007  -2.871 340.748  0.00  0.00    -0.338 N 
HETATM    5  N   UNK     0     166.297  -4.474 343.808  0.00  0.00    -0.269 N 
HETATM    6  N   UNK     0     166.164  -4.475 339.721  0.00  0.00    -0.223 NA
HETATM    7  C   UNK     0     165.589  -3.613 341.735  0.00  0.00     0.151 A 
HETATM    8  C   UNK     0     166.291  -4.587 341.080  0.00  0.00     0.167 A 
HETATM    9  C   UNK     0     165.531  -3.472 343.154  0.00  0.00     0.282 A 
HETATM   10  C   UNK     0     167.057  -5.526 343.179  0.00  0.00     0.332 A 
HETATM   11  C   UNK     0     165.383  -3.429 339.554  0.00  0.00     0.212 A 
HETATM   12  C   UNK     0     167.761  -6.569 341.028  0.00  0.00     0.163 C 
HETATM   13  C   UNK     0     164.155  -1.715 340.904  0.00  0.00     0.157 C 
HETATM   14  C   UNK     0     166.317  -4.435 345.266  0.00  0.00     0.164 C 
ENDROOT
TORSDOF 0
ENDMDL
MODEL 3
REMARK VINA RESULT:      -6.1      2.393      4.643
REMARK  0 active torsions:
REMARK  status: ('A' for Active; 'I' for Inactive)
ROOT
HETATM    1  O   UNK     0     165.785  -4.073 339.118  0.00  0.00    -0.265 OA
HETATM    2  O   UNK     0     166.665  -6.506 343.032  0.00  0.00    -0.246 OA
HETATM    3  N   UNK     0     165.459  -4.525 343.220  0.00  0.00    -0.286 N 
HETATM    4  N   UNK     0     164.373  -2.132 340.904  0.00  0.00    -0.338 N 
HETATM    5  N   UNK     0     166.238  -5.309 341.064  0.00  0.00    -0.269 N 
HETATM    6  N   UNK     0     164.215  -2.405 343.111  0.00  0.00    -0.223 NA
HETATM    7  C   UNK     0     165.024  -3.297 341.193  0.00  0.00     0.151 A 
HETATM    8  C   UNK     0     164.912  -3.440 342.548  0.00  0.00     0.167 A 
HETATM    9  C   UNK     0     165.696  -4.217 340.334  0.00  0.00     0.282 A 
HETATM   10  C   UNK     0     166.156  -5.519 342.489  0.00  0.00     0.332 A 
HETATM   11  C   UNK     0     163.903  -1.632 342.091  0.00  0.00     0.212 A 
HETATM   12  C   UNK     0     165.318  -4.642 344.666  0.00  0.00     0.163 C 
HETATM   13  C   UNK     0     164.197  -1.521 339.608  0.00  0.00     0.157 C 
HETATM   14  C   UNK     0     166.951  -6.322 340.293  0.00  0.00     0.164 C 
ENDROOT
TORSDOF 0
ENDMDL
