MODEL 1
REMARK VINA RESULT:      -5.4      0.000      0.000
REMARK  0 active torsions:
REMARK  status: ('A' for Active; 'I' for Inactive)
ROOT
HETATM    1  O   UNK     0      -9.623   1.466  -9.628  0.00  0.00    -0.265 OA
HETATM    2  O   UNK     0     -11.773   0.922 -13.763  0.00  0.00    -0.246 OA
HETATM    3  N   UNK     0      -9.616   0.081 -13.529  0.00  0.00    -0.286 N 
HETATM    4  N   UNK     0      -7.317   0.034 -10.886  0.00  0.00    -0.338 N 
HETATM    5  N   UNK     0     -10.720   1.206 -11.689  0.00  0.00    -0.269 N 
HETATM    6  N   UNK     0      -7.345  -0.700 -12.991  0.00  0.00    -0.223 NA
HETATM    7  C   UNK     0      -8.537   0.377 -11.395  0.00  0.00     0.151 A 
HETATM    8  C   UNK     0      -8.528  -0.084 -12.682  0.00  0.00     0.167 A 
HETATM    9  C   UNK     0      -9.632   1.062 -10.787  0.00  0.00     0.282 A 
HETATM   10  C   UNK     0     -10.774   0.745 -13.055  0.00  0.00     0.332 A 
HETATM   11  C   UNK     0      -6.635  -0.612 -11.885  0.00  0.00     0.212 A 
HETATM   12  C   UNK     0      -9.567  -0.425 -14.895  0.00  0.00     0.163 C 
HETATM   13  C   UNK     0      -6.815   0.290  -9.557  0.00  0.00     0.157 C 
HETATM   14  C   UNK     0     -11.904   1.892 -11.182  0.00  0.00     0.164 C 
ENDROOT
TORSDOF 0
ENDMDL
MODEL 2
REMARK VINA RESULT:      -5.3      1.643      3.669
REMARK  0 active torsions:
REMARK  status: ('A' for Active; 'I' for Inactive)
ROOT
HETATM    1  O   UNK     0      -9.367   1.406  -9.410  0.00  0.00    -0.265 OA
HETATM    2  O   UNK     0      -6.840  -0.485 -12.881  0.00  0.00    -0.246 OA
HETATM    3  N   UNK     0      -9.045   0.107 -13.328  0.00  0.00    -0.286 N 
HETATM    4  N   UNK     0     -11.597   1.536 -11.400  0.00  0.00    -0.338 N 
HETATM    5  N   UNK     0      -8.081   0.456 -11.132  0.00  0.00    -0.269 N 
HETATM    6  N   UNK     0     -11.391   0.829 -13.504  0.00  0.00    -0.223 NA
HETATM    7  C   UNK     0     -10.318   1.075 -11.525  0.00  0.00     0.151 A 
HETATM    8  C   UNK     0     -10.219   0.649 -12.821  0.00  0.00     0.167 A 
HETATM    9  C   UNK     0      -9.260   1.016 -10.569  0.00  0.00     0.282 A 
HETATM   10  C   UNK     0      -7.911  -0.011 -12.486  0.00  0.00     0.332 A 
HETATM   11  C   UNK     0     -12.203   1.367 -12.618  0.00  0.00     0.212 A 
HETATM   12  C   UNK     0      -8.979  -0.335 -14.715  0.00  0.00     0.163 C 
HETATM   13  C   UNK     0     -12.218   2.099 -10.225  0.00  0.00     0.157 C 
HETATM   14  C   UNK     0      -6.925   0.344 -10.250  0.00  0.00     0.164 C 
ENDROOT
TORSDOF 0
ENDMDL
MODEL 3
REMARK VINA RESULT:      -5.1      1.709      3.098
REMARK  0 active torsions:
REMARK  status: ('A' for Active; 'I' for Inactive)
ROOT
HETATM    1  O   UNK     0      -7.133  -1.108 -13.212  0.00  0.00    -0.265 OA
HETATM    2  O   UNK     0     -11.247   1.142 -13.390  0.00  0.00    -0.246 OA
HETATM    3  N   UNK     0     -10.240   0.861 -11.312  0.00  0.00    -0.286 N 
HETATM    4  N   UNK     0      -7.259  -0.647 -10.259  0.00  0.00    -0.338 N 
HETATM    5  N   UNK     0      -9.194   0.015 -13.327  0.00  0.00    -0.269 N 
HETATM    6  N   UNK     0      -8.946   0.418  -9.265  0.00  0.00    -0.223 NA
HETATM    7  C   UNK     0      -8.128  -0.299 -11.252  0.00  0.00     0.151 A 
HETATM    8  C   UNK     0      -9.151   0.351 -10.618  0.00  0.00     0.167 A 
HETATM    9  C   UNK     0      -8.061  -0.523 -12.660  0.00  0.00     0.282 A 
HETATM   10  C   UNK     0     -10.303   0.709 -12.719  0.00  0.00     0.332 A 
HETATM   11  C   UNK     0      -7.795  -0.194  -9.081  0.00  0.00     0.212 A 
HETATM   12  C   UNK     0     -11.309   1.549 -10.599  0.00  0.00     0.163 C 
HETATM   13  C   UNK     0      -6.008  -1.356 -10.393  0.00  0.00     0.157 C 
HETATM   14  C   UNK     0      -9.240  -0.150 -14.776  0.00  0.00     0.164 C 
ENDROOT
TORSDOF 0
ENDMDL
