MODEL 1
REMARK VINA RESULT:      -4.6      0.000      0.000
REMARK  0 active torsions:
REMARK  status: ('A' for Active; 'I' for Inactive)
ROOT
HETATM    1  O   UNK     0      39.282   3.622  33.107  0.00  0.00    -0.265 OA
HETATM    2  O   UNK     0      42.117   3.744  29.371  0.00  0.00    -0.246 OA
HETATM    3  N   UNK     0      43.041   3.179  31.430  0.00  0.00    -0.286 N 
HETATM    4  N   UNK     0      41.720   2.848  34.657  0.00  0.00    -0.338 N 
HETATM    5  N   UNK     0      40.682   3.691  31.221  0.00  0.00    -0.269 N 
HETATM    6  N   UNK     0      43.731   2.617  33.724  0.00  0.00    -0.223 NA
HETATM    7  C   UNK     0      41.560   3.126  33.331  0.00  0.00     0.151 A 
HETATM    8  C   UNK     0      42.804   2.977  32.783  0.00  0.00     0.167 A 
HETATM    9  C   UNK     0      40.392   3.496  32.598  0.00  0.00     0.282 A 
HETATM   10  C   UNK     0      41.967   3.551  30.582  0.00  0.00     0.332 A 
HETATM   11  C   UNK     0      43.045   2.548  34.846  0.00  0.00     0.212 A 
HETATM   12  C   UNK     0      44.381   3.010  30.884  0.00  0.00     0.163 C 
HETATM   13  C   UNK     0      40.709   2.861  35.687  0.00  0.00     0.157 C 
HETATM   14  C   UNK     0      39.564   4.072  30.365  0.00  0.00     0.164 C 
ENDROOT
TORSDOF 0
ENDMDL
MODEL 2
REMARK VINA RESULT:      -4.5      1.664      3.770
REMARK  0 active torsions:
REMARK  status: ('A' for Active; 'I' for Inactive)
ROOT
HETATM    1  O   UNK     0      43.008   2.496  35.443  0.00  0.00    -0.265 OA
HETATM    2  O   UNK     0      38.921   3.878  33.600  0.00  0.00    -0.246 OA
HETATM    3  N   UNK     0      40.710   3.523  32.156  0.00  0.00    -0.286 N 
HETATM    4  N   UNK     0      44.031   2.514  32.632  0.00  0.00    -0.338 N 
HETATM    5  N   UNK     0      40.951   3.189  34.544  0.00  0.00    -0.269 N 
HETATM    6  N   UNK     0      42.768   3.072  30.882  0.00  0.00    -0.223 NA
HETATM    7  C   UNK     0      42.797   2.815  33.132  0.00  0.00     0.151 A 
HETATM    8  C   UNK     0      42.044   3.152  32.042  0.00  0.00     0.167 A 
HETATM    9  C   UNK     0      42.317   2.804  34.476  0.00  0.00     0.282 A 
HETATM   10  C   UNK     0      40.103   3.555  33.436  0.00  0.00     0.332 A 
HETATM   11  C   UNK     0      43.964   2.684  31.273  0.00  0.00     0.212 A 
HETATM   12  C   UNK     0      39.941   3.874  30.970  0.00  0.00     0.163 C 
HETATM   13  C   UNK     0      45.201   2.096  33.368  0.00  0.00     0.157 C 
HETATM   14  C   UNK     0      40.344   3.216  35.870  0.00  0.00     0.164 C 
ENDROOT
TORSDOF 0
ENDMDL
MODEL 3
REMARK VINA RESULT:      -4.5      1.829      4.539
REMARK  0 active torsions:
REMARK  status: ('A' for Active; 'I' for Inactive)
ROOT
HETATM    1  O   UNK     0      43.902   3.442  30.306  0.00  0.00    -0.265 OA
HETATM    2  O   UNK     0      43.877   2.823  34.957  0.00  0.00    -0.246 OA
HETATM    3  N   UNK     0      41.837   3.124  33.880  0.00  0.00    -0.286 N 
HETATM    4  N   UNK     0      40.926   3.641  30.537  0.00  0.00    -0.338 N 
HETATM    5  N   UNK     0      43.915   3.130  32.635  0.00  0.00    -0.269 N 
HETATM    6  N   UNK     0      39.843   3.465  32.478  0.00  0.00    -0.223 NA
HETATM    7  C   UNK     0      41.881   3.441  31.491  0.00  0.00     0.151 A 
HETATM    8  C   UNK     0      41.192   3.335  32.668  0.00  0.00     0.167 A 
HETATM    9  C   UNK     0      43.301   3.347  31.373  0.00  0.00     0.282 A 
HETATM   10  C   UNK     0      43.249   3.012  33.909  0.00  0.00     0.332 A 
HETATM   11  C   UNK     0      39.715   3.648  31.180  0.00  0.00     0.212 A 
HETATM   12  C   UNK     0      41.067   3.017  35.113  0.00  0.00     0.163 C 
HETATM   13  C   UNK     0      41.123   3.815  29.118  0.00  0.00     0.157 C 
HETATM   14  C   UNK     0      45.370   3.016  32.644  0.00  0.00     0.164 C 
ENDROOT
TORSDOF 0
ENDMDL
