MODEL 1
REMARK VINA RESULT:      -5.7      0.000      0.000
REMARK  0 active torsions:
REMARK  status: ('A' for Active; 'I' for Inactive)
ROOT
HETATM    1  O   UNK     0     -23.169   8.320  15.817  0.00  0.00    -0.265 OA
HETATM    2  O   UNK     0     -18.937   7.908  17.801  0.00  0.00    -0.246 OA
HETATM    3  N   UNK     0     -20.387   6.093  17.926  0.00  0.00    -0.286 N 
HETATM    4  N   UNK     0     -23.643   5.523  16.766  0.00  0.00    -0.338 N 
HETATM    5  N   UNK     0     -21.044   8.138  16.803  0.00  0.00    -0.269 N 
HETATM    6  N   UNK     0     -22.124   4.349  17.899  0.00  0.00    -0.223 NA
HETATM    7  C   UNK     0     -22.554   6.335  16.899  0.00  0.00     0.151 A 
HETATM    8  C   UNK     0     -21.640   5.593  17.595  0.00  0.00     0.167 A 
HETATM    9  C   UNK     0     -22.336   7.670  16.444  0.00  0.00     0.282 A 
HETATM   10  C   UNK     0     -20.036   7.409  17.535  0.00  0.00     0.332 A 
HETATM   11  C   UNK     0     -23.336   4.338  17.385  0.00  0.00     0.212 A 
HETATM   12  C   UNK     0     -19.441   5.271  18.668  0.00  0.00     0.163 C 
HETATM   13  C   UNK     0     -24.891   5.826  16.107  0.00  0.00     0.157 C 
HETATM   14  C   UNK     0     -20.701   9.495  16.391  0.00  0.00     0.164 C 
ENDROOT
TORSDOF 0
ENDMDL
MODEL 2
REMARK VINA RESULT:      -5.7      1.191      3.545
REMARK  0 active torsions:
REMARK  status: ('A' for Active; 'I' for Inactive)
ROOT
HETATM    1  O   UNK     0     -19.905   8.649  17.102  0.00  0.00    -0.265 OA
HETATM    2  O   UNK     0     -24.144   9.112  15.146  0.00  0.00    -0.246 OA
HETATM    3  N   UNK     0     -23.615   7.079  16.146  0.00  0.00    -0.286 N 
HETATM    4  N   UNK     0     -20.772   5.872  17.800  0.00  0.00    -0.338 N 
HETATM    5  N   UNK     0     -22.022   8.905  16.115  0.00  0.00    -0.269 N 
HETATM    6  N   UNK     0     -22.778   5.056  17.271  0.00  0.00    -0.223 NA
HETATM    7  C   UNK     0     -21.429   6.871  17.141  0.00  0.00     0.151 A 
HETATM    8  C   UNK     0     -22.653   6.346  16.830  0.00  0.00     0.167 A 
HETATM    9  C   UNK     0     -21.008   8.194  16.811  0.00  0.00     0.282 A 
HETATM   10  C   UNK     0     -23.329   8.411  15.756  0.00  0.00     0.332 A 
HETATM   11  C   UNK     0     -21.625   4.800  17.853  0.00  0.00     0.212 A 
HETATM   12  C   UNK     0     -24.907   6.484  15.833  0.00  0.00     0.163 C 
HETATM   13  C   UNK     0     -19.436   5.909  18.346  0.00  0.00     0.157 C 
HETATM   14  C   UNK     0     -21.709  10.275  15.723  0.00  0.00     0.164 C 
ENDROOT
TORSDOF 0
ENDMDL
MODEL 3
REMARK VINA RESULT:      -5.5      1.861      3.418
REMARK  0 active torsions:
REMARK  status: ('A' for Active; 'I' for Inactive)
ROOT
HETATM    1  O   UNK     0     -20.147   9.732  16.654  0.00  0.00    -0.265 OA
HETATM    2  O   UNK     0     -20.605   5.282  18.069  0.00  0.00    -0.246 OA
HETATM    3  N   UNK     0     -22.404   6.277  16.981  0.00  0.00    -0.286 N 
HETATM    4  N   UNK     0     -22.941   9.459  15.619  0.00  0.00    -0.338 N 
HETATM    5  N   UNK     0     -20.352   7.504  17.373  0.00  0.00    -0.269 N 
HETATM    6  N   UNK     0     -24.130   7.584  15.810  0.00  0.00    -0.223 NA
HETATM    7  C   UNK     0     -22.140   8.564  16.267  0.00  0.00     0.151 A 
HETATM    8  C   UNK     0     -22.891   7.425  16.370  0.00  0.00     0.167 A 
HETATM    9  C   UNK     0     -20.807   8.702  16.759  0.00  0.00     0.282 A 
HETATM   10  C   UNK     0     -21.091   6.274  17.515  0.00  0.00     0.332 A 
HETATM   11  C   UNK     0     -24.128   8.823  15.365  0.00  0.00     0.212 A 
HETATM   12  C   UNK     0     -23.236   5.084  17.071  0.00  0.00     0.163 C 
HETATM   13  C   UNK     0     -22.624  10.821  15.258  0.00  0.00     0.157 C 
HETATM   14  C   UNK     0     -18.998   7.521  17.916  0.00  0.00     0.164 C 
ENDROOT
TORSDOF 0
ENDMDL
