MODEL 1
REMARK VINA RESULT:      -5.4      0.000      0.000
REMARK  0 active torsions:
REMARK  status: ('A' for Active; 'I' for Inactive)
ROOT
HETATM    1  O   UNK     0      -4.561  27.302  53.285  0.00  0.00    -0.265 OA
HETATM    2  O   UNK     0      -7.906  30.016  51.422  0.00  0.00    -0.246 OA
HETATM    3  N   UNK     0      -6.114  29.400  50.072  0.00  0.00    -0.286 N 
HETATM    4  N   UNK     0      -3.249  27.457  50.601  0.00  0.00    -0.338 N 
HETATM    5  N   UNK     0      -6.249  28.661  52.375  0.00  0.00    -0.269 N 
HETATM    6  N   UNK     0      -4.111  28.595  48.890  0.00  0.00    -0.223 NA
HETATM    7  C   UNK     0      -4.412  28.008  51.057  0.00  0.00     0.151 A 
HETATM    8  C   UNK     0      -4.919  28.697  49.990  0.00  0.00     0.167 A 
HETATM    9  C   UNK     0      -5.031  27.930  52.340  0.00  0.00     0.282 A 
HETATM   10  C   UNK     0      -6.837  29.408  51.290  0.00  0.00     0.332 A 
HETATM   11  C   UNK     0      -3.111  27.839  49.292  0.00  0.00     0.212 A 
HETATM   12  C   UNK     0      -6.622  30.123  48.913  0.00  0.00     0.163 C 
HETATM   13  C   UNK     0      -2.322  26.627  51.335  0.00  0.00     0.157 C 
HETATM   14  C   UNK     0      -6.979  28.657  53.638  0.00  0.00     0.164 C 
ENDROOT
TORSDOF 0
ENDMDL
MODEL 2
REMARK VINA RESULT:      -5.4      1.661      3.757
REMARK  0 active torsions:
REMARK  status: ('A' for Active; 'I' for Inactive)
ROOT
HETATM    1  O   UNK     0      -4.702  27.376  53.395  0.00  0.00    -0.265 OA
HETATM    2  O   UNK     0      -4.105  28.811  48.968  0.00  0.00    -0.246 OA
HETATM    3  N   UNK     0      -6.062  29.427  50.065  0.00  0.00    -0.286 N 
HETATM    4  N   UNK     0      -7.317  28.826  53.280  0.00  0.00    -0.338 N 
HETATM    5  N   UNK     0      -4.380  28.082  51.177  0.00  0.00    -0.269 N 
HETATM    6  N   UNK     0      -8.020  29.922  51.471  0.00  0.00    -0.223 NA
HETATM    7  C   UNK     0      -6.341  28.674  52.338  0.00  0.00     0.151 A 
HETATM    8  C   UNK     0      -6.796  29.354  51.242  0.00  0.00     0.167 A 
HETATM    9  C   UNK     0      -5.095  27.980  52.401  0.00  0.00     0.282 A 
HETATM   10  C   UNK     0      -4.803  28.781  49.988  0.00  0.00     0.332 A 
HETATM   11  C   UNK     0      -8.307  29.584  52.711  0.00  0.00     0.212 A 
HETATM   12  C   UNK     0      -6.581  30.162  48.919  0.00  0.00     0.163 C 
HETATM   13  C   UNK     0      -7.331  28.300  54.625  0.00  0.00     0.157 C 
HETATM   14  C   UNK     0      -3.086  27.412  51.117  0.00  0.00     0.164 C 
ENDROOT
TORSDOF 0
ENDMDL
MODEL 3
REMARK VINA RESULT:      -5.4      1.657      4.240
REMARK  0 active torsions:
REMARK  status: ('A' for Active; 'I' for Inactive)
ROOT
HETATM    1  O   UNK     0      -8.011  29.944  51.330  0.00  0.00    -0.265 OA
HETATM    2  O   UNK     0      -4.136  28.859  48.918  0.00  0.00    -0.246 OA
HETATM    3  N   UNK     0      -4.317  28.088  51.106  0.00  0.00    -0.286 N 
HETATM    4  N   UNK     0      -6.777  28.405  53.580  0.00  0.00    -0.338 N 
HETATM    5  N   UNK     0      -6.079  29.414  50.102  0.00  0.00    -0.269 N 
HETATM    6  N   UNK     0      -4.786  27.416  53.427  0.00  0.00    -0.223 NA
HETATM    7  C   UNK     0      -6.318  28.663  52.320  0.00  0.00     0.151 A 
HETATM    8  C   UNK     0      -5.100  28.046  52.253  0.00  0.00     0.167 A 
HETATM    9  C   UNK     0      -6.913  29.399  51.252  0.00  0.00     0.282 A 
HETATM   10  C   UNK     0      -4.787  28.787  49.967  0.00  0.00     0.332 A 
HETATM   11  C   UNK     0      -5.819  27.652  54.208  0.00  0.00     0.212 A 
HETATM   12  C   UNK     0      -3.024  27.418  51.074  0.00  0.00     0.163 C 
HETATM   13  C   UNK     0      -8.027  28.831  54.165  0.00  0.00     0.157 C 
HETATM   14  C   UNK     0      -6.581  30.137  48.939  0.00  0.00     0.164 C 
ENDROOT
TORSDOF 0
ENDMDL
