MODEL 1
REMARK VINA RESULT:      -6.4      0.000      0.000
REMARK  0 active torsions:
REMARK  status: ('A' for Active; 'I' for Inactive)
ROOT
HETATM    1  O   UNK     0       8.141   9.203   0.318  0.00  0.00    -0.265 OA
HETATM    2  O   UNK     0      11.589  12.356   0.747  0.00  0.00    -0.246 OA
HETATM    3  N   UNK     0      10.487  11.667   2.677  0.00  0.00    -0.286 N 
HETATM    4  N   UNK     0       7.870   9.420   3.289  0.00  0.00    -0.338 N 
HETATM    5  N   UNK     0       9.871  10.782   0.507  0.00  0.00    -0.269 N 
HETATM    6  N   UNK     0       9.150  10.757   4.532  0.00  0.00    -0.223 NA
HETATM    7  C   UNK     0       8.720  10.048   2.424  0.00  0.00     0.151 A 
HETATM    8  C   UNK     0       9.492  10.859   3.210  0.00  0.00     0.167 A 
HETATM    9  C   UNK     0       8.842   9.940   1.007  0.00  0.00     0.282 A 
HETATM   10  C   UNK     0      10.718  11.658   1.279  0.00  0.00     0.332 A 
HETATM   11  C   UNK     0       8.168   9.880   4.546  0.00  0.00     0.212 A 
HETATM   12  C   UNK     0      11.289  12.517   3.548  0.00  0.00     0.163 C 
HETATM   13  C   UNK     0       6.846   8.455   2.970  0.00  0.00     0.157 C 
HETATM   14  C   UNK     0      10.095  10.758  -0.934  0.00  0.00     0.164 C 
ENDROOT
TORSDOF 0
ENDMDL
MODEL 2
REMARK VINA RESULT:      -6.3      1.638      3.019
REMARK  0 active torsions:
REMARK  status: ('A' for Active; 'I' for Inactive)
ROOT
HETATM    1  O   UNK     0      11.694  10.677   4.464  0.00  0.00    -0.265 OA
HETATM    2  O   UNK     0      11.063  12.496   0.185  0.00  0.00    -0.246 OA
HETATM    3  N   UNK     0       9.444  11.042   1.008  0.00  0.00    -0.286 N 
HETATM    4  N   UNK     0       9.096   9.266   4.007  0.00  0.00    -0.338 N 
HETATM    5  N   UNK     0      11.401  11.601   2.323  0.00  0.00    -0.269 N 
HETATM    6  N   UNK     0       7.907   9.484   2.134  0.00  0.00    -0.223 NA
HETATM    7  C   UNK     0       9.796  10.123   3.208  0.00  0.00     0.151 A 
HETATM    8  C   UNK     0       9.047  10.240   2.069  0.00  0.00     0.167 A 
HETATM    9  C   UNK     0      11.036  10.792   3.433  0.00  0.00     0.282 A 
HETATM   10  C   UNK     0      10.659  11.766   1.097  0.00  0.00     0.332 A 
HETATM   11  C   UNK     0       7.966   8.908   3.316  0.00  0.00     0.212 A 
HETATM   12  C   UNK     0       8.618  11.140  -0.189  0.00  0.00     0.163 C 
HETATM   13  C   UNK     0       9.452   8.807   5.328  0.00  0.00     0.157 C 
HETATM   14  C   UNK     0      12.654  12.339   2.434  0.00  0.00     0.164 C 
ENDROOT
TORSDOF 0
ENDMDL
MODEL 3
REMARK VINA RESULT:      -6.0      7.016      8.869
REMARK  0 active torsions:
REMARK  status: ('A' for Active; 'I' for Inactive)
ROOT
HETATM    1  O   UNK     0       9.943   5.982   8.280  0.00  0.00    -0.265 OA
HETATM    2  O   UNK     0       9.603   7.173  12.806  0.00  0.00    -0.246 OA
HETATM    3  N   UNK     0       9.921   8.870  11.247  0.00  0.00    -0.286 N 
HETATM    4  N   UNK     0      10.274   8.910   7.762  0.00  0.00    -0.338 N 
HETATM    5  N   UNK     0       9.770   6.554  10.553  0.00  0.00    -0.269 N 
HETATM    6  N   UNK     0      10.257  10.441   9.382  0.00  0.00    -0.223 NA
HETATM    7  C   UNK     0      10.093   8.227   8.930  0.00  0.00     0.151 A 
HETATM    8  C   UNK     0      10.085   9.187   9.905  0.00  0.00     0.167 A 
HETATM    9  C   UNK     0       9.936   6.829   9.169  0.00  0.00     0.282 A 
HETATM   10  C   UNK     0       9.754   7.515  11.628  0.00  0.00     0.332 A 
HETATM   11  C   UNK     0      10.368  10.239   8.085  0.00  0.00     0.212 A 
HETATM   12  C   UNK     0       9.918   9.922  12.255  0.00  0.00     0.163 C 
HETATM   13  C   UNK     0      10.356   8.363   6.428  0.00  0.00     0.157 C 
HETATM   14  C   UNK     0       9.599   5.153  10.925  0.00  0.00     0.164 C 
ENDROOT
TORSDOF 0
ENDMDL
