MODEL 1
REMARK VINA RESULT:      -8.5      0.000      0.000
REMARK  11 active torsions:
REMARK  status: ('A' for Active; 'I' for Inactive)
REMARK    1  A    between atoms: S_2  and  C_13 
REMARK    2  A    between atoms: O_7  and  C_31 
REMARK    3  A    between atoms: O_7  and  C_34 
REMARK    4  A    between atoms: N_8  and  C_12 
REMARK    5  A    between atoms: N_8  and  C_14 
REMARK    6  A    between atoms: N_9  and  C_24 
REMARK    7  A    between atoms: N_9  and  C_27 
REMARK    8  A    between atoms: C_12  and  C_13 
REMARK    9  A    between atoms: C_14  and  C_15 
REMARK   10  A    between atoms: C_16  and  C_17 
REMARK   11  A    between atoms: C_34  and  C_35 
ROOT
HETATM    1  N   UNK     0      23.286  48.244  18.601  0.00  0.00    -0.241 NA
HETATM    2  N   UNK     0      23.047  50.276  19.874  0.00  0.00    -0.224 NA
HETATM    3  C   UNK     0      19.567  46.914  19.934  0.00  0.00    -0.001 A 
HETATM    4  C   UNK     0      21.305  48.600  19.907  0.00  0.00     0.040 A 
HETATM    5  C   UNK     0      20.053  48.148  20.355  0.00  0.00     0.032 A 
HETATM    6  C   UNK     0      22.085  47.822  19.036  0.00  0.00     0.072 A 
HETATM    7  C   UNK     0      20.329  46.135  19.071  0.00  0.00     0.016 A 
HETATM    8  C   UNK     0      21.849  49.823  20.289  0.00  0.00     0.142 A 
HETATM    9  C   UNK     0      21.576  46.591  18.631  0.00  0.00     0.033 A 
HETATM   10  C   UNK     0      23.701  49.449  19.045  0.00  0.00     0.236 A 
ENDROOT
BRANCH   8  11
HETATM   11  N   UNK     0      21.120  50.664  21.167  0.00  0.00    -0.340 N 
HETATM   12  H   UNK     0      20.182  50.865  20.832  0.00  0.00     0.167 HD
BRANCH  11  13
HETATM   13  C   UNK     0      21.322  51.039  22.505  0.00  0.00     0.035 A 
HETATM   14  C   UNK     0      21.183  52.375  22.884  0.00  0.00     0.056 A 
HETATM   15  C   UNK     0      21.384  52.747  24.213  0.00  0.00     0.069 A 
HETATM   16 Cl   UNK     0      21.205  54.405  24.655  0.00  0.00    -0.081 Cl
HETATM   17  C   UNK     0      21.724  51.784  25.163  0.00  0.00     0.091 A 
HETATM   18  C   UNK     0      21.863  50.449  24.784  0.00  0.00     0.041 A 
HETATM   19  C   UNK     0      21.662  50.076  23.455  0.00  0.00     0.032 A 
BRANCH  17  20
HETATM   20  O   UNK     0      21.927  52.119  26.469  0.00  0.00    -0.345 OA
BRANCH  20  21
HETATM   21  C   UNK     0      23.239  52.538  26.834  0.00  0.00     0.214 C 
BRANCH  21  22
HETATM   22  C   UNK     0      23.891  51.458  27.646  0.00  0.00    -0.031 A 
HETATM   23  C   UNK     0      25.281  51.346  27.671  0.00  0.00     0.051 A 
HETATM   24  C   UNK     0      25.887  50.342  28.425  0.00  0.00     0.117 A 
HETATM   25  F   UNK     0      27.222  50.235  28.450  0.00  0.00    -0.206 F 
HETATM   26  C   UNK     0      25.102  49.449  29.155  0.00  0.00     0.042 A 
HETATM   27  C   UNK     0      23.712  49.560  29.130  0.00  0.00     0.004 A 
HETATM   28  C   UNK     0      23.107  50.565  28.376  0.00  0.00     0.009 A 
ENDBRANCH  21  22
ENDBRANCH  20  21
ENDBRANCH  17  20
ENDBRANCH  11  13
ENDBRANCH   8  11
BRANCH   3  29
HETATM   29  C   UNK     0      18.280  46.446  20.388  0.00  0.00     0.086 A 
HETATM   30  O   UNK     0      17.283  47.368  20.365  0.00  0.00    -0.313 OA
HETATM   31  C   UNK     0      16.166  46.744  20.822  0.00  0.00     0.081 A 
HETATM   32  C   UNK     0      16.439  45.434  21.138  0.00  0.00     0.037 A 
HETATM   33  C   UNK     0      17.813  45.240  20.855  0.00  0.00     0.040 A 
BRANCH  31  34
HETATM   34  C   UNK     0      14.945  47.560  20.886  0.00  0.00     0.334 C 
BRANCH  34  35
HETATM   35  N   UNK     0      13.943  47.146  19.890  0.00  0.00     0.090 N 
HETATM   36  H   UNK     0      13.281  46.510  20.337  0.00  0.00     0.316 HD
BRANCH  35  37
HETATM   37  C   UNK     0      13.217  48.301  19.393  0.00  0.00     0.284 C 
BRANCH  37  38
HETATM   38  C   UNK     0      14.167  49.440  19.066  0.00  0.00     0.169 C 
BRANCH  38  39
HETATM   39  S   UNK     0      14.845  49.262  17.446  0.00  0.00     0.142 S 
HETATM   40  O   UNK     0      15.455  50.525  17.066  0.00  0.00    -0.228 OA
HETATM   41  O   UNK     0      15.616  48.030  17.408  0.00  0.00    -0.228 OA
HETATM   42  C   UNK     0      13.411  49.028  16.422  0.00  0.00     0.161 C 
ENDBRANCH  38  39
ENDBRANCH  37  38
ENDBRANCH  35  37
ENDBRANCH  34  35
ENDBRANCH  31  34
ENDBRANCH   3  29
TORSDOF 11
ENDMDL
MODEL 2
REMARK VINA RESULT:      -8.1      3.018      4.397
REMARK  11 active torsions:
REMARK  status: ('A' for Active; 'I' for Inactive)
REMARK    1  A    between atoms: S_2  and  C_13 
REMARK    2  A    between atoms: O_7  and  C_31 
REMARK    3  A    between atoms: O_7  and  C_34 
REMARK    4  A    between atoms: N_8  and  C_12 
REMARK    5  A    between atoms: N_8  and  C_14 
REMARK    6  A    between atoms: N_9  and  C_24 
REMARK    7  A    between atoms: N_9  and  C_27 
REMARK    8  A    between atoms: C_12  and  C_13 
REMARK    9  A    between atoms: C_14  and  C_15 
REMARK   10  A    between atoms: C_16  and  C_17 
REMARK   11  A    between atoms: C_34  and  C_35 
ROOT
HETATM    1  N   UNK     0      25.457  53.212  17.578  0.00  0.00    -0.241 NA
HETATM    2  N   UNK     0      24.988  53.970  19.817  0.00  0.00    -0.224 NA
HETATM    3  C   UNK     0      23.346  49.686  18.277  0.00  0.00    -0.001 A 
HETATM    4  C   UNK     0      24.165  51.829  19.052  0.00  0.00     0.040 A 
HETATM    5  C   UNK     0      23.455  50.639  19.284  0.00  0.00     0.032 A 
HETATM    6  C   UNK     0      24.774  52.077  17.812  0.00  0.00     0.072 A 
HETATM    7  C   UNK     0      23.944  49.920  17.043  0.00  0.00     0.016 A 
HETATM    8  C   UNK     0      24.312  52.822  20.016  0.00  0.00     0.142 A 
HETATM    9  C   UNK     0      24.650  51.106  16.821  0.00  0.00     0.033 A 
HETATM   10  C   UNK     0      25.526  54.096  18.595  0.00  0.00     0.236 A 
ENDROOT
BRANCH   8  11
HETATM   11  N   UNK     0      23.724  52.644  21.294  0.00  0.00    -0.340 N 
HETATM   12  H   UNK     0      22.709  52.634  21.262  0.00  0.00     0.167 HD
BRANCH  11  13
HETATM   13  C   UNK     0      24.245  52.210  22.523  0.00  0.00     0.035 A 
HETATM   14  C   UNK     0      23.730  51.066  23.134  0.00  0.00     0.056 A 
HETATM   15  C   UNK     0      24.248  50.636  24.356  0.00  0.00     0.069 A 
HETATM   16 Cl   UNK     0      23.593  49.218  25.091  0.00  0.00    -0.081 Cl
HETATM   17  C   UNK     0      25.281  51.348  24.966  0.00  0.00     0.091 A 
HETATM   18  C   UNK     0      25.796  52.491  24.354  0.00  0.00     0.041 A 
HETATM   19  C   UNK     0      25.278  52.923  23.133  0.00  0.00     0.032 A 
BRANCH  17  20
HETATM   20  O   UNK     0      25.806  50.951  26.160  0.00  0.00    -0.345 OA
BRANCH  20  21
HETATM   21  C   UNK     0      25.678  51.853  27.256  0.00  0.00     0.214 C 
BRANCH  21  22
HETATM   22  C   UNK     0      24.266  51.811  27.764  0.00  0.00    -0.031 A 
HETATM   23  C   UNK     0      23.492  52.971  27.766  0.00  0.00     0.051 A 
HETATM   24  C   UNK     0      22.180  52.932  28.238  0.00  0.00     0.117 A 
HETATM   25  F   UNK     0      21.435  54.045  28.241  0.00  0.00    -0.206 F 
HETATM   26  C   UNK     0      21.644  51.733  28.708  0.00  0.00     0.042 A 
HETATM   27  C   UNK     0      22.418  50.573  28.705  0.00  0.00     0.004 A 
HETATM   28  C   UNK     0      23.730  50.612  28.233  0.00  0.00     0.009 A 
ENDBRANCH  21  22
ENDBRANCH  20  21
ENDBRANCH  17  20
ENDBRANCH  11  13
ENDBRANCH   8  11
BRANCH   3  29
HETATM   29  C   UNK     0      22.616  48.463  18.508  0.00  0.00     0.086 A 
HETATM   30  O   UNK     0      21.305  48.619  18.832  0.00  0.00    -0.313 OA
HETATM   31  C   UNK     0      20.798  47.371  19.008  0.00  0.00     0.081 A 
HETATM   32  C   UNK     0      21.770  46.421  18.801  0.00  0.00     0.037 A 
HETATM   33  C   UNK     0      22.951  47.130  18.476  0.00  0.00     0.040 A 
BRANCH  31  34
HETATM   34  C   UNK     0      19.375  47.293  19.370  0.00  0.00     0.334 C 
BRANCH  34  35
HETATM   35  N   UNK     0      18.492  47.630  18.241  0.00  0.00     0.090 N 
HETATM   36  H   UNK     0      18.020  46.780  17.931  0.00  0.00     0.316 HD
BRANCH  35  37
HETATM   37  C   UNK     0      17.490  48.596  18.655  0.00  0.00     0.284 C 
BRANCH  37  38
HETATM   38  C   UNK     0      16.088  48.051  18.441  0.00  0.00     0.169 C 
BRANCH  38  39
HETATM   39  S   UNK     0      15.460  47.306  19.913  0.00  0.00     0.142 S 
HETATM   40  O   UNK     0      14.010  47.282  19.828  0.00  0.00    -0.228 OA
HETATM   41  O   UNK     0      16.205  46.082  20.157  0.00  0.00    -0.228 OA
HETATM   42  C   UNK     0      15.905  48.466  21.184  0.00  0.00     0.161 C 
ENDBRANCH  38  39
ENDBRANCH  37  38
ENDBRANCH  35  37
ENDBRANCH  34  35
ENDBRANCH  31  34
ENDBRANCH   3  29
TORSDOF 11
ENDMDL
MODEL 3
REMARK VINA RESULT:      -7.9      2.388      3.847
REMARK  11 active torsions:
REMARK  status: ('A' for Active; 'I' for Inactive)
REMARK    1  A    between atoms: S_2  and  C_13 
REMARK    2  A    between atoms: O_7  and  C_31 
REMARK    3  A    between atoms: O_7  and  C_34 
REMARK    4  A    between atoms: N_8  and  C_12 
REMARK    5  A    between atoms: N_8  and  C_14 
REMARK    6  A    between atoms: N_9  and  C_24 
REMARK    7  A    between atoms: N_9  and  C_27 
REMARK    8  A    between atoms: C_12  and  C_13 
REMARK    9  A    between atoms: C_14  and  C_15 
REMARK   10  A    between atoms: C_16  and  C_17 
REMARK   11  A    between atoms: C_34  and  C_35 
ROOT
HETATM    1  N   UNK     0      24.842  53.373  18.902  0.00  0.00    -0.241 NA
HETATM    2  N   UNK     0      24.051  53.834  21.130  0.00  0.00    -0.224 NA
HETATM    3  C   UNK     0      22.836  49.719  18.893  0.00  0.00    -0.001 A 
HETATM    4  C   UNK     0      23.441  51.777  20.017  0.00  0.00     0.040 A 
HETATM    5  C   UNK     0      22.766  50.545  20.011  0.00  0.00     0.032 A 
HETATM    6  C   UNK     0      24.192  52.195  18.907  0.00  0.00     0.072 A 
HETATM    7  C   UNK     0      23.576  50.122  17.787  0.00  0.00     0.016 A 
HETATM    8  C   UNK     0      23.412  52.649  21.101  0.00  0.00     0.142 A 
HETATM    9  C   UNK     0      24.246  51.349  17.802  0.00  0.00     0.033 A 
HETATM   10  C   UNK     0      24.736  54.127  20.014  0.00  0.00     0.236 A 
ENDROOT
BRANCH   8  11
HETATM   11  N   UNK     0      22.674  52.296  22.259  0.00  0.00    -0.340 N 
HETATM   12  H   UNK     0      21.731  51.984  22.044  0.00  0.00     0.167 HD
BRANCH  11  13
HETATM   13  C   UNK     0      23.058  52.029  23.582  0.00  0.00     0.035 A 
HETATM   14  C   UNK     0      22.143  52.200  24.622  0.00  0.00     0.056 A 
HETATM   15  C   UNK     0      22.526  51.934  25.937  0.00  0.00     0.069 A 
HETATM   16 Cl   UNK     0      21.376  52.153  27.204  0.00  0.00    -0.081 Cl
HETATM   17  C   UNK     0      23.822  51.498  26.212  0.00  0.00     0.091 A 
HETATM   18  C   UNK     0      24.736  51.327  25.172  0.00  0.00     0.041 A 
HETATM   19  C   UNK     0      24.355  51.593  23.857  0.00  0.00     0.032 A 
BRANCH  17  20
HETATM   20  O   UNK     0      24.224  51.232  27.488  0.00  0.00    -0.345 OA
BRANCH  20  21
HETATM   21  C   UNK     0      24.086  49.889  27.943  0.00  0.00     0.214 C 
BRANCH  21  22
HETATM   22  C   UNK     0      25.184  49.587  28.921  0.00  0.00    -0.031 A 
HETATM   23  C   UNK     0      26.473  50.070  28.694  0.00  0.00     0.051 A 
HETATM   24  C   UNK     0      27.492  49.790  29.603  0.00  0.00     0.117 A 
HETATM   25  F   UNK     0      28.730  50.254  29.386  0.00  0.00    -0.206 F 
HETATM   26  C   UNK     0      27.223  49.027  30.739  0.00  0.00     0.042 A 
HETATM   27  C   UNK     0      25.934  48.543  30.966  0.00  0.00     0.004 A 
HETATM   28  C   UNK     0      24.915  48.824  30.057  0.00  0.00     0.009 A 
ENDBRANCH  21  22
ENDBRANCH  20  21
ENDBRANCH  17  20
ENDBRANCH  11  13
ENDBRANCH   8  11
BRANCH   3  29
HETATM   29  C   UNK     0      22.144  48.453  18.880  0.00  0.00     0.086 A 
HETATM   30  O   UNK     0      20.881  48.474  19.382  0.00  0.00    -0.313 OA
HETATM   31  C   UNK     0      20.402  47.207  19.283  0.00  0.00     0.081 A 
HETATM   32  C   UNK     0      21.346  46.376  18.725  0.00  0.00     0.037 A 
HETATM   33  C   UNK     0      22.476  47.186  18.462  0.00  0.00     0.040 A 
BRANCH  31  34
HETATM   34  C   UNK     0      19.034  46.988  19.773  0.00  0.00     0.334 C 
BRANCH  34  35
HETATM   35  N   UNK     0      18.310  48.251  19.995  0.00  0.00     0.090 N 
HETATM   36  H   UNK     0      18.963  49.026  19.875  0.00  0.00     0.316 HD
BRANCH  35  37
HETATM   37  C   UNK     0      17.235  48.393  19.031  0.00  0.00     0.284 C 
BRANCH  37  38
HETATM   38  C   UNK     0      16.250  47.242  19.142  0.00  0.00     0.169 C 
BRANCH  38  39
HETATM   39  S   UNK     0      15.200  47.431  20.549  0.00  0.00     0.142 S 
HETATM   40  O   UNK     0      16.011  47.890  21.663  0.00  0.00    -0.228 OA
HETATM   41  O   UNK     0      14.020  48.175  20.139  0.00  0.00    -0.228 OA
HETATM   42  C   UNK     0      14.687  45.767  20.906  0.00  0.00     0.161 C 
ENDBRANCH  38  39
ENDBRANCH  37  38
ENDBRANCH  35  37
ENDBRANCH  34  35
ENDBRANCH  31  34
ENDBRANCH   3  29
TORSDOF 11
ENDMDL
