MODEL 1
REMARK VINA RESULT:      -9.3      0.000      0.000
REMARK  11 active torsions:
REMARK  status: ('A' for Active; 'I' for Inactive)
REMARK    1  A    between atoms: S_2  and  C_13 
REMARK    2  A    between atoms: O_7  and  C_31 
REMARK    3  A    between atoms: O_7  and  C_34 
REMARK    4  A    between atoms: N_8  and  C_12 
REMARK    5  A    between atoms: N_8  and  C_14 
REMARK    6  A    between atoms: N_9  and  C_24 
REMARK    7  A    between atoms: N_9  and  C_27 
REMARK    8  A    between atoms: C_12  and  C_13 
REMARK    9  A    between atoms: C_14  and  C_15 
REMARK   10  A    between atoms: C_16  and  C_17 
REMARK   11  A    between atoms: C_34  and  C_35 
ROOT
HETATM    1  N   UNK     0      12.793  29.206  21.673  0.00  0.00    -0.241 NA
HETATM    2  N   UNK     0      14.820  27.973  21.252  0.00  0.00    -0.224 NA
HETATM    3  C   UNK     0      14.993  32.671  22.401  0.00  0.00    -0.001 A 
HETATM    4  C   UNK     0      14.912  30.320  21.825  0.00  0.00     0.040 A 
HETATM    5  C   UNK     0      15.650  31.490  22.072  0.00  0.00     0.032 A 
HETATM    6  C   UNK     0      13.510  30.320  21.907  0.00  0.00     0.072 A 
HETATM    7  C   UNK     0      13.605  32.684  22.484  0.00  0.00     0.016 A 
HETATM    8  C   UNK     0      15.506  29.107  21.491  0.00  0.00     0.142 A 
HETATM    9  C   UNK     0      12.878  31.515  22.239  0.00  0.00     0.033 A 
HETATM   10  C   UNK     0      13.488  28.094  21.359  0.00  0.00     0.236 A 
ENDROOT
BRANCH   8  11
HETATM   11  N   UNK     0      16.918  29.029  21.390  0.00  0.00    -0.340 N 
HETATM   12  H   UNK     0      17.383  29.108  22.290  0.00  0.00     0.167 HD
BRANCH  11  13
HETATM   13  C   UNK     0      17.771  28.596  20.363  0.00  0.00     0.035 A 
HETATM   14  C   UNK     0      19.070  28.181  20.662  0.00  0.00     0.056 A 
HETATM   15  C   UNK     0      19.916  27.751  19.641  0.00  0.00     0.069 A 
HETATM   16 Cl   UNK     0      21.517  27.242  20.038  0.00  0.00    -0.081 Cl
HETATM   17  C   UNK     0      19.466  27.735  18.321  0.00  0.00     0.091 A 
HETATM   18  C   UNK     0      18.168  28.150  18.022  0.00  0.00     0.041 A 
HETATM   19  C   UNK     0      17.321  28.580  19.042  0.00  0.00     0.032 A 
BRANCH  17  20
HETATM   20  O   UNK     0      20.272  27.320  17.302  0.00  0.00    -0.345 OA
BRANCH  20  21
HETATM   21  C   UNK     0      19.919  27.735  15.986  0.00  0.00     0.214 C 
BRANCH  21  22
HETATM   22  C   UNK     0      20.393  29.143  15.772  0.00  0.00    -0.031 A 
HETATM   23  C   UNK     0      19.684  29.997  14.926  0.00  0.00     0.051 A 
HETATM   24  C   UNK     0      20.125  31.305  14.727  0.00  0.00     0.117 A 
HETATM   25  F   UNK     0      19.445  32.125  13.916  0.00  0.00    -0.206 F 
HETATM   26  C   UNK     0      21.275  31.759  15.374  0.00  0.00     0.042 A 
HETATM   27  C   UNK     0      21.983  30.905  16.220  0.00  0.00     0.004 A 
HETATM   28  C   UNK     0      21.542  29.597  16.418  0.00  0.00     0.009 A 
ENDBRANCH  21  22
ENDBRANCH  20  21
ENDBRANCH  17  20
ENDBRANCH  11  13
ENDBRANCH   8  11
BRANCH   3  29
HETATM   29  C   UNK     0      15.746  33.876  22.653  0.00  0.00     0.086 A 
HETATM   30  O   UNK     0      15.093  34.834  23.362  0.00  0.00    -0.313 OA
HETATM   31  C   UNK     0      15.955  35.875  23.494  0.00  0.00     0.081 A 
HETATM   32  C   UNK     0      17.151  35.594  22.877  0.00  0.00     0.037 A 
HETATM   33  C   UNK     0      17.015  34.295  22.331  0.00  0.00     0.040 A 
BRANCH  31  34
HETATM   34  C   UNK     0      15.457  37.042  24.236  0.00  0.00     0.334 C 
BRANCH  34  35
HETATM   35  N   UNK     0      16.316  38.225  24.060  0.00  0.00     0.090 N 
HETATM   36  H   UNK     0      17.072  37.987  23.418  0.00  0.00     0.316 HD
BRANCH  35  37
HETATM   37  C   UNK     0      15.553  39.324  23.496  0.00  0.00     0.284 C 
BRANCH  37  38
HETATM   38  C   UNK     0      14.117  38.908  23.227  0.00  0.00     0.169 C 
BRANCH  38  39
HETATM   39  S   UNK     0      13.720  39.050  21.513  0.00  0.00     0.142 S 
HETATM   40  O   UNK     0      14.245  40.315  21.028  0.00  0.00    -0.228 OA
HETATM   41  O   UNK     0      14.077  37.803  20.858  0.00  0.00    -0.228 OA
HETATM   42  C   UNK     0      11.946  39.168  21.511  0.00  0.00     0.161 C 
ENDBRANCH  38  39
ENDBRANCH  37  38
ENDBRANCH  35  37
ENDBRANCH  34  35
ENDBRANCH  31  34
ENDBRANCH   3  29
TORSDOF 11
ENDMDL
MODEL 2
REMARK VINA RESULT:      -8.5      4.873     10.254
REMARK  11 active torsions:
REMARK  status: ('A' for Active; 'I' for Inactive)
REMARK    1  A    between atoms: S_2  and  C_13 
REMARK    2  A    between atoms: O_7  and  C_31 
REMARK    3  A    between atoms: O_7  and  C_34 
REMARK    4  A    between atoms: N_8  and  C_12 
REMARK    5  A    between atoms: N_8  and  C_14 
REMARK    6  A    between atoms: N_9  and  C_24 
REMARK    7  A    between atoms: N_9  and  C_27 
REMARK    8  A    between atoms: C_12  and  C_13 
REMARK    9  A    between atoms: C_14  and  C_15 
REMARK   10  A    between atoms: C_16  and  C_17 
REMARK   11  A    between atoms: C_34  and  C_35 
ROOT
HETATM    1  N   UNK     0      11.298  29.801  18.538  0.00  0.00    -0.241 NA
HETATM    2  N   UNK     0      11.888  32.100  18.951  0.00  0.00    -0.224 NA
HETATM    3  C   UNK     0      15.128  28.570  19.630  0.00  0.00    -0.001 A 
HETATM    4  C   UNK     0      13.510  30.340  19.292  0.00  0.00     0.040 A 
HETATM    5  C   UNK     0      14.800  29.921  19.659  0.00  0.00     0.032 A 
HETATM    6  C   UNK     0      12.536  29.412  18.891  0.00  0.00     0.072 A 
HETATM    7  C   UNK     0      14.172  27.640  19.235  0.00  0.00     0.016 A 
HETATM    8  C   UNK     0      13.118  31.675  19.299  0.00  0.00     0.142 A 
HETATM    9  C   UNK     0      12.891  28.065  18.871  0.00  0.00     0.033 A 
HETATM   10  C   UNK     0      11.043  31.124  18.586  0.00  0.00     0.236 A 
ENDROOT
BRANCH   8  11
HETATM   11  N   UNK     0      14.047  32.671  19.692  0.00  0.00    -0.340 N 
HETATM   12  H   UNK     0      14.370  33.237  18.913  0.00  0.00     0.167 HD
BRANCH  11  13
HETATM   13  C   UNK     0      14.392  33.204  20.944  0.00  0.00     0.035 A 
HETATM   14  C   UNK     0      13.440  33.896  21.694  0.00  0.00     0.056 A 
HETATM   15  C   UNK     0      13.783  34.425  22.938  0.00  0.00     0.069 A 
HETATM   16 Cl   UNK     0      12.587  35.277  23.845  0.00  0.00    -0.081 Cl
HETATM   17  C   UNK     0      15.077  34.261  23.433  0.00  0.00     0.091 A 
HETATM   18  C   UNK     0      16.028  33.569  22.683  0.00  0.00     0.041 A 
HETATM   19  C   UNK     0      15.686  33.040  21.439  0.00  0.00     0.032 A 
BRANCH  17  20
HETATM   20  O   UNK     0      15.441  34.768  24.646  0.00  0.00    -0.345 OA
BRANCH  20  21
HETATM   21  C   UNK     0      14.970  34.082  25.802  0.00  0.00     0.214 C 
BRANCH  21  22
HETATM   22  C   UNK     0      14.905  35.045  26.951  0.00  0.00    -0.031 A 
HETATM   23  C   UNK     0      15.425  34.684  28.194  0.00  0.00     0.051 A 
HETATM   24  C   UNK     0      15.365  35.580  29.261  0.00  0.00     0.117 A 
HETATM   25  F   UNK     0      15.865  35.234  30.455  0.00  0.00    -0.206 F 
HETATM   26  C   UNK     0      14.784  36.836  29.086  0.00  0.00     0.042 A 
HETATM   27  C   UNK     0      14.264  37.197  27.843  0.00  0.00     0.004 A 
HETATM   28  C   UNK     0      14.324  36.301  26.776  0.00  0.00     0.009 A 
ENDBRANCH  21  22
ENDBRANCH  20  21
ENDBRANCH  17  20
ENDBRANCH  11  13
ENDBRANCH   8  11
BRANCH   3  29
HETATM   29  C   UNK     0      16.450  28.134  20.008  0.00  0.00     0.086 A 
HETATM   30  O   UNK     0      17.382  28.173  19.019  0.00  0.00    -0.313 OA
HETATM   31  C   UNK     0      18.546  27.731  19.564  0.00  0.00     0.081 A 
HETATM   32  C   UNK     0      18.367  27.409  20.889  0.00  0.00     0.037 A 
HETATM   33  C   UNK     0      17.006  27.672  21.178  0.00  0.00     0.040 A 
BRANCH  31  34
HETATM   34  C   UNK     0      19.709  27.686  18.667  0.00  0.00     0.334 C 
BRANCH  34  35
HETATM   35  N   UNK     0      19.321  27.513  17.257  0.00  0.00     0.090 N 
HETATM   36  H   UNK     0      18.312  27.647  17.177  0.00  0.00     0.316 HD
BRANCH  35  37
HETATM   37  C   UNK     0      19.989  28.497  16.425  0.00  0.00     0.284 C 
BRANCH  37  38
HETATM   38  C   UNK     0      19.307  29.850  16.527  0.00  0.00     0.169 C 
BRANCH  38  39
HETATM   39  S   UNK     0      20.179  31.078  15.606  0.00  0.00     0.142 S 
HETATM   40  O   UNK     0      21.591  30.973  15.931  0.00  0.00    -0.228 OA
HETATM   41  O   UNK     0      19.733  31.011  14.224  0.00  0.00    -0.228 OA
HETATM   42  C   UNK     0      19.581  32.606  16.289  0.00  0.00     0.161 C 
ENDBRANCH  38  39
ENDBRANCH  37  38
ENDBRANCH  35  37
ENDBRANCH  34  35
ENDBRANCH  31  34
ENDBRANCH   3  29
TORSDOF 11
ENDMDL
MODEL 3
REMARK VINA RESULT:      -8.4      2.510      3.408
REMARK  11 active torsions:
REMARK  status: ('A' for Active; 'I' for Inactive)
REMARK    1  A    between atoms: S_2  and  C_13 
REMARK    2  A    between atoms: O_7  and  C_31 
REMARK    3  A    between atoms: O_7  and  C_34 
REMARK    4  A    between atoms: N_8  and  C_12 
REMARK    5  A    between atoms: N_8  and  C_14 
REMARK    6  A    between atoms: N_9  and  C_24 
REMARK    7  A    between atoms: N_9  and  C_27 
REMARK    8  A    between atoms: C_12  and  C_13 
REMARK    9  A    between atoms: C_14  and  C_15 
REMARK   10  A    between atoms: C_16  and  C_17 
REMARK   11  A    between atoms: C_34  and  C_35 
ROOT
HETATM    1  N   UNK     0      11.586  29.374  20.907  0.00  0.00    -0.241 NA
HETATM    2  N   UNK     0      13.399  27.789  20.846  0.00  0.00    -0.224 NA
HETATM    3  C   UNK     0      14.218  32.420  21.989  0.00  0.00    -0.001 A 
HETATM    4  C   UNK     0      13.814  30.101  21.417  0.00  0.00     0.040 A 
HETATM    5  C   UNK     0      14.698  31.130  21.782  0.00  0.00     0.032 A 
HETATM    6  C   UNK     0      12.442  30.351  21.256  0.00  0.00     0.072 A 
HETATM    7  C   UNK     0      12.861  32.680  21.832  0.00  0.00     0.016 A 
HETATM    8  C   UNK     0      14.228  28.791  21.196  0.00  0.00     0.142 A 
HETATM    9  C   UNK     0      11.988  31.650  21.469  0.00  0.00     0.033 A 
HETATM   10  C   UNK     0      12.112  28.146  20.722  0.00  0.00     0.236 A 
ENDROOT
BRANCH   8  11
HETATM   11  N   UNK     0      15.600  28.462  21.339  0.00  0.00    -0.340 N 
HETATM   12  H   UNK     0      15.836  28.161  22.280  0.00  0.00     0.167 HD
BRANCH  11  13
HETATM   13  C   UNK     0      16.615  28.204  20.404  0.00  0.00     0.035 A 
HETATM   14  C   UNK     0      17.921  27.977  20.838  0.00  0.00     0.056 A 
HETATM   15  C   UNK     0      18.929  27.721  19.908  0.00  0.00     0.069 A 
HETATM   16 Cl   UNK     0      20.537  27.443  20.470  0.00  0.00    -0.081 Cl
HETATM   17  C   UNK     0      18.631  27.692  18.545  0.00  0.00     0.091 A 
HETATM   18  C   UNK     0      17.324  27.918  18.113  0.00  0.00     0.041 A 
HETATM   19  C   UNK     0      16.316  28.175  19.042  0.00  0.00     0.032 A 
BRANCH  17  20
HETATM   20  O   UNK     0      19.596  27.445  17.614  0.00  0.00    -0.345 OA
BRANCH  20  21
HETATM   21  C   UNK     0      19.354  27.912  16.290  0.00  0.00     0.214 C 
BRANCH  21  22
HETATM   22  C   UNK     0      20.162  29.154  16.053  0.00  0.00    -0.031 A 
HETATM   23  C   UNK     0      21.443  29.267  16.595  0.00  0.00     0.051 A 
HETATM   24  C   UNK     0      22.193  30.420  16.374  0.00  0.00     0.117 A 
HETATM   25  F   UNK     0      23.423  30.530  16.893  0.00  0.00    -0.206 F 
HETATM   26  C   UNK     0      21.664  31.462  15.611  0.00  0.00     0.042 A 
HETATM   27  C   UNK     0      20.384  31.349  15.069  0.00  0.00     0.004 A 
HETATM   28  C   UNK     0      19.633  30.195  15.290  0.00  0.00     0.009 A 
ENDBRANCH  21  22
ENDBRANCH  20  21
ENDBRANCH  17  20
ENDBRANCH  11  13
ENDBRANCH   8  11
BRANCH   3  29
HETATM   29  C   UNK     0      15.122  33.481  22.361  0.00  0.00     0.086 A 
HETATM   30  O   UNK     0      14.568  34.493  23.080  0.00  0.00    -0.313 OA
HETATM   31  C   UNK     0      15.564  35.382  23.331  0.00  0.00     0.081 A 
HETATM   32  C   UNK     0      16.748  34.949  22.780  0.00  0.00     0.037 A 
HETATM   33  C   UNK     0      16.461  33.714  22.151  0.00  0.00     0.040 A 
BRANCH  31  34
HETATM   34  C   UNK     0      15.192  36.575  24.104  0.00  0.00     0.334 C 
BRANCH  34  35
HETATM   35  N   UNK     0      15.366  36.379  25.553  0.00  0.00     0.090 N 
HETATM   36  H   UNK     0      14.878  37.128  26.045  0.00  0.00     0.316 HD
BRANCH  35  37
HETATM   37  C   UNK     0      14.801  35.106  25.962  0.00  0.00     0.284 C 
BRANCH  37  38
HETATM   38  C   UNK     0      13.932  35.268  27.197  0.00  0.00     0.169 C 
BRANCH  38  39
HETATM   39  S   UNK     0      14.912  35.333  28.665  0.00  0.00     0.142 S 
HETATM   40  O   UNK     0      16.139  34.592  28.425  0.00  0.00    -0.228 OA
HETATM   41  O   UNK     0      14.959  36.712  29.120  0.00  0.00    -0.228 OA
HETATM   42  C   UNK     0      13.950  34.413  29.843  0.00  0.00     0.161 C 
ENDBRANCH  38  39
ENDBRANCH  37  38
ENDBRANCH  35  37
ENDBRANCH  34  35
ENDBRANCH  31  34
ENDBRANCH   3  29
TORSDOF 11
ENDMDL
