MODEL 1
REMARK VINA RESULT:     -10.7      0.000      0.000
REMARK  11 active torsions:
REMARK  status: ('A' for Active; 'I' for Inactive)
REMARK    1  A    between atoms: S_2  and  C_13 
REMARK    2  A    between atoms: O_7  and  C_31 
REMARK    3  A    between atoms: O_7  and  C_34 
REMARK    4  A    between atoms: N_8  and  C_12 
REMARK    5  A    between atoms: N_8  and  C_14 
REMARK    6  A    between atoms: N_9  and  C_24 
REMARK    7  A    between atoms: N_9  and  C_27 
REMARK    8  A    between atoms: C_12  and  C_13 
REMARK    9  A    between atoms: C_14  and  C_15 
REMARK   10  A    between atoms: C_16  and  C_17 
REMARK   11  A    between atoms: C_34  and  C_35 
ROOT
HETATM    1  N   UNK     0     -19.289 -13.372  27.351  0.00  0.00    -0.241 NA
HETATM    2  N   UNK     0     -21.155 -12.928  25.894  0.00  0.00    -0.224 NA
HETATM    3  C   UNK     0     -21.878 -14.631  30.365  0.00  0.00    -0.001 A 
HETATM    4  C   UNK     0     -21.521 -13.779  28.127  0.00  0.00     0.040 A 
HETATM    5  C   UNK     0     -22.391 -14.204  29.145  0.00  0.00     0.032 A 
HETATM    6  C   UNK     0     -20.131 -13.776  28.318  0.00  0.00     0.072 A 
HETATM    7  C   UNK     0     -20.502 -14.634  30.568  0.00  0.00     0.016 A 
HETATM    8  C   UNK     0     -21.969 -13.340  26.884  0.00  0.00     0.142 A 
HETATM    9  C   UNK     0     -19.644 -14.208  29.549  0.00  0.00     0.033 A 
HETATM   10  C   UNK     0     -19.848 -12.969  26.192  0.00  0.00     0.236 A 
ENDROOT
BRANCH   8  11
HETATM   11  N   UNK     0     -23.361 -13.314  26.615  0.00  0.00    -0.340 N 
HETATM   12  H   UNK     0     -23.634 -12.534  26.025  0.00  0.00     0.167 HD
BRANCH  11  13
HETATM   13  C   UNK     0     -24.372 -14.277  26.762  0.00  0.00     0.035 A 
HETATM   14  C   UNK     0     -24.710 -15.103  25.690  0.00  0.00     0.056 A 
HETATM   15  C   UNK     0     -25.715 -16.059  25.837  0.00  0.00     0.069 A 
HETATM   16 Cl   UNK     0     -26.115 -17.068  24.495  0.00  0.00    -0.081 Cl
HETATM   17  C   UNK     0     -26.380 -16.191  27.056  0.00  0.00     0.091 A 
HETATM   18  C   UNK     0     -26.041 -15.366  28.128  0.00  0.00     0.041 A 
HETATM   19  C   UNK     0     -25.037 -14.409  27.982  0.00  0.00     0.032 A 
BRANCH  17  20
HETATM   20  O   UNK     0     -27.367 -17.117  27.228  0.00  0.00    -0.345 OA
BRANCH  20  21
HETATM   21  C   UNK     0     -28.635 -16.638  27.667  0.00  0.00     0.214 C 
BRANCH  21  22
HETATM   22  C   UNK     0     -29.452 -16.246  26.471  0.00  0.00    -0.031 A 
HETATM   23  C   UNK     0     -29.508 -14.911  26.072  0.00  0.00     0.051 A 
HETATM   24  C   UNK     0     -30.267 -14.547  24.960  0.00  0.00     0.117 A 
HETATM   25  F   UNK     0     -30.321 -13.265  24.576  0.00  0.00    -0.206 F 
HETATM   26  C   UNK     0     -30.970 -15.518  24.248  0.00  0.00     0.042 A 
HETATM   27  C   UNK     0     -30.914 -16.853  24.647  0.00  0.00     0.004 A 
HETATM   28  C   UNK     0     -30.155 -17.217  25.758  0.00  0.00     0.009 A 
ENDBRANCH  21  22
ENDBRANCH  20  21
ENDBRANCH  17  20
ENDBRANCH  11  13
ENDBRANCH   8  11
BRANCH   3  29
HETATM   29  C   UNK     0     -22.766 -15.071  31.414  0.00  0.00     0.086 A 
HETATM   30  O   UNK     0     -22.157 -15.554  32.529  0.00  0.00    -0.313 OA
HETATM   31  C   UNK     0     -23.147 -15.911  33.388  0.00  0.00     0.081 A 
HETATM   32  C   UNK     0     -24.381 -15.662  32.834  0.00  0.00     0.037 A 
HETATM   33  C   UNK     0     -24.133 -15.115  31.552  0.00  0.00     0.040 A 
BRANCH  31  34
HETATM   34  C   UNK     0     -22.719 -16.469  34.678  0.00  0.00     0.334 C 
BRANCH  34  35
HETATM   35  N   UNK     0     -21.333 -16.102  35.014  0.00  0.00     0.090 N 
HETATM   36  H   UNK     0     -20.843 -15.855  34.154  0.00  0.00     0.316 HD
BRANCH  35  37
HETATM   37  C   UNK     0     -21.315 -14.958  35.906  0.00  0.00     0.284 C 
BRANCH  37  38
HETATM   38  C   UNK     0     -22.180 -15.209  37.129  0.00  0.00     0.169 C 
BRANCH  38  39
HETATM   39  S   UNK     0     -21.373 -16.283  38.275  0.00  0.00     0.142 S 
HETATM   40  O   UNK     0     -20.187 -16.824  37.633  0.00  0.00    -0.228 OA
HETATM   41  O   UNK     0     -21.272 -15.594  39.551  0.00  0.00    -0.228 OA
HETATM   42  C   UNK     0     -22.532 -17.615  38.476  0.00  0.00     0.161 C 
ENDBRANCH  38  39
ENDBRANCH  37  38
ENDBRANCH  35  37
ENDBRANCH  34  35
ENDBRANCH  31  34
ENDBRANCH   3  29
TORSDOF 11
ENDMDL
MODEL 2
REMARK VINA RESULT:     -10.7      4.783      9.198
REMARK  11 active torsions:
REMARK  status: ('A' for Active; 'I' for Inactive)
REMARK    1  A    between atoms: S_2  and  C_13 
REMARK    2  A    between atoms: O_7  and  C_31 
REMARK    3  A    between atoms: O_7  and  C_34 
REMARK    4  A    between atoms: N_8  and  C_12 
REMARK    5  A    between atoms: N_8  and  C_14 
REMARK    6  A    between atoms: N_9  and  C_24 
REMARK    7  A    between atoms: N_9  and  C_27 
REMARK    8  A    between atoms: C_12  and  C_13 
REMARK    9  A    between atoms: C_14  and  C_15 
REMARK   10  A    between atoms: C_16  and  C_17 
REMARK   11  A    between atoms: C_34  and  C_35 
ROOT
HETATM    1  N   UNK     0     -24.180 -15.519  36.605  0.00  0.00    -0.241 NA
HETATM    2  N   UNK     0     -22.497 -15.827  34.910  0.00  0.00    -0.224 NA
HETATM    3  C   UNK     0     -27.195 -16.200  33.808  0.00  0.00    -0.001 A 
HETATM    4  C   UNK     0     -24.843 -16.015  34.354  0.00  0.00     0.040 A 
HETATM    5  C   UNK     0     -25.861 -16.243  33.414  0.00  0.00     0.032 A 
HETATM    6  C   UNK     0     -25.147 -15.739  35.697  0.00  0.00     0.072 A 
HETATM    7  C   UNK     0     -27.509 -15.928  35.135  0.00  0.00     0.016 A 
HETATM    8  C   UNK     0     -23.490 -16.044  34.026  0.00  0.00     0.142 A 
HETATM    9  C   UNK     0     -26.489 -15.701  36.064  0.00  0.00     0.033 A 
HETATM   10  C   UNK     0     -22.908 -15.574  36.161  0.00  0.00     0.236 A 
ENDROOT
BRANCH   8  11
HETATM   11  N   UNK     0     -23.104 -16.316  32.689  0.00  0.00    -0.340 N 
HETATM   12  H   UNK     0     -23.276 -17.280  32.418  0.00  0.00     0.167 HD
BRANCH  11  13
HETATM   13  C   UNK     0     -22.800 -15.481  31.603  0.00  0.00     0.035 A 
HETATM   14  C   UNK     0     -21.470 -15.240  31.259  0.00  0.00     0.056 A 
HETATM   15  C   UNK     0     -21.169 -14.410  30.179  0.00  0.00     0.069 A 
HETATM   16 Cl   UNK     0     -19.515 -14.128  29.774  0.00  0.00    -0.081 Cl
HETATM   17  C   UNK     0     -22.198 -13.822  29.443  0.00  0.00     0.091 A 
HETATM   18  C   UNK     0     -23.528 -14.063  29.787  0.00  0.00     0.041 A 
HETATM   19  C   UNK     0     -23.830 -14.893  30.867  0.00  0.00     0.032 A 
BRANCH  17  20
HETATM   20  O   UNK     0     -21.933 -13.006  28.382  0.00  0.00    -0.345 OA
BRANCH  20  21
HETATM   21  C   UNK     0     -21.867 -13.615  27.096  0.00  0.00     0.214 C 
BRANCH  21  22
HETATM   22  C   UNK     0     -21.006 -12.775  26.199  0.00  0.00    -0.031 A 
HETATM   23  C   UNK     0     -19.661 -12.576  26.509  0.00  0.00     0.051 A 
HETATM   24  C   UNK     0     -18.862 -11.796  25.675  0.00  0.00     0.117 A 
HETATM   25  F   UNK     0     -17.569 -11.605  25.972  0.00  0.00    -0.206 F 
HETATM   26  C   UNK     0     -19.407 -11.214  24.531  0.00  0.00     0.042 A 
HETATM   27  C   UNK     0     -20.752 -11.413  24.221  0.00  0.00     0.004 A 
HETATM   28  C   UNK     0     -21.552 -12.193  25.055  0.00  0.00     0.009 A 
ENDBRANCH  21  22
ENDBRANCH  20  21
ENDBRANCH  17  20
ENDBRANCH  11  13
ENDBRANCH   8  11
BRANCH   3  29
HETATM   29  C   UNK     0     -28.245 -16.436  32.848  0.00  0.00     0.086 A 
HETATM   30  O   UNK     0     -27.857 -17.048  31.698  0.00  0.00    -0.313 OA
HETATM   31  C   UNK     0     -28.972 -17.181  30.933  0.00  0.00     0.081 A 
HETATM   32  C   UNK     0     -30.067 -16.660  31.581  0.00  0.00     0.037 A 
HETATM   33  C   UNK     0     -29.595 -16.177  32.825  0.00  0.00     0.040 A 
BRANCH  31  34
HETATM   34  C   UNK     0     -28.790 -17.824  29.624  0.00  0.00     0.334 C 
BRANCH  34  35
HETATM   35  N   UNK     0     -27.594 -17.332  28.920  0.00  0.00     0.090 N 
HETATM   36  H   UNK     0     -27.460 -17.889  28.076  0.00  0.00     0.316 HD
BRANCH  35  37
HETATM   37  C   UNK     0     -27.767 -15.942  28.541  0.00  0.00     0.284 C 
BRANCH  37  38
HETATM   38  C   UNK     0     -28.420 -15.829  27.174  0.00  0.00     0.169 C 
BRANCH  38  39
HETATM   39  S   UNK     0     -27.375 -16.482  25.910  0.00  0.00     0.142 S 
HETATM   40  O   UNK     0     -27.272 -17.918  26.102  0.00  0.00    -0.228 OA
HETATM   41  O   UNK     0     -27.810 -15.937  24.634  0.00  0.00    -0.228 OA
HETATM   42  C   UNK     0     -25.788 -15.774  26.282  0.00  0.00     0.161 C 
ENDBRANCH  38  39
ENDBRANCH  37  38
ENDBRANCH  35  37
ENDBRANCH  34  35
ENDBRANCH  31  34
ENDBRANCH   3  29
TORSDOF 11
ENDMDL
MODEL 3
REMARK VINA RESULT:      -9.8      5.151     10.542
REMARK  11 active torsions:
REMARK  status: ('A' for Active; 'I' for Inactive)
REMARK    1  A    between atoms: S_2  and  C_13 
REMARK    2  A    between atoms: O_7  and  C_31 
REMARK    3  A    between atoms: O_7  and  C_34 
REMARK    4  A    between atoms: N_8  and  C_12 
REMARK    5  A    between atoms: N_8  and  C_14 
REMARK    6  A    between atoms: N_9  and  C_24 
REMARK    7  A    between atoms: N_9  and  C_27 
REMARK    8  A    between atoms: C_12  and  C_13 
REMARK    9  A    between atoms: C_14  and  C_15 
REMARK   10  A    between atoms: C_16  and  C_17 
REMARK   11  A    between atoms: C_34  and  C_35 
ROOT
HETATM    1  N   UNK     0     -29.159 -15.942  29.320  0.00  0.00    -0.241 NA
HETATM    2  N   UNK     0     -29.054 -17.637  31.029  0.00  0.00    -0.224 NA
HETATM    3  C   UNK     0     -25.092 -15.155  29.781  0.00  0.00    -0.001 A 
HETATM    4  C   UNK     0     -27.072 -16.400  30.409  0.00  0.00     0.040 A 
HETATM    5  C   UNK     0     -25.701 -16.132  30.562  0.00  0.00     0.032 A 
HETATM    6  C   UNK     0     -27.846 -15.694  29.475  0.00  0.00     0.072 A 
HETATM    7  C   UNK     0     -25.848 -14.449  28.852  0.00  0.00     0.016 A 
HETATM    8  C   UNK     0     -27.742 -17.364  31.158  0.00  0.00     0.142 A 
HETATM    9  C   UNK     0     -27.212 -14.722  28.706  0.00  0.00     0.033 A 
HETATM   10  C   UNK     0     -29.691 -16.901  30.106  0.00  0.00     0.236 A 
ENDROOT
BRANCH   8  11
HETATM   11  N   UNK     0     -27.026 -18.118  32.121  0.00  0.00    -0.340 N 
HETATM   12  H   UNK     0     -26.538 -18.912  31.716  0.00  0.00     0.167 HD
BRANCH  11  13
HETATM   13  C   UNK     0     -26.635 -17.841  33.440  0.00  0.00     0.035 A 
HETATM   14  C   UNK     0     -27.586 -17.445  34.382  0.00  0.00     0.056 A 
HETATM   15  C   UNK     0     -27.196 -17.170  35.693  0.00  0.00     0.069 A 
HETATM   16 Cl   UNK     0     -28.391 -16.681  36.837  0.00  0.00    -0.081 Cl
HETATM   17  C   UNK     0     -25.856 -17.292  36.062  0.00  0.00     0.091 A 
HETATM   18  C   UNK     0     -24.906 -17.689  35.121  0.00  0.00     0.041 A 
HETATM   19  C   UNK     0     -25.295 -17.963  33.810  0.00  0.00     0.032 A 
BRANCH  17  20
HETATM   20  O   UNK     0     -25.446 -17.029  37.336  0.00  0.00    -0.345 OA
BRANCH  20  21
HETATM   21  C   UNK     0     -24.625 -15.881  37.529  0.00  0.00     0.214 C 
BRANCH  21  22
HETATM   22  C   UNK     0     -23.212 -16.325  37.775  0.00  0.00    -0.031 A 
HETATM   23  C   UNK     0     -22.151 -15.623  37.202  0.00  0.00     0.051 A 
HETATM   24  C   UNK     0     -20.839 -16.036  37.431  0.00  0.00     0.117 A 
HETATM   25  F   UNK     0     -19.819 -15.362  36.882  0.00  0.00    -0.206 F 
HETATM   26  C   UNK     0     -20.588 -17.149  38.233  0.00  0.00     0.042 A 
HETATM   27  C   UNK     0     -21.649 -17.851  38.805  0.00  0.00     0.004 A 
HETATM   28  C   UNK     0     -22.961 -17.438  38.576  0.00  0.00     0.009 A 
ENDBRANCH  21  22
ENDBRANCH  20  21
ENDBRANCH  17  20
ENDBRANCH  11  13
ENDBRANCH   8  11
BRANCH   3  29
HETATM   29  C   UNK     0     -23.684 -14.877  29.932  0.00  0.00     0.086 A 
HETATM   30  O   UNK     0     -23.145 -14.068  28.983  0.00  0.00    -0.313 OA
HETATM   31  C   UNK     0     -21.830 -13.926  29.294  0.00  0.00     0.081 A 
HETATM   32  C   UNK     0     -21.524 -14.637  30.431  0.00  0.00     0.037 A 
HETATM   33  C   UNK     0     -22.728 -15.253  30.846  0.00  0.00     0.040 A 
BRANCH  31  34
HETATM   34  C   UNK     0     -21.035 -13.081  28.392  0.00  0.00     0.334 C 
BRANCH  34  35
HETATM   35  N   UNK     0     -20.619 -13.799  27.175  0.00  0.00     0.090 N 
HETATM   36  H   UNK     0     -21.402 -14.364  26.847  0.00  0.00     0.316 HD
BRANCH  35  37
HETATM   37  C   UNK     0     -20.254 -12.857  26.133  0.00  0.00     0.284 C 
BRANCH  37  38
HETATM   38  C   UNK     0     -21.372 -11.859  25.886  0.00  0.00     0.169 C 
BRANCH  38  39
HETATM   39  S   UNK     0     -22.688 -12.587  24.961  0.00  0.00     0.142 S 
HETATM   40  O   UNK     0     -22.128 -13.164  23.750  0.00  0.00    -0.228 OA
HETATM   41  O   UNK     0     -23.484 -13.400  25.866  0.00  0.00    -0.228 OA
HETATM   42  C   UNK     0     -23.678 -11.190  24.484  0.00  0.00     0.161 C 
ENDBRANCH  38  39
ENDBRANCH  37  38
ENDBRANCH  35  37
ENDBRANCH  34  35
ENDBRANCH  31  34
ENDBRANCH   3  29
TORSDOF 11
ENDMDL
