MODEL 1
REMARK VINA RESULT:      -9.5      0.000      0.000
REMARK  11 active torsions:
REMARK  status: ('A' for Active; 'I' for Inactive)
REMARK    1  A    between atoms: S_2  and  C_13 
REMARK    2  A    between atoms: O_7  and  C_31 
REMARK    3  A    between atoms: O_7  and  C_34 
REMARK    4  A    between atoms: N_8  and  C_12 
REMARK    5  A    between atoms: N_8  and  C_14 
REMARK    6  A    between atoms: N_9  and  C_24 
REMARK    7  A    between atoms: N_9  and  C_27 
REMARK    8  A    between atoms: C_12  and  C_13 
REMARK    9  A    between atoms: C_14  and  C_15 
REMARK   10  A    between atoms: C_16  and  C_17 
REMARK   11  A    between atoms: C_34  and  C_35 
ROOT
HETATM    1  N   UNK     0     -42.639  50.510  12.344  0.00  0.00    -0.241 NA
HETATM    2  N   UNK     0     -40.350  50.719  13.066  0.00  0.00    -0.224 NA
HETATM    3  C   UNK     0     -43.409  47.789  15.406  0.00  0.00    -0.001 A 
HETATM    4  C   UNK     0     -41.874  49.254  14.239  0.00  0.00     0.040 A 
HETATM    5  C   UNK     0     -42.137  48.336  15.270  0.00  0.00     0.032 A 
HETATM    6  C   UNK     0     -42.879  49.633  13.335  0.00  0.00     0.072 A 
HETATM    7  C   UNK     0     -44.413  48.157  14.517  0.00  0.00     0.016 A 
HETATM    8  C   UNK     0     -40.625  49.838  14.047  0.00  0.00     0.142 A 
HETATM    9  C   UNK     0     -44.143  49.070  13.494  0.00  0.00     0.033 A 
HETATM   10  C   UNK     0     -41.387  51.005  12.264  0.00  0.00     0.236 A 
ENDROOT
BRANCH   8  11
HETATM   11  N   UNK     0     -39.560  49.504  14.921  0.00  0.00    -0.340 N 
HETATM   12  H   UNK     0     -39.555  48.522  15.179  0.00  0.00     0.167 HD
BRANCH  11  13
HETATM   13  C   UNK     0     -38.378  50.175  15.271  0.00  0.00     0.035 A 
HETATM   14  C   UNK     0     -38.366  51.567  15.366  0.00  0.00     0.056 A 
HETATM   15  C   UNK     0     -37.191  52.232  15.715  0.00  0.00     0.069 A 
HETATM   16 Cl   UNK     0     -37.204  53.954  15.825  0.00  0.00    -0.081 Cl
HETATM   17  C   UNK     0     -36.027  51.505  15.969  0.00  0.00     0.091 A 
HETATM   18  C   UNK     0     -36.039  50.114  15.875  0.00  0.00     0.041 A 
HETATM   19  C   UNK     0     -37.214  49.448  15.526  0.00  0.00     0.032 A 
BRANCH  17  20
HETATM   20  O   UNK     0     -34.864  52.129  16.311  0.00  0.00    -0.345 OA
BRANCH  20  21
HETATM   21  C   UNK     0     -34.115  52.728  15.257  0.00  0.00     0.214 C 
BRANCH  21  22
HETATM   22  C   UNK     0     -32.726  52.160  15.258  0.00  0.00    -0.031 A 
HETATM   23  C   UNK     0     -31.991  52.111  14.074  0.00  0.00     0.051 A 
HETATM   24  C   UNK     0     -30.700  51.584  14.076  0.00  0.00     0.117 A 
HETATM   25  F   UNK     0     -29.994  51.537  12.938  0.00  0.00    -0.206 F 
HETATM   26  C   UNK     0     -30.144  51.106  15.262  0.00  0.00     0.042 A 
HETATM   27  C   UNK     0     -30.879  51.154  16.447  0.00  0.00     0.004 A 
HETATM   28  C   UNK     0     -32.170  51.682  16.445  0.00  0.00     0.009 A 
ENDBRANCH  21  22
ENDBRANCH  20  21
ENDBRANCH  17  20
ENDBRANCH  11  13
ENDBRANCH   8  11
BRANCH   3  29
HETATM   29  C   UNK     0     -43.686  46.848  16.464  0.00  0.00     0.086 A 
HETATM   30  O   UNK     0     -42.627  46.529  17.253  0.00  0.00    -0.313 OA
HETATM   31  C   UNK     0     -43.082  45.643  18.176  0.00  0.00     0.081 A 
HETATM   32  C   UNK     0     -44.421  45.392  17.985  0.00  0.00     0.037 A 
HETATM   33  C   UNK     0     -44.813  46.175  16.873  0.00  0.00     0.040 A 
BRANCH  31  34
HETATM   34  C   UNK     0     -42.096  45.152  19.149  0.00  0.00     0.334 C 
BRANCH  34  35
HETATM   35  N   UNK     0     -40.748  45.036  18.569  0.00  0.00     0.090 N 
HETATM   36  H   UNK     0     -40.605  45.808  17.918  0.00  0.00     0.316 HD
BRANCH  35  37
HETATM   37  C   UNK     0     -39.741  45.111  19.611  0.00  0.00     0.284 C 
BRANCH  37  38
HETATM   38  C   UNK     0     -38.630  46.072  19.225  0.00  0.00     0.169 C 
BRANCH  38  39
HETATM   39  S   UNK     0     -39.281  47.559  18.530  0.00  0.00     0.142 S 
HETATM   40  O   UNK     0     -39.450  47.357  17.101  0.00  0.00    -0.228 OA
HETATM   41  O   UNK     0     -40.398  47.993  19.352  0.00  0.00    -0.228 OA
HETATM   42  C   UNK     0     -37.963  48.730  18.756  0.00  0.00     0.161 C 
ENDBRANCH  38  39
ENDBRANCH  37  38
ENDBRANCH  35  37
ENDBRANCH  34  35
ENDBRANCH  31  34
ENDBRANCH   3  29
TORSDOF 11
ENDMDL
MODEL 2
REMARK VINA RESULT:      -8.7      4.257      7.233
REMARK  11 active torsions:
REMARK  status: ('A' for Active; 'I' for Inactive)
REMARK    1  A    between atoms: S_2  and  C_13 
REMARK    2  A    between atoms: O_7  and  C_31 
REMARK    3  A    between atoms: O_7  and  C_34 
REMARK    4  A    between atoms: N_8  and  C_12 
REMARK    5  A    between atoms: N_8  and  C_14 
REMARK    6  A    between atoms: N_9  and  C_24 
REMARK    7  A    between atoms: N_9  and  C_27 
REMARK    8  A    between atoms: C_12  and  C_13 
REMARK    9  A    between atoms: C_14  and  C_15 
REMARK   10  A    between atoms: C_16  and  C_17 
REMARK   11  A    between atoms: C_34  and  C_35 
ROOT
HETATM    1  N   UNK     0     -37.961  50.748  14.488  0.00  0.00    -0.241 NA
HETATM    2  N   UNK     0     -37.400  49.059  16.112  0.00  0.00    -0.224 NA
HETATM    3  C   UNK     0     -41.935  49.489  14.479  0.00  0.00    -0.001 A 
HETATM    4  C   UNK     0     -39.667  49.270  15.300  0.00  0.00     0.040 A 
HETATM    5  C   UNK     0     -41.007  48.848  15.294  0.00  0.00     0.032 A 
HETATM    6  C   UNK     0     -39.241  50.335  14.491  0.00  0.00     0.072 A 
HETATM    7  C   UNK     0     -41.526  50.546  13.674  0.00  0.00     0.016 A 
HETATM    8  C   UNK     0     -38.690  48.673  16.091  0.00  0.00     0.142 A 
HETATM    9  C   UNK     0     -40.190  50.959  13.685  0.00  0.00     0.033 A 
HETATM   10  C   UNK     0     -37.110  50.086  15.299  0.00  0.00     0.236 A 
ENDROOT
BRANCH   8  11
HETATM   11  N   UNK     0     -39.044  47.590  16.935  0.00  0.00    -0.340 N 
HETATM   12  H   UNK     0     -39.263  46.743  16.418  0.00  0.00     0.167 HD
BRANCH  11  13
HETATM   13  C   UNK     0     -38.888  47.374  18.313  0.00  0.00     0.035 A 
HETATM   14  C   UNK     0     -39.037  48.434  19.208  0.00  0.00     0.056 A 
HETATM   15  C   UNK     0     -38.883  48.218  20.577  0.00  0.00     0.069 A 
HETATM   16 Cl   UNK     0     -39.072  49.546  21.662  0.00  0.00    -0.081 Cl
HETATM   17  C   UNK     0     -38.580  46.941  21.052  0.00  0.00     0.091 A 
HETATM   18  C   UNK     0     -38.431  45.881  20.157  0.00  0.00     0.041 A 
HETATM   19  C   UNK     0     -38.585  46.097  18.788  0.00  0.00     0.032 A 
BRANCH  17  20
HETATM   20  O   UNK     0     -38.422  46.701  22.385  0.00  0.00    -0.345 OA
BRANCH  20  21
HETATM   21  C   UNK     0     -37.089  46.689  22.888  0.00  0.00     0.214 C 
BRANCH  21  22
HETATM   22  C   UNK     0     -36.888  45.454  23.717  0.00  0.00    -0.031 A 
HETATM   23  C   UNK     0     -35.610  45.105  24.151  0.00  0.00     0.051 A 
HETATM   24  C   UNK     0     -35.424  43.957  24.921  0.00  0.00     0.117 A 
HETATM   25  F   UNK     0     -34.196  43.622  25.339  0.00  0.00    -0.206 F 
HETATM   26  C   UNK     0     -36.517  43.158  25.256  0.00  0.00     0.042 A 
HETATM   27  C   UNK     0     -37.796  43.507  24.822  0.00  0.00     0.004 A 
HETATM   28  C   UNK     0     -37.981  44.655  24.052  0.00  0.00     0.009 A 
ENDBRANCH  21  22
ENDBRANCH  20  21
ENDBRANCH  17  20
ENDBRANCH  11  13
ENDBRANCH   8  11
BRANCH   3  29
HETATM   29  C   UNK     0     -43.313  49.062  14.471  0.00  0.00     0.086 A 
HETATM   30  O   UNK     0     -43.689  48.286  15.521  0.00  0.00    -0.313 OA
HETATM   31  C   UNK     0     -45.003  47.991  15.335  0.00  0.00     0.081 A 
HETATM   32  C   UNK     0     -45.469  48.570  14.178  0.00  0.00     0.037 A 
HETATM   33  C   UNK     0     -44.371  49.267  13.617  0.00  0.00     0.040 A 
BRANCH  31  34
HETATM   34  C   UNK     0     -45.632  47.149  16.362  0.00  0.00     0.334 C 
BRANCH  34  35
HETATM   35  N   UNK     0     -44.904  45.886  16.573  0.00  0.00     0.090 N 
HETATM   36  H   UNK     0     -43.936  46.015  16.277  0.00  0.00     0.316 HD
BRANCH  35  37
HETATM   37  C   UNK     0     -44.917  45.525  17.978  0.00  0.00     0.284 C 
BRANCH  37  38
HETATM   38  C   UNK     0     -44.480  46.693  18.845  0.00  0.00     0.169 C 
BRANCH  38  39
HETATM   39  S   UNK     0     -42.735  46.942  18.751  0.00  0.00     0.142 S 
HETATM   40  O   UNK     0     -42.187  45.976  17.813  0.00  0.00    -0.228 OA
HETATM   41  O   UNK     0     -42.487  48.363  18.575  0.00  0.00    -0.228 OA
HETATM   42  C   UNK     0     -42.167  46.496  20.375  0.00  0.00     0.161 C 
ENDBRANCH  38  39
ENDBRANCH  37  38
ENDBRANCH  35  37
ENDBRANCH  34  35
ENDBRANCH  31  34
ENDBRANCH   3  29
TORSDOF 11
ENDMDL
MODEL 3
REMARK VINA RESULT:      -8.6      2.048      2.397
REMARK  11 active torsions:
REMARK  status: ('A' for Active; 'I' for Inactive)
REMARK    1  A    between atoms: S_2  and  C_13 
REMARK    2  A    between atoms: O_7  and  C_31 
REMARK    3  A    between atoms: O_7  and  C_34 
REMARK    4  A    between atoms: N_8  and  C_12 
REMARK    5  A    between atoms: N_8  and  C_14 
REMARK    6  A    between atoms: N_9  and  C_24 
REMARK    7  A    between atoms: N_9  and  C_27 
REMARK    8  A    between atoms: C_12  and  C_13 
REMARK    9  A    between atoms: C_14  and  C_15 
REMARK   10  A    between atoms: C_16  and  C_17 
REMARK   11  A    between atoms: C_34  and  C_35 
ROOT
HETATM    1  N   UNK     0     -42.334  50.567  12.590  0.00  0.00    -0.241 NA
HETATM    2  N   UNK     0     -39.989  50.772  13.106  0.00  0.00    -0.224 NA
HETATM    3  C   UNK     0     -42.873  47.992  15.823  0.00  0.00    -0.001 A 
HETATM    4  C   UNK     0     -41.426  49.382  14.467  0.00  0.00     0.040 A 
HETATM    5  C   UNK     0     -41.611  48.514  15.556  0.00  0.00     0.032 A 
HETATM    6  C   UNK     0     -42.499  49.737  13.634  0.00  0.00     0.072 A 
HETATM    7  C   UNK     0     -43.945  48.337  15.006  0.00  0.00     0.016 A 
HETATM    8  C   UNK     0     -40.191  49.938  14.145  0.00  0.00     0.142 A 
HETATM    9  C   UNK     0     -43.751  49.201  13.924  0.00  0.00     0.033 A 
HETATM   10  C   UNK     0     -41.087  51.039  12.383  0.00  0.00     0.236 A 
ENDROOT
BRANCH   8  11
HETATM   11  N   UNK     0     -39.059  49.626  14.940  0.00  0.00    -0.340 N 
HETATM   12  H   UNK     0     -38.926  48.626  15.060  0.00  0.00     0.167 HD
BRANCH  11  13
HETATM   13  C   UNK     0     -37.953  50.386  15.352  0.00  0.00     0.035 A 
HETATM   14  C   UNK     0     -37.998  51.779  15.281  0.00  0.00     0.056 A 
HETATM   15  C   UNK     0     -36.898  52.533  15.691  0.00  0.00     0.069 A 
HETATM   16 Cl   UNK     0     -36.978  54.254  15.593  0.00  0.00    -0.081 Cl
HETATM   17  C   UNK     0     -35.754  51.894  16.172  0.00  0.00     0.091 A 
HETATM   18  C   UNK     0     -35.711  50.502  16.243  0.00  0.00     0.041 A 
HETATM   19  C   UNK     0     -36.810  49.748  15.833  0.00  0.00     0.032 A 
BRANCH  17  20
HETATM   20  O   UNK     0     -34.665  52.606  16.579  0.00  0.00    -0.345 OA
BRANCH  20  21
HETATM   21  C   UNK     0     -33.832  53.154  15.561  0.00  0.00     0.214 C 
BRANCH  21  22
HETATM   22  C   UNK     0     -32.563  52.356  15.482  0.00  0.00    -0.031 A 
HETATM   23  C   UNK     0     -31.968  52.113  14.244  0.00  0.00     0.051 A 
HETATM   24  C   UNK     0     -30.790  51.371  14.171  0.00  0.00     0.117 A 
HETATM   25  F   UNK     0     -30.217  51.137  12.983  0.00  0.00    -0.206 F 
HETATM   26  C   UNK     0     -30.207  50.872  15.336  0.00  0.00     0.042 A 
HETATM   27  C   UNK     0     -30.802  51.115  16.574  0.00  0.00     0.004 A 
HETATM   28  C   UNK     0     -31.981  51.857  16.647  0.00  0.00     0.009 A 
ENDBRANCH  21  22
ENDBRANCH  20  21
ENDBRANCH  17  20
ENDBRANCH  11  13
ENDBRANCH   8  11
BRANCH   3  29
HETATM   29  C   UNK     0     -43.070  47.102  16.940  0.00  0.00     0.086 A 
HETATM   30  O   UNK     0     -42.085  47.114  17.876  0.00  0.00    -0.313 OA
HETATM   31  C   UNK     0     -42.448  46.222  18.835  0.00  0.00     0.081 A 
HETATM   32  C   UNK     0     -43.655  45.641  18.521  0.00  0.00     0.037 A 
HETATM   33  C   UNK     0     -44.059  46.213  17.291  0.00  0.00     0.040 A 
BRANCH  31  34
HETATM   34  C   UNK     0     -41.520  46.065  19.963  0.00  0.00     0.334 C 
BRANCH  34  35
HETATM   35  N   UNK     0     -42.194  45.581  21.179  0.00  0.00     0.090 N 
HETATM   36  H   UNK     0     -41.845  44.647  21.396  0.00  0.00     0.316 HD
BRANCH  35  37
HETATM   37  C   UNK     0     -41.907  46.458  22.299  0.00  0.00     0.284 C 
BRANCH  37  38
HETATM   38  C   UNK     0     -41.574  45.657  23.546  0.00  0.00     0.169 C 
BRANCH  38  39
HETATM   39  S   UNK     0     -40.411  44.377  23.194  0.00  0.00     0.142 S 
HETATM   40  O   UNK     0     -41.138  43.231  22.675  0.00  0.00    -0.228 OA
HETATM   41  O   UNK     0     -39.312  44.957  22.439  0.00  0.00    -0.228 OA
HETATM   42  C   UNK     0     -39.786  43.936  24.798  0.00  0.00     0.161 C 
ENDBRANCH  38  39
ENDBRANCH  37  38
ENDBRANCH  35  37
ENDBRANCH  34  35
ENDBRANCH  31  34
ENDBRANCH   3  29
TORSDOF 11
ENDMDL
