MODEL 1
REMARK VINA RESULT:      -8.2      0.000      0.000
REMARK  11 active torsions:
REMARK  status: ('A' for Active; 'I' for Inactive)
REMARK    1  A    between atoms: S_2  and  C_13 
REMARK    2  A    between atoms: O_7  and  C_31 
REMARK    3  A    between atoms: O_7  and  C_34 
REMARK    4  A    between atoms: N_8  and  C_12 
REMARK    5  A    between atoms: N_8  and  C_14 
REMARK    6  A    between atoms: N_9  and  C_24 
REMARK    7  A    between atoms: N_9  and  C_27 
REMARK    8  A    between atoms: C_12  and  C_13 
REMARK    9  A    between atoms: C_14  and  C_15 
REMARK   10  A    between atoms: C_16  and  C_17 
REMARK   11  A    between atoms: C_34  and  C_35 
ROOT
HETATM    1  N   UNK     0       5.170   6.789  24.959  0.00  0.00    -0.241 NA
HETATM    2  N   UNK     0       2.937   6.369  24.158  0.00  0.00    -0.224 NA
HETATM    3  C   UNK     0       6.458   7.620  21.083  0.00  0.00    -0.001 A 
HETATM    4  C   UNK     0       4.693   6.994  22.618  0.00  0.00     0.040 A 
HETATM    5  C   UNK     0       5.130   7.275  21.312  0.00  0.00     0.032 A 
HETATM    6  C   UNK     0       5.578   7.056  23.706  0.00  0.00     0.072 A 
HETATM    7  C   UNK     0       7.345   7.685  22.152  0.00  0.00     0.016 A 
HETATM    8  C   UNK     0       3.379   6.643  22.916  0.00  0.00     0.142 A 
HETATM    9  C   UNK     0       6.901   7.404  23.448  0.00  0.00     0.033 A 
HETATM   10  C   UNK     0       3.872   6.460  25.116  0.00  0.00     0.236 A 
ENDROOT
BRANCH   8  11
HETATM   11  N   UNK     0       2.427   6.560  21.869  0.00  0.00    -0.340 N 
HETATM   12  H   UNK     0       1.538   6.987  22.111  0.00  0.00     0.167 HD
BRANCH  11  13
HETATM   13  C   UNK     0       2.546   6.264  20.502  0.00  0.00     0.035 A 
HETATM   14  C   UNK     0       2.319   4.965  20.046  0.00  0.00     0.056 A 
HETATM   15  C   UNK     0       2.437   4.673  18.687  0.00  0.00     0.069 A 
HETATM   16 Cl   UNK     0       2.151   3.058  18.150  0.00  0.00    -0.081 Cl
HETATM   17  C   UNK     0       2.781   5.679  17.784  0.00  0.00     0.091 A 
HETATM   18  C   UNK     0       3.007   6.978  18.240  0.00  0.00     0.041 A 
HETATM   19  C   UNK     0       2.889   7.271  19.599  0.00  0.00     0.032 A 
BRANCH  17  20
HETATM   20  O   UNK     0       2.904   5.422  16.451  0.00  0.00    -0.345 OA
BRANCH  20  21
HETATM   21  C   UNK     0       2.928   6.545  15.574  0.00  0.00     0.214 C 
BRANCH  21  22
HETATM   22  C   UNK     0       4.321   6.727  15.048  0.00  0.00    -0.031 A 
HETATM   23  C   UNK     0       5.381   6.028  15.624  0.00  0.00     0.051 A 
HETATM   24  C   UNK     0       6.676   6.197  15.135  0.00  0.00     0.117 A 
HETATM   25  F   UNK     0       7.695   5.526  15.688  0.00  0.00    -0.206 F 
HETATM   26  C   UNK     0       6.911   7.066  14.070  0.00  0.00     0.042 A 
HETATM   27  C   UNK     0       5.851   7.766  13.493  0.00  0.00     0.004 A 
HETATM   28  C   UNK     0       4.556   7.596  13.982  0.00  0.00     0.009 A 
ENDBRANCH  21  22
ENDBRANCH  20  21
ENDBRANCH  17  20
ENDBRANCH  11  13
ENDBRANCH   8  11
BRANCH   3  29
HETATM   29  C   UNK     0       6.913   7.911  19.745  0.00  0.00     0.086 A 
HETATM   30  O   UNK     0       6.089   8.702  19.008  0.00  0.00    -0.313 OA
HETATM   31  C   UNK     0       6.683   8.860  17.797  0.00  0.00     0.081 A 
HETATM   32  C   UNK     0       7.877   8.178  17.752  0.00  0.00     0.037 A 
HETATM   33  C   UNK     0       8.027   7.563  19.017  0.00  0.00     0.040 A 
BRANCH  31  34
HETATM   34  C   UNK     0       5.961   9.688  16.821  0.00  0.00     0.334 C 
BRANCH  34  35
HETATM   35  N   UNK     0       4.500   9.595  16.980  0.00  0.00     0.090 N 
HETATM   36  H   UNK     0       4.270   9.723  17.966  0.00  0.00     0.316 HD
BRANCH  35  37
HETATM   37  C   UNK     0       3.840  10.631  16.208  0.00  0.00     0.284 C 
BRANCH  37  38
HETATM   38  C   UNK     0       3.982  11.985  16.882  0.00  0.00     0.169 C 
BRANCH  38  39
HETATM   39  S   UNK     0       3.320  11.958  18.519  0.00  0.00     0.142 S 
HETATM   40  O   UNK     0       2.679  13.237  18.771  0.00  0.00    -0.228 OA
HETATM   41  O   UNK     0       2.585  10.717  18.691  0.00  0.00    -0.228 OA
HETATM   42  C   UNK     0       4.768  11.870  19.546  0.00  0.00     0.161 C 
ENDBRANCH  38  39
ENDBRANCH  37  38
ENDBRANCH  35  37
ENDBRANCH  34  35
ENDBRANCH  31  34
ENDBRANCH   3  29
TORSDOF 11
ENDMDL
MODEL 2
REMARK VINA RESULT:      -8.1      1.680      2.174
REMARK  11 active torsions:
REMARK  status: ('A' for Active; 'I' for Inactive)
REMARK    1  A    between atoms: S_2  and  C_13 
REMARK    2  A    between atoms: O_7  and  C_31 
REMARK    3  A    between atoms: O_7  and  C_34 
REMARK    4  A    between atoms: N_8  and  C_12 
REMARK    5  A    between atoms: N_8  and  C_14 
REMARK    6  A    between atoms: N_9  and  C_24 
REMARK    7  A    between atoms: N_9  and  C_27 
REMARK    8  A    between atoms: C_12  and  C_13 
REMARK    9  A    between atoms: C_14  and  C_15 
REMARK   10  A    between atoms: C_16  and  C_17 
REMARK   11  A    between atoms: C_34  and  C_35 
ROOT
HETATM    1  N   UNK     0       5.126   6.937  24.707  0.00  0.00    -0.241 NA
HETATM    2  N   UNK     0       3.043   6.000  23.940  0.00  0.00    -0.224 NA
HETATM    3  C   UNK     0       6.278   7.720  20.778  0.00  0.00    -0.001 A 
HETATM    4  C   UNK     0       4.656   6.858  22.356  0.00  0.00     0.040 A 
HETATM    5  C   UNK     0       5.047   7.123  21.033  0.00  0.00     0.032 A 
HETATM    6  C   UNK     0       5.490   7.186  23.436  0.00  0.00     0.072 A 
HETATM    7  C   UNK     0       7.113   8.050  21.839  0.00  0.00     0.016 A 
HETATM    8  C   UNK     0       3.439   6.264  22.680  0.00  0.00     0.142 A 
HETATM    9  C   UNK     0       6.716   7.782  23.153  0.00  0.00     0.033 A 
HETATM   10  C   UNK     0       3.922   6.357  24.888  0.00  0.00     0.236 A 
ENDROOT
BRANCH   8  11
HETATM   11  N   UNK     0       2.543   5.904  21.642  0.00  0.00    -0.340 N 
HETATM   12  H   UNK     0       1.621   5.653  21.988  0.00  0.00     0.167 HD
BRANCH  11  13
HETATM   13  C   UNK     0       2.582   6.087  20.251  0.00  0.00     0.035 A 
HETATM   14  C   UNK     0       2.131   7.283  19.692  0.00  0.00     0.056 A 
HETATM   15  C   UNK     0       2.170   7.464  18.309  0.00  0.00     0.069 A 
HETATM   16 Cl   UNK     0       1.606   8.952  17.643  0.00  0.00    -0.081 Cl
HETATM   17  C   UNK     0       2.660   6.450  17.486  0.00  0.00     0.091 A 
HETATM   18  C   UNK     0       3.112   5.254  18.046  0.00  0.00     0.041 A 
HETATM   19  C   UNK     0       3.072   5.073  19.428  0.00  0.00     0.032 A 
BRANCH  17  20
HETATM   20  O   UNK     0       2.710   6.598  16.132  0.00  0.00    -0.345 OA
BRANCH  20  21
HETATM   21  C   UNK     0       3.498   7.672  15.626  0.00  0.00     0.214 C 
BRANCH  21  22
HETATM   22  C   UNK     0       4.797   7.125  15.108  0.00  0.00    -0.031 A 
HETATM   23  C   UNK     0       5.399   7.701  13.990  0.00  0.00     0.051 A 
HETATM   24  C   UNK     0       6.605   7.193  13.509  0.00  0.00     0.117 A 
HETATM   25  F   UNK     0       7.185   7.746  12.435  0.00  0.00    -0.206 F 
HETATM   26  C   UNK     0       7.208   6.108  14.146  0.00  0.00     0.042 A 
HETATM   27  C   UNK     0       6.606   5.533  15.264  0.00  0.00     0.004 A 
HETATM   28  C   UNK     0       5.400   6.041  15.745  0.00  0.00     0.009 A 
ENDBRANCH  21  22
ENDBRANCH  20  21
ENDBRANCH  17  20
ENDBRANCH  11  13
ENDBRANCH   8  11
BRANCH   3  29
HETATM   29  C   UNK     0       6.684   7.996  19.422  0.00  0.00     0.086 A 
HETATM   30  O   UNK     0       6.021   9.012  18.810  0.00  0.00    -0.313 OA
HETATM   31  C   UNK     0       6.540   9.117  17.558  0.00  0.00     0.081 A 
HETATM   32  C   UNK     0       7.527   8.179  17.364  0.00  0.00     0.037 A 
HETATM   33  C   UNK     0       7.621   7.452  18.575  0.00  0.00     0.040 A 
BRANCH  31  34
HETATM   34  C   UNK     0       5.966  10.165  16.702  0.00  0.00     0.334 C 
BRANCH  34  35
HETATM   35  N   UNK     0       6.247  11.518  17.209  0.00  0.00     0.090 N 
HETATM   36  H   UNK     0       6.467  12.124  16.418  0.00  0.00     0.316 HD
BRANCH  35  37
HETATM   37  C   UNK     0       5.086  12.052  17.896  0.00  0.00     0.284 C 
BRANCH  37  38
HETATM   38  C   UNK     0       3.814  11.768  17.116  0.00  0.00     0.169 C 
BRANCH  38  39
HETATM   39  S   UNK     0       3.719  12.765  15.661  0.00  0.00     0.142 S 
HETATM   40  O   UNK     0       2.610  13.691  15.815  0.00  0.00    -0.228 OA
HETATM   41  O   UNK     0       5.054  13.256  15.359  0.00  0.00    -0.228 OA
HETATM   42  C   UNK     0       3.277  11.601  14.393  0.00  0.00     0.161 C 
ENDBRANCH  38  39
ENDBRANCH  37  38
ENDBRANCH  35  37
ENDBRANCH  34  35
ENDBRANCH  31  34
ENDBRANCH   3  29
TORSDOF 11
ENDMDL
MODEL 3
REMARK VINA RESULT:      -7.6     22.352     23.788
REMARK  11 active torsions:
REMARK  status: ('A' for Active; 'I' for Inactive)
REMARK    1  A    between atoms: S_2  and  C_13 
REMARK    2  A    between atoms: O_7  and  C_31 
REMARK    3  A    between atoms: O_7  and  C_34 
REMARK    4  A    between atoms: N_8  and  C_12 
REMARK    5  A    between atoms: N_8  and  C_14 
REMARK    6  A    between atoms: N_9  and  C_24 
REMARK    7  A    between atoms: N_9  and  C_27 
REMARK    8  A    between atoms: C_12  and  C_13 
REMARK    9  A    between atoms: C_14  and  C_15 
REMARK   10  A    between atoms: C_16  and  C_17 
REMARK   11  A    between atoms: C_34  and  C_35 
ROOT
HETATM    1  N   UNK     0      19.114  24.265   9.735  0.00  0.00    -0.241 NA
HETATM    2  N   UNK     0      16.921  23.644   8.952  0.00  0.00    -0.224 NA
HETATM    3  C   UNK     0      20.846  21.262   7.421  0.00  0.00    -0.001 A 
HETATM    4  C   UNK     0      18.879  22.451   8.184  0.00  0.00     0.040 A 
HETATM    5  C   UNK     0      19.466  21.440   7.405  0.00  0.00     0.032 A 
HETATM    6  C   UNK     0      19.665  23.294   8.986  0.00  0.00     0.072 A 
HETATM    7  C   UNK     0      21.635  22.091   8.211  0.00  0.00     0.016 A 
HETATM    8  C   UNK     0      17.506  22.682   8.213  0.00  0.00     0.142 A 
HETATM    9  C   UNK     0      21.043  23.094   8.983  0.00  0.00     0.033 A 
HETATM   10  C   UNK     0      17.772  24.387   9.677  0.00  0.00     0.236 A 
ENDROOT
BRANCH   8  11
HETATM   11  N   UNK     0      16.648  21.872   7.429  0.00  0.00    -0.340 N 
HETATM   12  H   UNK     0      16.225  21.116   7.961  0.00  0.00     0.167 HD
BRANCH  11  13
HETATM   13  C   UNK     0      16.058  22.059   6.169  0.00  0.00     0.035 A 
HETATM   14  C   UNK     0      15.264  23.181   5.930  0.00  0.00     0.056 A 
HETATM   15  C   UNK     0      14.678  23.366   4.678  0.00  0.00     0.069 A 
HETATM   16 Cl   UNK     0      13.700  24.762   4.408  0.00  0.00    -0.081 Cl
HETATM   17  C   UNK     0      14.888  22.430   3.664  0.00  0.00     0.091 A 
HETATM   18  C   UNK     0      15.682  21.309   3.904  0.00  0.00     0.041 A 
HETATM   19  C   UNK     0      16.267  21.123   5.156  0.00  0.00     0.032 A 
BRANCH  17  20
HETATM   20  O   UNK     0      14.327  22.585   2.431  0.00  0.00    -0.345 OA
BRANCH  20  21
HETATM   21  C   UNK     0      13.645  21.460   1.883  0.00  0.00     0.214 C 
BRANCH  21  22
HETATM   22  C   UNK     0      12.174  21.606   2.143  0.00  0.00    -0.031 A 
HETATM   23  C   UNK     0      11.364  20.473   2.219  0.00  0.00     0.051 A 
HETATM   24  C   UNK     0       9.997  20.608   2.460  0.00  0.00     0.117 A 
HETATM   25  F   UNK     0       9.218  19.521   2.534  0.00  0.00    -0.206 F 
HETATM   26  C   UNK     0       9.440  21.877   2.625  0.00  0.00     0.042 A 
HETATM   27  C   UNK     0      10.250  23.009   2.549  0.00  0.00     0.004 A 
HETATM   28  C   UNK     0      11.617  22.874   2.308  0.00  0.00     0.009 A 
ENDBRANCH  21  22
ENDBRANCH  20  21
ENDBRANCH  17  20
ENDBRANCH  11  13
ENDBRANCH   8  11
BRANCH   3  29
HETATM   29  C   UNK     0      21.455  20.227   6.622  0.00  0.00     0.086 A 
HETATM   30  O   UNK     0      20.792  19.906   5.479  0.00  0.00    -0.313 OA
HETATM   31  C   UNK     0      21.513  18.927   4.874  0.00  0.00     0.081 A 
HETATM   32  C   UNK     0      22.628  18.617   5.618  0.00  0.00     0.037 A 
HETATM   33  C   UNK     0      22.590  19.463   6.752  0.00  0.00     0.040 A 
BRANCH  31  34
HETATM   34  C   UNK     0      20.978  18.416   3.604  0.00  0.00     0.334 C 
BRANCH  34  35
HETATM   35  N   UNK     0      19.633  17.835   3.756  0.00  0.00     0.090 N 
HETATM   36  H   UNK     0      19.489  17.600   4.738  0.00  0.00     0.316 HD
BRANCH  35  37
HETATM   37  C   UNK     0      18.621  18.794   3.352  0.00  0.00     0.284 C 
BRANCH  37  38
HETATM   38  C   UNK     0      18.838  19.240   1.916  0.00  0.00     0.169 C 
BRANCH  38  39
HETATM   39  S   UNK     0      18.258  18.026   0.773  0.00  0.00     0.142 S 
HETATM   40  O   UNK     0      19.294  17.019   0.615  0.00  0.00    -0.228 OA
HETATM   41  O   UNK     0      16.911  17.643   1.161  0.00  0.00    -0.228 OA
HETATM   42  C   UNK     0      18.142  18.923  -0.757  0.00  0.00     0.161 C 
ENDBRANCH  38  39
ENDBRANCH  37  38
ENDBRANCH  35  37
ENDBRANCH  34  35
ENDBRANCH  31  34
ENDBRANCH   3  29
TORSDOF 11
ENDMDL
