MODEL 1
REMARK VINA RESULT:      -9.4      0.000      0.000
REMARK  11 active torsions:
REMARK  status: ('A' for Active; 'I' for Inactive)
REMARK    1  A    between atoms: S_2  and  C_13 
REMARK    2  A    between atoms: O_7  and  C_31 
REMARK    3  A    between atoms: O_7  and  C_34 
REMARK    4  A    between atoms: N_8  and  C_12 
REMARK    5  A    between atoms: N_8  and  C_14 
REMARK    6  A    between atoms: N_9  and  C_24 
REMARK    7  A    between atoms: N_9  and  C_27 
REMARK    8  A    between atoms: C_12  and  C_13 
REMARK    9  A    between atoms: C_14  and  C_15 
REMARK   10  A    between atoms: C_16  and  C_17 
REMARK   11  A    between atoms: C_34  and  C_35 
ROOT
HETATM    1  N   UNK     0     -20.579 -39.901  23.128  0.00  0.00    -0.241 NA
HETATM    2  N   UNK     0     -19.961 -41.749  21.710  0.00  0.00    -0.224 NA
HETATM    3  C   UNK     0     -21.815 -42.538  26.110  0.00  0.00    -0.001 A 
HETATM    4  C   UNK     0     -20.887 -42.148  23.907  0.00  0.00     0.040 A 
HETATM    5  C   UNK     0     -21.305 -43.034  24.915  0.00  0.00     0.032 A 
HETATM    6  C   UNK     0     -20.975 -40.758  24.085  0.00  0.00     0.072 A 
HETATM    7  C   UNK     0     -21.908 -41.163  26.298  0.00  0.00     0.016 A 
HETATM    8  C   UNK     0     -20.367 -42.579  22.690  0.00  0.00     0.142 A 
HETATM    9  C   UNK     0     -21.491 -40.288  25.290  0.00  0.00     0.033 A 
HETATM   10  C   UNK     0     -20.093 -40.444  21.992  0.00  0.00     0.236 A 
ENDROOT
BRANCH   8  11
HETATM   11  N   UNK     0     -20.247 -43.968  22.437  0.00  0.00    -0.340 N 
HETATM   12  H   UNK     0     -21.116 -44.472  22.585  0.00  0.00     0.167 HD
BRANCH  11  13
HETATM   13  C   UNK     0     -19.272 -44.729  21.773  0.00  0.00     0.035 A 
HETATM   14  C   UNK     0     -17.931 -44.625  22.147  0.00  0.00     0.056 A 
HETATM   15  C   UNK     0     -16.963 -45.382  21.487  0.00  0.00     0.069 A 
HETATM   16 Cl   UNK     0     -15.313 -45.235  21.968  0.00  0.00    -0.081 Cl
HETATM   17  C   UNK     0     -17.335 -46.242  20.453  0.00  0.00     0.091 A 
HETATM   18  C   UNK     0     -18.675 -46.346  20.080  0.00  0.00     0.041 A 
HETATM   19  C   UNK     0     -19.644 -45.590  20.740  0.00  0.00     0.032 A 
BRANCH  17  20
HETATM   20  O   UNK     0     -16.410 -46.993  19.790  0.00  0.00    -0.345 OA
BRANCH  20  21
HETATM   21  C   UNK     0     -16.891 -47.851  18.758  0.00  0.00     0.214 C 
BRANCH  21  22
HETATM   22  C   UNK     0     -15.991 -47.733  17.563  0.00  0.00    -0.031 A 
HETATM   23  C   UNK     0     -14.931 -46.827  17.575  0.00  0.00     0.051 A 
HETATM   24  C   UNK     0     -14.095 -46.718  16.465  0.00  0.00     0.117 A 
HETATM   25  F   UNK     0     -13.076 -45.848  16.475  0.00  0.00    -0.206 F 
HETATM   26  C   UNK     0     -14.319 -47.515  15.342  0.00  0.00     0.042 A 
HETATM   27  C   UNK     0     -15.379 -48.422  15.331  0.00  0.00     0.004 A 
HETATM   28  C   UNK     0     -16.215 -48.531  16.441  0.00  0.00     0.009 A 
ENDBRANCH  21  22
ENDBRANCH  20  21
ENDBRANCH  17  20
ENDBRANCH  11  13
ENDBRANCH   8  11
BRANCH   3  29
HETATM   29  C   UNK     0     -22.244 -43.442  27.149  0.00  0.00     0.086 A 
HETATM   30  O   UNK     0     -22.110 -44.764  26.863  0.00  0.00    -0.313 OA
HETATM   31  C   UNK     0     -22.560 -45.444  27.950  0.00  0.00     0.081 A 
HETATM   32  C   UNK     0     -22.982 -44.571  28.925  0.00  0.00     0.037 A 
HETATM   33  C   UNK     0     -22.775 -43.271  28.405  0.00  0.00     0.040 A 
BRANCH  31  34
HETATM   34  C   UNK     0     -22.511 -46.911  27.866  0.00  0.00     0.334 C 
BRANCH  34  35
HETATM   35  N   UNK     0     -21.986 -47.380  26.572  0.00  0.00     0.090 N 
HETATM   36  H   UNK     0     -21.378 -46.657  26.186  0.00  0.00     0.316 HD
BRANCH  35  37
HETATM   37  C   UNK     0     -21.212 -48.594  26.752  0.00  0.00     0.284 C 
BRANCH  37  38
HETATM   38  C   UNK     0     -19.928 -48.546  25.941  0.00  0.00     0.169 C 
BRANCH  38  39
HETATM   39  S   UNK     0     -20.121 -47.550  24.496  0.00  0.00     0.142 S 
HETATM   40  O   UNK     0     -21.373 -47.916  23.855  0.00  0.00    -0.228 OA
HETATM   41  O   UNK     0     -19.854 -46.168  24.857  0.00  0.00    -0.228 OA
HETATM   42  C   UNK     0     -18.797 -48.094  23.442  0.00  0.00     0.161 C 
ENDBRANCH  38  39
ENDBRANCH  37  38
ENDBRANCH  35  37
ENDBRANCH  34  35
ENDBRANCH  31  34
ENDBRANCH   3  29
TORSDOF 11
ENDMDL
MODEL 2
REMARK VINA RESULT:      -8.8      2.013      2.306
REMARK  11 active torsions:
REMARK  status: ('A' for Active; 'I' for Inactive)
REMARK    1  A    between atoms: S_2  and  C_13 
REMARK    2  A    between atoms: O_7  and  C_31 
REMARK    3  A    between atoms: O_7  and  C_34 
REMARK    4  A    between atoms: N_8  and  C_12 
REMARK    5  A    between atoms: N_8  and  C_14 
REMARK    6  A    between atoms: N_9  and  C_24 
REMARK    7  A    between atoms: N_9  and  C_27 
REMARK    8  A    between atoms: C_12  and  C_13 
REMARK    9  A    between atoms: C_14  and  C_15 
REMARK   10  A    between atoms: C_16  and  C_17 
REMARK   11  A    between atoms: C_34  and  C_35 
ROOT
HETATM    1  N   UNK     0     -20.660 -40.175  23.761  0.00  0.00    -0.241 NA
HETATM    2  N   UNK     0     -20.199 -41.719  21.970  0.00  0.00    -0.224 NA
HETATM    3  C   UNK     0     -21.686 -43.330  26.284  0.00  0.00    -0.001 A 
HETATM    4  C   UNK     0     -20.941 -42.529  24.124  0.00  0.00     0.040 A 
HETATM    5  C   UNK     0     -21.288 -43.590  24.977  0.00  0.00     0.032 A 
HETATM    6  C   UNK     0     -20.989 -41.198  24.569  0.00  0.00     0.072 A 
HETATM    7  C   UNK     0     -21.737 -42.016  26.738  0.00  0.00     0.016 A 
HETATM    8  C   UNK     0     -20.535 -42.720  22.806  0.00  0.00     0.142 A 
HETATM    9  C   UNK     0     -21.391 -40.966  25.882  0.00  0.00     0.033 A 
HETATM   10  C   UNK     0     -20.283 -40.492  22.505  0.00  0.00     0.236 A 
ENDROOT
BRANCH   8  11
HETATM   11  N   UNK     0     -20.461 -44.036  22.285  0.00  0.00    -0.340 N 
HETATM   12  H   UNK     0     -21.375 -44.465  22.168  0.00  0.00     0.167 HD
BRANCH  11  13
HETATM   13  C   UNK     0     -19.430 -44.747  21.651  0.00  0.00     0.035 A 
HETATM   14  C   UNK     0     -18.115 -44.614  22.096  0.00  0.00     0.056 A 
HETATM   15  C   UNK     0     -17.091 -45.322  21.465  0.00  0.00     0.069 A 
HETATM   16 Cl   UNK     0     -15.473 -45.140  22.035  0.00  0.00    -0.081 Cl
HETATM   17  C   UNK     0     -17.383 -46.162  20.391  0.00  0.00     0.091 A 
HETATM   18  C   UNK     0     -18.698 -46.295  19.946  0.00  0.00     0.041 A 
HETATM   19  C   UNK     0     -19.722 -45.588  20.576  0.00  0.00     0.032 A 
BRANCH  17  20
HETATM   20  O   UNK     0     -16.402 -46.865  19.755  0.00  0.00    -0.345 OA
BRANCH  20  21
HETATM   21  C   UNK     0     -16.817 -47.821  18.782  0.00  0.00     0.214 C 
BRANCH  21  22
HETATM   22  C   UNK     0     -15.923 -47.717  17.581  0.00  0.00    -0.031 A 
HETATM   23  C   UNK     0     -14.882 -46.789  17.564  0.00  0.00     0.051 A 
HETATM   24  C   UNK     0     -14.052 -46.693  16.448  0.00  0.00     0.117 A 
HETATM   25  F   UNK     0     -13.052 -45.802  16.431  0.00  0.00    -0.206 F 
HETATM   26  C   UNK     0     -14.262 -47.526  15.349  0.00  0.00     0.042 A 
HETATM   27  C   UNK     0     -15.302 -48.455  15.366  0.00  0.00     0.004 A 
HETATM   28  C   UNK     0     -16.133 -48.550  16.482  0.00  0.00     0.009 A 
ENDBRANCH  21  22
ENDBRANCH  20  21
ENDBRANCH  17  20
ENDBRANCH  11  13
ENDBRANCH   8  11
BRANCH   3  29
HETATM   29  C   UNK     0     -22.040 -44.415  27.166  0.00  0.00     0.086 A 
HETATM   30  O   UNK     0     -21.402 -45.592  26.929  0.00  0.00    -0.313 OA
HETATM   31  C   UNK     0     -21.864 -46.477  27.850  0.00  0.00     0.081 A 
HETATM   32  C   UNK     0     -22.791 -45.879  28.672  0.00  0.00     0.037 A 
HETATM   33  C   UNK     0     -22.905 -44.540  28.228  0.00  0.00     0.040 A 
BRANCH  31  34
HETATM   34  C   UNK     0     -21.306 -47.835  27.784  0.00  0.00     0.334 C 
BRANCH  34  35
HETATM   35  N   UNK     0     -21.269 -48.489  29.103  0.00  0.00     0.090 N 
HETATM   36  H   UNK     0     -21.634 -47.839  29.800  0.00  0.00     0.316 HD
BRANCH  35  37
HETATM   37  C   UNK     0     -22.095 -49.682  29.099  0.00  0.00     0.284 C 
BRANCH  37  38
HETATM   38  C   UNK     0     -21.304 -50.894  29.560  0.00  0.00     0.169 C 
BRANCH  38  39
HETATM   39  S   UNK     0     -20.791 -51.882  28.190  0.00  0.00     0.142 S 
HETATM   40  O   UNK     0     -19.444 -51.483  27.820  0.00  0.00    -0.228 OA
HETATM   41  O   UNK     0     -21.091 -53.271  28.494  0.00  0.00    -0.228 OA
HETATM   42  C   UNK     0     -21.882 -51.372  26.883  0.00  0.00     0.161 C 
ENDBRANCH  38  39
ENDBRANCH  37  38
ENDBRANCH  35  37
ENDBRANCH  34  35
ENDBRANCH  31  34
ENDBRANCH   3  29
TORSDOF 11
ENDMDL
MODEL 3
REMARK VINA RESULT:      -8.3      1.797      2.669
REMARK  11 active torsions:
REMARK  status: ('A' for Active; 'I' for Inactive)
REMARK    1  A    between atoms: S_2  and  C_13 
REMARK    2  A    between atoms: O_7  and  C_31 
REMARK    3  A    between atoms: O_7  and  C_34 
REMARK    4  A    between atoms: N_8  and  C_12 
REMARK    5  A    between atoms: N_8  and  C_14 
REMARK    6  A    between atoms: N_9  and  C_24 
REMARK    7  A    between atoms: N_9  and  C_27 
REMARK    8  A    between atoms: C_12  and  C_13 
REMARK    9  A    between atoms: C_14  and  C_15 
REMARK   10  A    between atoms: C_16  and  C_17 
REMARK   11  A    between atoms: C_34  and  C_35 
ROOT
HETATM    1  N   UNK     0     -21.692 -42.108  25.607  0.00  0.00    -0.241 NA
HETATM    2  N   UNK     0     -20.464 -43.159  23.821  0.00  0.00    -0.224 NA
HETATM    3  C   UNK     0     -22.298 -45.806  27.434  0.00  0.00    -0.001 A 
HETATM    4  C   UNK     0     -21.378 -44.486  25.624  0.00  0.00     0.040 A 
HETATM    5  C   UNK     0     -21.584 -45.730  26.242  0.00  0.00     0.032 A 
HETATM    6  C   UNK     0     -21.883 -43.305  26.190  0.00  0.00     0.072 A 
HETATM    7  C   UNK     0     -22.803 -44.643  28.005  0.00  0.00     0.016 A 
HETATM    8  C   UNK     0     -20.673 -44.341  24.432  0.00  0.00     0.142 A 
HETATM    9  C   UNK     0     -22.594 -43.408  27.383  0.00  0.00     0.033 A 
HETATM   10  C   UNK     0     -20.993 -42.101  24.454  0.00  0.00     0.236 A 
ENDROOT
BRANCH   8  11
HETATM   11  N   UNK     0     -20.132 -45.488  23.800  0.00  0.00    -0.340 N 
HETATM   12  H   UNK     0     -20.533 -46.355  24.147  0.00  0.00     0.167 HD
BRANCH  11  13
HETATM   13  C   UNK     0     -19.379 -45.657  22.628  0.00  0.00     0.035 A 
HETATM   14  C   UNK     0     -18.006 -45.406  22.638  0.00  0.00     0.056 A 
HETATM   15  C   UNK     0     -17.259 -45.575  21.472  0.00  0.00     0.069 A 
HETATM   16 Cl   UNK     0     -15.563 -45.257  21.512  0.00  0.00    -0.081 Cl
HETATM   17  C   UNK     0     -17.883 -45.995  20.297  0.00  0.00     0.091 A 
HETATM   18  C   UNK     0     -19.255 -46.246  20.288  0.00  0.00     0.041 A 
HETATM   19  C   UNK     0     -20.003 -46.077  21.453  0.00  0.00     0.032 A 
BRANCH  17  20
HETATM   20  O   UNK     0     -17.177 -46.167  19.143  0.00  0.00    -0.345 OA
BRANCH  20  21
HETATM   21  C   UNK     0     -16.989 -47.506  18.693  0.00  0.00     0.214 C 
BRANCH  21  22
HETATM   22  C   UNK     0     -16.069 -47.499  17.507  0.00  0.00    -0.031 A 
HETATM   23  C   UNK     0     -14.935 -46.688  17.508  0.00  0.00     0.051 A 
HETATM   24  C   UNK     0     -14.081 -46.682  16.405  0.00  0.00     0.117 A 
HETATM   25  F   UNK     0     -12.991 -45.903  16.406  0.00  0.00    -0.206 F 
HETATM   26  C   UNK     0     -14.362 -47.488  15.302  0.00  0.00     0.042 A 
HETATM   27  C   UNK     0     -15.496 -48.300  15.301  0.00  0.00     0.004 A 
HETATM   28  C   UNK     0     -16.350 -48.305  16.403  0.00  0.00     0.009 A 
ENDBRANCH  21  22
ENDBRANCH  20  21
ENDBRANCH  17  20
ENDBRANCH  11  13
ENDBRANCH   8  11
BRANCH   3  29
HETATM   29  C   UNK     0     -22.511 -47.080  28.075  0.00  0.00     0.086 A 
HETATM   30  O   UNK     0     -21.469 -47.950  28.004  0.00  0.00    -0.313 OA
HETATM   31  C   UNK     0     -21.857 -49.076  28.657  0.00  0.00     0.081 A 
HETATM   32  C   UNK     0     -23.137 -48.936  29.142  0.00  0.00     0.037 A 
HETATM   33  C   UNK     0     -23.561 -47.639  28.765  0.00  0.00     0.040 A 
BRANCH  31  34
HETATM   34  C   UNK     0     -20.877 -50.170  28.708  0.00  0.00     0.334 C 
BRANCH  34  35
HETATM   35  N   UNK     0     -21.361 -51.387  28.035  0.00  0.00     0.090 N 
HETATM   36  H   UNK     0     -22.338 -51.532  28.288  0.00  0.00     0.316 HD
BRANCH  35  37
HETATM   37  C   UNK     0     -21.268 -51.238  26.595  0.00  0.00     0.284 C 
BRANCH  37  38
HETATM   38  C   UNK     0     -19.867 -50.823  26.180  0.00  0.00     0.169 C 
BRANCH  38  39
HETATM   39  S   UNK     0     -19.897 -49.851  24.706  0.00  0.00     0.142 S 
HETATM   40  O   UNK     0     -19.764 -48.453  25.080  0.00  0.00    -0.228 OA
HETATM   41  O   UNK     0     -18.983 -50.449  23.748  0.00  0.00    -0.228 OA
HETATM   42  C   UNK     0     -21.548 -50.088  24.092  0.00  0.00     0.161 C 
ENDBRANCH  38  39
ENDBRANCH  37  38
ENDBRANCH  35  37
ENDBRANCH  34  35
ENDBRANCH  31  34
ENDBRANCH   3  29
TORSDOF 11
ENDMDL
