MODEL 1
REMARK VINA RESULT:      -9.4      0.000      0.000
REMARK  11 active torsions:
REMARK  status: ('A' for Active; 'I' for Inactive)
REMARK    1  A    between atoms: S_2  and  C_13 
REMARK    2  A    between atoms: O_7  and  C_31 
REMARK    3  A    between atoms: O_7  and  C_34 
REMARK    4  A    between atoms: N_8  and  C_12 
REMARK    5  A    between atoms: N_8  and  C_14 
REMARK    6  A    between atoms: N_9  and  C_24 
REMARK    7  A    between atoms: N_9  and  C_27 
REMARK    8  A    between atoms: C_12  and  C_13 
REMARK    9  A    between atoms: C_14  and  C_15 
REMARK   10  A    between atoms: C_16  and  C_17 
REMARK   11  A    between atoms: C_34  and  C_35 
ROOT
HETATM    1  N   UNK     0     -32.494 -23.573  24.157  0.00  0.00    -0.241 NA
HETATM    2  N   UNK     0     -31.297 -21.548  24.679  0.00  0.00    -0.224 NA
HETATM    3  C   UNK     0     -33.502 -22.069  20.403  0.00  0.00    -0.001 A 
HETATM    4  C   UNK     0     -32.397 -21.804  22.541  0.00  0.00     0.040 A 
HETATM    5  C   UNK     0     -32.739 -21.300  21.275  0.00  0.00     0.032 A 
HETATM    6  C   UNK     0     -32.815 -23.081  22.948  0.00  0.00     0.072 A 
HETATM    7  C   UNK     0     -33.922 -23.336  20.794  0.00  0.00     0.016 A 
HETATM    8  C   UNK     0     -31.636 -21.087  23.460  0.00  0.00     0.142 A 
HETATM    9  C   UNK     0     -33.578 -23.829  22.056  0.00  0.00     0.033 A 
HETATM   10  C   UNK     0     -31.752 -22.779  24.957  0.00  0.00     0.236 A 
ENDROOT
BRANCH   8  11
HETATM   11  N   UNK     0     -31.177 -19.789  23.121  0.00  0.00    -0.340 N 
HETATM   12  H   UNK     0     -30.376 -19.806  22.497  0.00  0.00     0.167 HD
BRANCH  11  13
HETATM   13  C   UNK     0     -31.758 -18.517  23.244  0.00  0.00     0.035 A 
HETATM   14  C   UNK     0     -31.684 -17.611  22.184  0.00  0.00     0.056 A 
HETATM   15  C   UNK     0     -32.261 -16.347  22.307  0.00  0.00     0.069 A 
HETATM   16 Cl   UNK     0     -32.155 -15.246  20.983  0.00  0.00    -0.081 Cl
HETATM   17  C   UNK     0     -32.913 -15.989  23.488  0.00  0.00     0.091 A 
HETATM   18  C   UNK     0     -32.987 -16.895  24.546  0.00  0.00     0.041 A 
HETATM   19  C   UNK     0     -32.409 -18.159  24.424  0.00  0.00     0.032 A 
BRANCH  17  20
HETATM   20  O   UNK     0     -33.485 -14.761  23.635  0.00  0.00    -0.345 OA
BRANCH  20  21
HETATM   21  C   UNK     0     -32.872 -13.867  24.560  0.00  0.00     0.214 C 
BRANCH  21  22
HETATM   22  C   UNK     0     -33.014 -12.462  24.052  0.00  0.00    -0.031 A 
HETATM   23  C   UNK     0     -33.093 -11.399  24.952  0.00  0.00     0.051 A 
HETATM   24  C   UNK     0     -33.225 -10.094  24.479  0.00  0.00     0.117 A 
HETATM   25  F   UNK     0     -33.301  -9.073  25.342  0.00  0.00    -0.206 F 
HETATM   26  C   UNK     0     -33.277  -9.852  23.106  0.00  0.00     0.042 A 
HETATM   27  C   UNK     0     -33.197 -10.914  22.206  0.00  0.00     0.004 A 
HETATM   28  C   UNK     0     -33.066 -12.219  22.679  0.00  0.00     0.009 A 
ENDBRANCH  21  22
ENDBRANCH  20  21
ENDBRANCH  17  20
ENDBRANCH  11  13
ENDBRANCH   8  11
BRANCH   3  29
HETATM   29  C   UNK     0     -33.855 -21.558  19.101  0.00  0.00     0.086 A 
HETATM   30  O   UNK     0     -34.551 -20.391  19.101  0.00  0.00    -0.313 OA
HETATM   31  C   UNK     0     -34.785 -20.077  17.800  0.00  0.00     0.081 A 
HETATM   32  C   UNK     0     -34.247 -21.032  16.969  0.00  0.00     0.037 A 
HETATM   33  C   UNK     0     -33.642 -21.993  17.814  0.00  0.00     0.040 A 
BRANCH  31  34
HETATM   34  C   UNK     0     -35.535 -18.837  17.554  0.00  0.00     0.334 C 
BRANCH  34  35
HETATM   35  N   UNK     0     -36.529 -18.989  16.478  0.00  0.00     0.090 N 
HETATM   36  H   UNK     0     -36.721 -19.982  16.350  0.00  0.00     0.316 HD
BRANCH  35  37
HETATM   37  C   UNK     0     -37.764 -18.316  16.833  0.00  0.00     0.284 C 
BRANCH  37  38
HETATM   38  C   UNK     0     -37.979 -17.082  15.974  0.00  0.00     0.169 C 
BRANCH  38  39
HETATM   39  S   UNK     0     -38.406 -17.522  14.318  0.00  0.00     0.142 S 
HETATM   40  O   UNK     0     -38.843 -16.322  13.626  0.00  0.00    -0.228 OA
HETATM   41  O   UNK     0     -37.335 -18.340  13.774  0.00  0.00    -0.228 OA
HETATM   42  C   UNK     0     -39.827 -18.570  14.525  0.00  0.00     0.161 C 
ENDBRANCH  38  39
ENDBRANCH  37  38
ENDBRANCH  35  37
ENDBRANCH  34  35
ENDBRANCH  31  34
ENDBRANCH   3  29
TORSDOF 11
ENDMDL
MODEL 2
REMARK VINA RESULT:      -8.7      2.191      2.741
REMARK  11 active torsions:
REMARK  status: ('A' for Active; 'I' for Inactive)
REMARK    1  A    between atoms: S_2  and  C_13 
REMARK    2  A    between atoms: O_7  and  C_31 
REMARK    3  A    between atoms: O_7  and  C_34 
REMARK    4  A    between atoms: N_8  and  C_12 
REMARK    5  A    between atoms: N_8  and  C_14 
REMARK    6  A    between atoms: N_9  and  C_24 
REMARK    7  A    between atoms: N_9  and  C_27 
REMARK    8  A    between atoms: C_12  and  C_13 
REMARK    9  A    between atoms: C_14  and  C_15 
REMARK   10  A    between atoms: C_16  and  C_17 
REMARK   11  A    between atoms: C_34  and  C_35 
ROOT
HETATM    1  N   UNK     0     -32.774 -23.636  23.884  0.00  0.00    -0.241 NA
HETATM    2  N   UNK     0     -31.478 -21.705  24.513  0.00  0.00    -0.224 NA
HETATM    3  C   UNK     0     -33.697 -21.883  20.216  0.00  0.00    -0.001 A 
HETATM    4  C   UNK     0     -32.584 -21.789  22.365  0.00  0.00     0.040 A 
HETATM    5  C   UNK     0     -32.898 -21.201  21.128  0.00  0.00     0.032 A 
HETATM    6  C   UNK     0     -33.068 -23.063  22.703  0.00  0.00     0.072 A 
HETATM    7  C   UNK     0     -34.181 -23.146  20.539  0.00  0.00     0.016 A 
HETATM    8  C   UNK     0     -31.791 -21.162  23.321  0.00  0.00     0.142 A 
HETATM    9  C   UNK     0     -33.866 -23.724  21.772  0.00  0.00     0.033 A 
HETATM   10  C   UNK     0     -31.996 -22.925  24.725  0.00  0.00     0.236 A 
ENDROOT
BRANCH   8  11
HETATM   11  N   UNK     0     -31.266 -19.873  23.052  0.00  0.00    -0.340 N 
HETATM   12  H   UNK     0     -30.432 -19.901  22.472  0.00  0.00     0.167 HD
BRANCH  11  13
HETATM   13  C   UNK     0     -31.805 -18.584  23.186  0.00  0.00     0.035 A 
HETATM   14  C   UNK     0     -32.814 -18.343  24.120  0.00  0.00     0.056 A 
HETATM   15  C   UNK     0     -33.349 -17.061  24.252  0.00  0.00     0.069 A 
HETATM   16 Cl   UNK     0     -34.595 -16.790  25.414  0.00  0.00    -0.081 Cl
HETATM   17  C   UNK     0     -32.875 -16.021  23.452  0.00  0.00     0.091 A 
HETATM   18  C   UNK     0     -31.866 -16.262  22.520  0.00  0.00     0.041 A 
HETATM   19  C   UNK     0     -31.331 -17.544  22.386  0.00  0.00     0.032 A 
BRANCH  17  20
HETATM   20  O   UNK     0     -33.379 -14.759  23.559  0.00  0.00    -0.345 OA
BRANCH  20  21
HETATM   21  C   UNK     0     -32.905 -13.961  24.641  0.00  0.00     0.214 C 
BRANCH  21  22
HETATM   22  C   UNK     0     -33.018 -12.512  24.268  0.00  0.00    -0.031 A 
HETATM   23  C   UNK     0     -33.113 -11.541  25.264  0.00  0.00     0.051 A 
HETATM   24  C   UNK     0     -33.218 -10.194  24.917  0.00  0.00     0.117 A 
HETATM   25  F   UNK     0     -33.309  -9.261  25.873  0.00  0.00    -0.206 F 
HETATM   26  C   UNK     0     -33.228  -9.819  23.573  0.00  0.00     0.042 A 
HETATM   27  C   UNK     0     -33.134 -10.791  22.577  0.00  0.00     0.004 A 
HETATM   28  C   UNK     0     -33.029 -12.137  22.924  0.00  0.00     0.009 A 
ENDBRANCH  21  22
ENDBRANCH  20  21
ENDBRANCH  17  20
ENDBRANCH  11  13
ENDBRANCH   8  11
BRANCH   3  29
HETATM   29  C   UNK     0     -34.020 -21.286  18.944  0.00  0.00     0.086 A 
HETATM   30  O   UNK     0     -34.879 -20.233  18.995  0.00  0.00    -0.313 OA
HETATM   31  C   UNK     0     -35.056 -19.814  17.715  0.00  0.00     0.081 A 
HETATM   32  C   UNK     0     -34.321 -20.588  16.847  0.00  0.00     0.037 A 
HETATM   33  C   UNK     0     -33.648 -21.543  17.645  0.00  0.00     0.040 A 
BRANCH  31  34
HETATM   34  C   UNK     0     -35.959 -18.670  17.524  0.00  0.00     0.334 C 
BRANCH  34  35
HETATM   35  N   UNK     0     -36.379 -18.070  18.801  0.00  0.00     0.090 N 
HETATM   36  H   UNK     0     -35.552 -17.727  19.288  0.00  0.00     0.316 HD
BRANCH  35  37
HETATM   37  C   UNK     0     -37.278 -16.955  18.564  0.00  0.00     0.284 C 
BRANCH  37  38
HETATM   38  C   UNK     0     -36.826 -15.721  19.326  0.00  0.00     0.169 C 
BRANCH  38  39
HETATM   39  S   UNK     0     -35.078 -15.729  19.579  0.00  0.00     0.142 S 
HETATM   40  O   UNK     0     -34.773 -16.701  20.614  0.00  0.00    -0.228 OA
HETATM   41  O   UNK     0     -34.432 -15.807  18.280  0.00  0.00    -0.228 OA
HETATM   42  C   UNK     0     -34.752 -14.114  20.245  0.00  0.00     0.161 C 
ENDBRANCH  38  39
ENDBRANCH  37  38
ENDBRANCH  35  37
ENDBRANCH  34  35
ENDBRANCH  31  34
ENDBRANCH   3  29
TORSDOF 11
ENDMDL
MODEL 3
REMARK VINA RESULT:      -8.4      4.337      8.712
REMARK  11 active torsions:
REMARK  status: ('A' for Active; 'I' for Inactive)
REMARK    1  A    between atoms: S_2  and  C_13 
REMARK    2  A    between atoms: O_7  and  C_31 
REMARK    3  A    between atoms: O_7  and  C_34 
REMARK    4  A    between atoms: N_8  and  C_12 
REMARK    5  A    between atoms: N_8  and  C_14 
REMARK    6  A    between atoms: N_9  and  C_24 
REMARK    7  A    between atoms: N_9  and  C_27 
REMARK    8  A    between atoms: C_12  and  C_13 
REMARK    9  A    between atoms: C_14  and  C_15 
REMARK   10  A    between atoms: C_16  and  C_17 
REMARK   11  A    between atoms: C_34  and  C_35 
ROOT
HETATM    1  N   UNK     0     -34.361 -25.781  21.191  0.00  0.00    -0.241 NA
HETATM    2  N   UNK     0     -34.202 -24.580  19.109  0.00  0.00    -0.224 NA
HETATM    3  C   UNK     0     -32.956 -22.455  23.274  0.00  0.00    -0.001 A 
HETATM    4  C   UNK     0     -33.579 -23.514  21.187  0.00  0.00     0.040 A 
HETATM    5  C   UNK     0     -33.105 -22.394  21.892  0.00  0.00     0.032 A 
HETATM    6  C   UNK     0     -33.907 -24.704  21.856  0.00  0.00     0.072 A 
HETATM    7  C   UNK     0     -33.278 -23.628  23.949  0.00  0.00     0.016 A 
HETATM    8  C   UNK     0     -33.751 -23.520  19.806  0.00  0.00     0.142 A 
HETATM    9  C   UNK     0     -33.748 -24.737  23.239  0.00  0.00     0.033 A 
HETATM   10  C   UNK     0     -34.483 -25.660  19.854  0.00  0.00     0.236 A 
ENDROOT
BRANCH   8  11
HETATM   11  N   UNK     0     -33.440 -22.354  19.061  0.00  0.00    -0.340 N 
HETATM   12  H   UNK     0     -32.524 -22.398  18.625  0.00  0.00     0.167 HD
BRANCH  11  13
HETATM   13  C   UNK     0     -34.231 -21.296  18.584  0.00  0.00     0.035 A 
HETATM   14  C   UNK     0     -35.220 -20.742  19.398  0.00  0.00     0.056 A 
HETATM   15  C   UNK     0     -36.004 -19.691  18.923  0.00  0.00     0.069 A 
HETATM   16 Cl   UNK     0     -37.220 -19.023  19.949  0.00  0.00    -0.081 Cl
HETATM   17  C   UNK     0     -35.800 -19.195  17.635  0.00  0.00     0.091 A 
HETATM   18  C   UNK     0     -34.812 -19.749  16.822  0.00  0.00     0.041 A 
HETATM   19  C   UNK     0     -34.027 -20.800  17.296  0.00  0.00     0.032 A 
BRANCH  17  20
HETATM   20  O   UNK     0     -36.553 -18.169  17.145  0.00  0.00    -0.345 OA
BRANCH  20  21
HETATM   21  C   UNK     0     -37.179 -18.371  15.881  0.00  0.00     0.214 C 
BRANCH  21  22
HETATM   22  C   UNK     0     -38.629 -18.693  16.097  0.00  0.00    -0.031 A 
HETATM   23  C   UNK     0     -39.315 -19.478  15.170  0.00  0.00     0.051 A 
HETATM   24  C   UNK     0     -40.661 -19.777  15.372  0.00  0.00     0.117 A 
HETATM   25  F   UNK     0     -41.321 -20.531  14.483  0.00  0.00    -0.206 F 
HETATM   26  C   UNK     0     -41.322 -19.292  16.500  0.00  0.00     0.042 A 
HETATM   27  C   UNK     0     -40.636 -18.507  17.427  0.00  0.00     0.004 A 
HETATM   28  C   UNK     0     -39.289 -18.208  17.226  0.00  0.00     0.009 A 
ENDBRANCH  21  22
ENDBRANCH  20  21
ENDBRANCH  17  20
ENDBRANCH  11  13
ENDBRANCH   8  11
BRANCH   3  29
HETATM   29  C   UNK     0     -32.472 -21.308  24.004  0.00  0.00     0.086 A 
HETATM   30  O   UNK     0     -33.433 -20.482  24.495  0.00  0.00    -0.313 OA
HETATM   31  C   UNK     0     -32.788 -19.477  25.142  0.00  0.00     0.081 A 
HETATM   32  C   UNK     0     -31.425 -19.651  25.069  0.00  0.00     0.037 A 
HETATM   33  C   UNK     0     -31.221 -20.841  24.331  0.00  0.00     0.040 A 
BRANCH  31  34
HETATM   34  C   UNK     0     -33.638 -18.449  25.760  0.00  0.00     0.334 C 
BRANCH  34  35
HETATM   35  N   UNK     0     -33.180 -17.084  25.452  0.00  0.00     0.090 N 
HETATM   36  H   UNK     0     -32.383 -17.143  24.817  0.00  0.00     0.316 HD
BRANCH  35  37
HETATM   37  C   UNK     0     -34.238 -16.331  24.804  0.00  0.00     0.284 C 
BRANCH  37  38
HETATM   38  C   UNK     0     -33.667 -15.190  23.980  0.00  0.00     0.169 C 
BRANCH  38  39
HETATM   39  S   UNK     0     -32.641 -15.793  22.676  0.00  0.00     0.142 S 
HETATM   40  O   UNK     0     -31.295 -15.286  22.884  0.00  0.00    -0.228 OA
HETATM   41  O   UNK     0     -32.878 -17.220  22.533  0.00  0.00    -0.228 OA
HETATM   42  C   UNK     0     -33.300 -14.993  21.231  0.00  0.00     0.161 C 
ENDBRANCH  38  39
ENDBRANCH  37  38
ENDBRANCH  35  37
ENDBRANCH  34  35
ENDBRANCH  31  34
ENDBRANCH   3  29
TORSDOF 11
ENDMDL
