MODEL 1
REMARK VINA RESULT:      -8.6      0.000      0.000
REMARK  11 active torsions:
REMARK  status: ('A' for Active; 'I' for Inactive)
REMARK    1  A    between atoms: S_2  and  C_13 
REMARK    2  A    between atoms: O_7  and  C_31 
REMARK    3  A    between atoms: O_7  and  C_34 
REMARK    4  A    between atoms: N_8  and  C_12 
REMARK    5  A    between atoms: N_8  and  C_14 
REMARK    6  A    between atoms: N_9  and  C_24 
REMARK    7  A    between atoms: N_9  and  C_27 
REMARK    8  A    between atoms: C_12  and  C_13 
REMARK    9  A    between atoms: C_14  and  C_15 
REMARK   10  A    between atoms: C_16  and  C_17 
REMARK   11  A    between atoms: C_34  and  C_35 
ROOT
HETATM    1  N   UNK     0     -25.237  36.722  49.711  0.00  0.00    -0.241 NA
HETATM    2  N   UNK     0     -24.274  36.319  47.540  0.00  0.00    -0.224 NA
HETATM    3  C   UNK     0     -24.799  40.836  49.196  0.00  0.00    -0.001 A 
HETATM    4  C   UNK     0     -24.534  38.577  48.363  0.00  0.00     0.040 A 
HETATM    5  C   UNK     0     -24.388  39.964  48.192  0.00  0.00     0.032 A 
HETATM    6  C   UNK     0     -25.092  38.048  49.537  0.00  0.00     0.072 A 
HETATM    7  C   UNK     0     -25.353  40.324  50.364  0.00  0.00     0.016 A 
HETATM    8  C   UNK     0     -24.144  37.652  47.399  0.00  0.00     0.142 A 
HETATM    9  C   UNK     0     -25.494  38.942  50.526  0.00  0.00     0.033 A 
HETATM   10  C   UNK     0     -24.819  35.930  48.703  0.00  0.00     0.236 A 
ENDROOT
BRANCH   8  11
HETATM   11  N   UNK     0     -23.573  38.110  46.185  0.00  0.00    -0.340 N 
HETATM   12  H   UNK     0     -24.008  38.962  45.842  0.00  0.00     0.167 HD
BRANCH  11  13
HETATM   13  C   UNK     0     -22.376  37.795  45.523  0.00  0.00     0.035 A 
HETATM   14  C   UNK     0     -21.167  37.817  46.219  0.00  0.00     0.056 A 
HETATM   15  C   UNK     0     -19.978  37.503  45.560  0.00  0.00     0.069 A 
HETATM   16 Cl   UNK     0     -18.496  37.539  46.443  0.00  0.00    -0.081 Cl
HETATM   17  C   UNK     0     -19.999  37.166  44.206  0.00  0.00     0.091 A 
HETATM   18  C   UNK     0     -21.208  37.143  43.511  0.00  0.00     0.041 A 
HETATM   19  C   UNK     0     -22.397  37.457  44.169  0.00  0.00     0.032 A 
BRANCH  17  20
HETATM   20  O   UNK     0     -18.852  36.855  43.536  0.00  0.00    -0.345 OA
BRANCH  20  21
HETATM   21  C   UNK     0     -18.656  37.471  42.266  0.00  0.00     0.214 C 
BRANCH  21  22
HETATM   22  C   UNK     0     -17.899  36.530  41.376  0.00  0.00    -0.031 A 
HETATM   23  C   UNK     0     -17.377  35.346  41.896  0.00  0.00     0.051 A 
HETATM   24  C   UNK     0     -16.673  34.472  41.069  0.00  0.00     0.117 A 
HETATM   25  F   UNK     0     -16.171  33.334  41.567  0.00  0.00    -0.206 F 
HETATM   26  C   UNK     0     -16.493  34.781  39.720  0.00  0.00     0.042 A 
HETATM   27  C   UNK     0     -17.015  35.965  39.200  0.00  0.00     0.004 A 
HETATM   28  C   UNK     0     -17.719  36.840  40.028  0.00  0.00     0.009 A 
ENDBRANCH  21  22
ENDBRANCH  20  21
ENDBRANCH  17  20
ENDBRANCH  11  13
ENDBRANCH   8  11
BRANCH   3  29
HETATM   29  C   UNK     0     -24.653  42.261  49.026  0.00  0.00     0.086 A 
HETATM   30  O   UNK     0     -25.733  42.899  48.504  0.00  0.00    -0.313 OA
HETATM   31  C   UNK     0     -25.405  44.215  48.423  0.00  0.00     0.081 A 
HETATM   32  C   UNK     0     -24.128  44.424  48.887  0.00  0.00     0.037 A 
HETATM   33  C   UNK     0     -23.639  43.155  49.280  0.00  0.00     0.040 A 
BRANCH  31  34
HETATM   34  C   UNK     0     -26.436  45.110  47.878  0.00  0.00     0.334 C 
BRANCH  34  35
HETATM   35  N   UNK     0     -25.971  45.837  46.685  0.00  0.00     0.090 N 
HETATM   36  H   UNK     0     -25.912  45.181  45.906  0.00  0.00     0.316 HD
BRANCH  35  37
HETATM   37  C   UNK     0     -26.907  46.891  46.339  0.00  0.00     0.284 C 
BRANCH  37  38
HETATM   38  C   UNK     0     -26.820  48.042  47.325  0.00  0.00     0.169 C 
BRANCH  38  39
HETATM   39  S   UNK     0     -28.314  48.982  47.347  0.00  0.00     0.142 S 
HETATM   40  O   UNK     0     -29.419  48.074  47.606  0.00  0.00    -0.228 OA
HETATM   41  O   UNK     0     -28.106  50.149  48.187  0.00  0.00    -0.228 OA
HETATM   42  C   UNK     0     -28.467  49.549  45.669  0.00  0.00     0.161 C 
ENDBRANCH  38  39
ENDBRANCH  37  38
ENDBRANCH  35  37
ENDBRANCH  34  35
ENDBRANCH  31  34
ENDBRANCH   3  29
TORSDOF 11
ENDMDL
MODEL 2
REMARK VINA RESULT:      -8.5      2.887      3.574
REMARK  11 active torsions:
REMARK  status: ('A' for Active; 'I' for Inactive)
REMARK    1  A    between atoms: S_2  and  C_13 
REMARK    2  A    between atoms: O_7  and  C_31 
REMARK    3  A    between atoms: O_7  and  C_34 
REMARK    4  A    between atoms: N_8  and  C_12 
REMARK    5  A    between atoms: N_8  and  C_14 
REMARK    6  A    between atoms: N_9  and  C_24 
REMARK    7  A    between atoms: N_9  and  C_27 
REMARK    8  A    between atoms: C_12  and  C_13 
REMARK    9  A    between atoms: C_14  and  C_15 
REMARK   10  A    between atoms: C_16  and  C_17 
REMARK   11  A    between atoms: C_34  and  C_35 
ROOT
HETATM    1  N   UNK     0     -24.797  36.304  49.473  0.00  0.00    -0.241 NA
HETATM    2  N   UNK     0     -23.809  36.152  47.280  0.00  0.00    -0.224 NA
HETATM    3  C   UNK     0     -24.886  40.462  49.199  0.00  0.00    -0.001 A 
HETATM    4  C   UNK     0     -24.345  38.308  48.234  0.00  0.00     0.040 A 
HETATM    5  C   UNK     0     -24.377  39.709  48.146  0.00  0.00     0.032 A 
HETATM    6  C   UNK     0     -24.822  37.645  49.377  0.00  0.00     0.072 A 
HETATM    7  C   UNK     0     -25.361  39.817  50.336  0.00  0.00     0.016 A 
HETATM    8  C   UNK     0     -23.850  37.496  47.217  0.00  0.00     0.142 A 
HETATM    9  C   UNK     0     -25.325  38.422  50.417  0.00  0.00     0.033 A 
HETATM   10  C   UNK     0     -24.291  35.631  48.419  0.00  0.00     0.236 A 
ENDROOT
BRANCH   8  11
HETATM   11  N   UNK     0     -23.351  38.093  46.032  0.00  0.00    -0.340 N 
HETATM   12  H   UNK     0     -23.907  38.887  45.728  0.00  0.00     0.167 HD
BRANCH  11  13
HETATM   13  C   UNK     0     -22.120  37.990  45.365  0.00  0.00     0.035 A 
HETATM   14  C   UNK     0     -20.935  38.291  46.037  0.00  0.00     0.056 A 
HETATM   15  C   UNK     0     -19.713  38.188  45.373  0.00  0.00     0.069 A 
HETATM   16 Cl   UNK     0     -18.261  38.566  46.226  0.00  0.00    -0.081 Cl
HETATM   17  C   UNK     0     -19.675  37.783  44.038  0.00  0.00     0.091 A 
HETATM   18  C   UNK     0     -20.860  37.482  43.367  0.00  0.00     0.041 A 
HETATM   19  C   UNK     0     -22.083  37.585  44.030  0.00  0.00     0.032 A 
BRANCH  17  20
HETATM   20  O   UNK     0     -18.495  37.674  43.364  0.00  0.00    -0.345 OA
BRANCH  20  21
HETATM   21  C   UNK     0     -18.524  37.922  41.961  0.00  0.00     0.214 C 
BRANCH  21  22
HETATM   22  C   UNK     0     -17.934  36.745  41.243  0.00  0.00    -0.031 A 
HETATM   23  C   UNK     0     -17.627  35.580  41.946  0.00  0.00     0.051 A 
HETATM   24  C   UNK     0     -17.077  34.487  41.278  0.00  0.00     0.117 A 
HETATM   25  F   UNK     0     -16.783  33.368  41.952  0.00  0.00    -0.206 F 
HETATM   26  C   UNK     0     -16.835  34.558  39.906  0.00  0.00     0.042 A 
HETATM   27  C   UNK     0     -17.142  35.723  39.202  0.00  0.00     0.004 A 
HETATM   28  C   UNK     0     -17.691  36.816  39.871  0.00  0.00     0.009 A 
ENDBRANCH  21  22
ENDBRANCH  20  21
ENDBRANCH  17  20
ENDBRANCH  11  13
ENDBRANCH   8  11
BRANCH   3  29
HETATM   29  C   UNK     0     -24.923  41.901  49.113  0.00  0.00     0.086 A 
HETATM   30  O   UNK     0     -23.715  42.509  48.971  0.00  0.00    -0.313 OA
HETATM   31  C   UNK     0     -23.956  43.844  48.908  0.00  0.00     0.081 A 
HETATM   32  C   UNK     0     -25.304  44.097  49.010  0.00  0.00     0.037 A 
HETATM   33  C   UNK     0     -25.932  42.835  49.142  0.00  0.00     0.040 A 
BRANCH  31  34
HETATM   34  C   UNK     0     -22.780  44.711  48.754  0.00  0.00     0.334 C 
BRANCH  34  35
HETATM   35  N   UNK     0     -21.543  43.942  48.536  0.00  0.00     0.090 N 
HETATM   36  H   UNK     0     -21.793  43.001  48.233  0.00  0.00     0.316 HD
BRANCH  35  37
HETATM   37  C   UNK     0     -20.735  44.566  47.504  0.00  0.00     0.284 C 
BRANCH  37  38
HETATM   38  C   UNK     0     -19.543  45.288  48.108  0.00  0.00     0.169 C 
BRANCH  38  39
HETATM   39  S   UNK     0     -19.869  47.012  48.299  0.00  0.00     0.142 S 
HETATM   40  O   UNK     0     -18.619  47.733  48.125  0.00  0.00    -0.228 OA
HETATM   41  O   UNK     0     -21.032  47.347  47.495  0.00  0.00    -0.228 OA
HETATM   42  C   UNK     0     -20.339  47.155  50.007  0.00  0.00     0.161 C 
ENDBRANCH  38  39
ENDBRANCH  37  38
ENDBRANCH  35  37
ENDBRANCH  34  35
ENDBRANCH  31  34
ENDBRANCH   3  29
TORSDOF 11
ENDMDL
MODEL 3
REMARK VINA RESULT:      -8.1      6.605      8.838
REMARK  11 active torsions:
REMARK  status: ('A' for Active; 'I' for Inactive)
REMARK    1  A    between atoms: S_2  and  C_13 
REMARK    2  A    between atoms: O_7  and  C_31 
REMARK    3  A    between atoms: O_7  and  C_34 
REMARK    4  A    between atoms: N_8  and  C_12 
REMARK    5  A    between atoms: N_8  and  C_14 
REMARK    6  A    between atoms: N_9  and  C_24 
REMARK    7  A    between atoms: N_9  and  C_27 
REMARK    8  A    between atoms: C_12  and  C_13 
REMARK    9  A    between atoms: C_14  and  C_15 
REMARK   10  A    between atoms: C_16  and  C_17 
REMARK   11  A    between atoms: C_34  and  C_35 
ROOT
HETATM    1  N   UNK     0     -26.528  35.605  48.817  0.00  0.00    -0.241 NA
HETATM    2  N   UNK     0     -25.125  37.284  47.808  0.00  0.00    -0.224 NA
HETATM    3  C   UNK     0     -23.184  33.284  49.718  0.00  0.00    -0.001 A 
HETATM    4  C   UNK     0     -24.151  35.288  48.761  0.00  0.00     0.040 A 
HETATM    5  C   UNK     0     -23.026  34.503  49.066  0.00  0.00     0.032 A 
HETATM    6  C   UNK     0     -25.444  34.862  49.104  0.00  0.00     0.072 A 
HETATM    7  C   UNK     0     -24.460  32.852  50.064  0.00  0.00     0.016 A 
HETATM    8  C   UNK     0     -24.062  36.516  48.111  0.00  0.00     0.142 A 
HETATM    9  C   UNK     0     -25.574  33.638  49.756  0.00  0.00     0.033 A 
HETATM   10  C   UNK     0     -26.308  36.776  48.184  0.00  0.00     0.236 A 
ENDROOT
BRANCH   8  11
HETATM   11  N   UNK     0     -22.790  37.012  47.733  0.00  0.00    -0.340 N 
HETATM   12  H   UNK     0     -22.225  37.294  48.529  0.00  0.00     0.167 HD
BRANCH  11  13
HETATM   13  C   UNK     0     -22.061  36.936  46.536  0.00  0.00     0.035 A 
HETATM   14  C   UNK     0     -21.149  35.898  46.338  0.00  0.00     0.056 A 
HETATM   15  C   UNK     0     -20.425  35.823  45.148  0.00  0.00     0.069 A 
HETATM   16 Cl   UNK     0     -19.305  34.530  44.929  0.00  0.00    -0.081 Cl
HETATM   17  C   UNK     0     -20.613  36.786  44.156  0.00  0.00     0.091 A 
HETATM   18  C   UNK     0     -21.525  37.823  44.353  0.00  0.00     0.041 A 
HETATM   19  C   UNK     0     -22.248  37.899  45.543  0.00  0.00     0.032 A 
BRANCH  17  20
HETATM   20  O   UNK     0     -19.919  36.738  42.983  0.00  0.00    -0.345 OA
BRANCH  20  21
HETATM   21  C   UNK     0     -18.524  37.023  43.043  0.00  0.00     0.214 C 
BRANCH  21  22
HETATM   22  C   UNK     0     -17.805  36.169  42.041  0.00  0.00    -0.031 A 
HETATM   23  C   UNK     0     -17.706  36.585  40.713  0.00  0.00     0.051 A 
HETATM   24  C   UNK     0     -17.038  35.791  39.782  0.00  0.00     0.117 A 
HETATM   25  F   UNK     0     -16.942  36.190  38.507  0.00  0.00    -0.206 F 
HETATM   26  C   UNK     0     -16.469  34.580  40.178  0.00  0.00     0.042 A 
HETATM   27  C   UNK     0     -16.568  34.164  41.505  0.00  0.00     0.004 A 
HETATM   28  C   UNK     0     -17.236  34.958  42.437  0.00  0.00     0.009 A 
ENDBRANCH  21  22
ENDBRANCH  20  21
ENDBRANCH  17  20
ENDBRANCH  11  13
ENDBRANCH   8  11
BRANCH   3  29
HETATM   29  C   UNK     0     -22.034  32.475  50.036  0.00  0.00     0.086 A 
HETATM   30  O   UNK     0     -20.829  33.079  49.861  0.00  0.00    -0.313 OA
HETATM   31  C   UNK     0     -19.883  32.169  50.209  0.00  0.00     0.081 A 
HETATM   32  C   UNK     0     -20.470  30.989  50.603  0.00  0.00     0.037 A 
HETATM   33  C   UNK     0     -21.866  31.188  50.492  0.00  0.00     0.040 A 
BRANCH  31  34
HETATM   34  C   UNK     0     -18.485  32.608  50.097  0.00  0.00     0.334 C 
BRANCH  34  35
HETATM   35  N   UNK     0     -18.265  33.481  48.932  0.00  0.00     0.090 N 
HETATM   36  H   UNK     0     -19.063  34.109  48.839  0.00  0.00     0.316 HD
BRANCH  35  37
HETATM   37  C   UNK     0     -17.065  34.277  49.117  0.00  0.00     0.284 C 
BRANCH  37  38
HETATM   38  C   UNK     0     -17.029  34.894  50.504  0.00  0.00     0.169 C 
BRANCH  38  39
HETATM   39  S   UNK     0     -18.015  36.357  50.579  0.00  0.00     0.142 S 
HETATM   40  O   UNK     0     -19.396  35.989  50.315  0.00  0.00    -0.228 OA
HETATM   41  O   UNK     0     -17.663  37.082  51.788  0.00  0.00    -0.228 OA
HETATM   42  C   UNK     0     -17.439  37.312  49.195  0.00  0.00     0.161 C 
ENDBRANCH  38  39
ENDBRANCH  37  38
ENDBRANCH  35  37
ENDBRANCH  34  35
ENDBRANCH  31  34
ENDBRANCH   3  29
TORSDOF 11
ENDMDL
