MODEL 1
REMARK VINA RESULT:      -6.4      0.000      0.000
REMARK  9 active torsions:
REMARK  status: ('A' for Active; 'I' for Inactive)
REMARK    1  A    between atoms: O_1  and  C_9 
REMARK    2  A    between atoms: O_1  and  C_13 
REMARK    3  A    between atoms: O_2  and  C_16 
REMARK    4  A    between atoms: O_2  and  C_21 
REMARK    5  A    between atoms: N_5  and  C_7 
REMARK       I    between atoms: N_5  and  C_17 
REMARK    6  A    between atoms: N_6  and  C_8 
REMARK    7  A    between atoms: C_12  and  C_16 
REMARK    8  A    between atoms: C_13  and  C_14 
REMARK    9  A    between atoms: C_13  and  C_15 
ROOT
HETATM    1  C   UNK     0      11.695  14.993   2.832  0.00  0.00     0.150 C 
HETATM    2  C   UNK     0      12.837  14.168   3.455  0.00  0.00     0.247 C 
HETATM    3  C   UNK     0      10.384  14.182   2.790  0.00  0.00     0.170 C 
HETATM    4  C   UNK     0      12.469  13.712   4.877  0.00  0.00     0.082 C 
HETATM    5  C   UNK     0      10.139  13.362   4.026  0.00  0.00     0.020 C 
HETATM    6  C   UNK     0      11.076  13.166   4.963  0.00  0.00     0.018 C 
ENDROOT
BRANCH   3   7
HETATM    7  O   UNK     0       9.303  15.101   2.621  0.00  0.00    -0.375 OA
BRANCH   7   8
HETATM    8  C   UNK     0       8.061  14.423   2.520  0.00  0.00     0.121 C 
BRANCH   8   9
HETATM    9  C   UNK     0       7.743  14.212   1.035  0.00  0.00     0.027 C 
HETATM   10  C   UNK     0       8.429  15.241   0.145  0.00  0.00     0.007 C 
ENDBRANCH   8   9
BRANCH   8  11
HETATM   11  C   UNK     0       6.959  15.247   3.198  0.00  0.00     0.027 C 
HETATM   12  C   UNK     0       7.285  15.591   4.645  0.00  0.00     0.007 C 
ENDBRANCH   8  11
ENDBRANCH   7   8
ENDBRANCH   3   7
BRANCH   1  13
HETATM   13  N   UNK     0      12.040  15.433   1.495  0.00  0.00    -0.352 N 
HETATM   14  C   UNK     0      12.723  16.608   1.242  0.00  0.00     0.214 C 
HETATM   15  O   UNK     0      13.115  17.411   2.084  0.00  0.00    -0.274 OA
HETATM   16  C   UNK     0      12.974  16.811  -0.229  0.00  0.00     0.117 C 
HETATM   17  H   UNK     0      11.716  14.874   0.711  0.00  0.00     0.163 HD
ENDBRANCH   1  13
BRANCH   2  18
HETATM   18  N   UNK     0      14.080  14.940   3.511  0.00  0.00     0.085 N 
HETATM   19  H   UNK     0      14.400  15.140   2.564  0.00  0.00     0.313 HD
HETATM   20  H   UNK     0      14.810  14.382   3.951  0.00  0.00     0.313 HD
ENDBRANCH   2  18
BRANCH   6  21
HETATM   21  C   UNK     0      10.717  12.352   6.127  0.00  0.00     0.289 C 
HETATM   22  O   UNK     0      11.467  12.153   7.070  0.00  0.00    -0.260 OA
BRANCH  21  23
HETATM   23  O   UNK     0       9.453  11.888   5.961  0.00  0.00    -0.318 OA
BRANCH  23  24
HETATM   24  C   UNK     0       8.661  11.825   7.151  0.00  0.00     0.174 C 
HETATM   25  C   UNK     0       8.065  13.191   7.420  0.00  0.00     0.034 C 
ENDBRANCH  23  24
ENDBRANCH  21  23
ENDBRANCH   6  21
TORSDOF 9
ENDMDL
MODEL 2
REMARK VINA RESULT:      -6.3      0.951      1.678
REMARK  9 active torsions:
REMARK  status: ('A' for Active; 'I' for Inactive)
REMARK    1  A    between atoms: O_1  and  C_9 
REMARK    2  A    between atoms: O_1  and  C_13 
REMARK    3  A    between atoms: O_2  and  C_16 
REMARK    4  A    between atoms: O_2  and  C_21 
REMARK    5  A    between atoms: N_5  and  C_7 
REMARK       I    between atoms: N_5  and  C_17 
REMARK    6  A    between atoms: N_6  and  C_8 
REMARK    7  A    between atoms: C_12  and  C_16 
REMARK    8  A    between atoms: C_13  and  C_14 
REMARK    9  A    between atoms: C_13  and  C_15 
ROOT
HETATM    1  C   UNK     0      11.705  14.996   2.823  0.00  0.00     0.150 C 
HETATM    2  C   UNK     0      12.852  14.179   3.447  0.00  0.00     0.247 C 
HETATM    3  C   UNK     0      10.396  14.180   2.794  0.00  0.00     0.170 C 
HETATM    4  C   UNK     0      12.492  13.733   4.875  0.00  0.00     0.082 C 
HETATM    5  C   UNK     0      10.159  13.369   4.037  0.00  0.00     0.020 C 
HETATM    6  C   UNK     0      11.101  13.183   4.971  0.00  0.00     0.018 C 
ENDROOT
BRANCH   3   7
HETATM    7  O   UNK     0       9.311  15.095   2.622  0.00  0.00    -0.375 OA
BRANCH   7   8
HETATM    8  C   UNK     0       8.074  14.410   2.503  0.00  0.00     0.121 C 
BRANCH   8   9
HETATM    9  C   UNK     0       7.792  14.173   1.015  0.00  0.00     0.027 C 
HETATM   10  C   UNK     0       8.365  15.276   0.135  0.00  0.00     0.007 C 
ENDBRANCH   8   9
BRANCH   8  11
HETATM   11  C   UNK     0       6.955  15.243   3.140  0.00  0.00     0.027 C 
HETATM   12  C   UNK     0       7.217  15.563   4.606  0.00  0.00     0.007 C 
ENDBRANCH   8  11
ENDBRANCH   7   8
ENDBRANCH   3   7
BRANCH   1  13
HETATM   13  N   UNK     0      12.043  15.426   1.481  0.00  0.00    -0.352 N 
HETATM   14  C   UNK     0      12.702  16.611   1.214  0.00  0.00     0.214 C 
HETATM   15  O   UNK     0      13.078  17.432   2.047  0.00  0.00    -0.274 OA
HETATM   16  C   UNK     0      12.951  16.801  -0.258  0.00  0.00     0.117 C 
HETATM   17  H   UNK     0      11.730  14.851   0.704  0.00  0.00     0.163 HD
ENDBRANCH   1  13
BRANCH   2  18
HETATM   18  N   UNK     0      14.093  14.955   3.491  0.00  0.00     0.085 N 
HETATM   19  H   UNK     0      13.946  15.858   3.044  0.00  0.00     0.313 HD
HETATM   20  H   UNK     0      14.815  14.478   2.952  0.00  0.00     0.313 HD
ENDBRANCH   2  18
BRANCH   6  21
HETATM   21  C   UNK     0      10.750  12.378   6.143  0.00  0.00     0.289 C 
HETATM   22  O   UNK     0       9.725  12.536   6.789  0.00  0.00    -0.260 OA
BRANCH  21  23
HETATM   23  O   UNK     0      11.734  11.469   6.357  0.00  0.00    -0.318 OA
BRANCH  23  24
HETATM   24  C   UNK     0      11.558  10.208   5.703  0.00  0.00     0.174 C 
HETATM   25  C   UNK     0      12.847   9.832   5.004  0.00  0.00     0.034 C 
ENDBRANCH  23  24
ENDBRANCH  21  23
ENDBRANCH   6  21
TORSDOF 9
ENDMDL
MODEL 3
REMARK VINA RESULT:      -6.3      2.081      5.375
REMARK  9 active torsions:
REMARK  status: ('A' for Active; 'I' for Inactive)
REMARK    1  A    between atoms: O_1  and  C_9 
REMARK    2  A    between atoms: O_1  and  C_13 
REMARK    3  A    between atoms: O_2  and  C_16 
REMARK    4  A    between atoms: O_2  and  C_21 
REMARK    5  A    between atoms: N_5  and  C_7 
REMARK       I    between atoms: N_5  and  C_17 
REMARK    6  A    between atoms: N_6  and  C_8 
REMARK    7  A    between atoms: C_12  and  C_16 
REMARK    8  A    between atoms: C_13  and  C_14 
REMARK    9  A    between atoms: C_13  and  C_15 
ROOT
HETATM    1  C   UNK     0      11.297  12.914   4.296  0.00  0.00     0.150 C 
HETATM    2  C   UNK     0      12.719  13.406   4.625  0.00  0.00     0.247 C 
HETATM    3  C   UNK     0      10.277  14.068   4.387  0.00  0.00     0.170 C 
HETATM    4  C   UNK     0      13.140  14.540   3.675  0.00  0.00     0.082 C 
HETATM    5  C   UNK     0      10.780  15.367   3.821  0.00  0.00     0.020 C 
HETATM    6  C   UNK     0      12.063  15.566   3.494  0.00  0.00     0.018 C 
ENDROOT
BRANCH   3   7
HETATM    7  O   UNK     0       9.103  13.674   3.673  0.00  0.00    -0.375 OA
BRANCH   7   8
HETATM    8  C   UNK     0       8.684  14.688   2.773  0.00  0.00     0.121 C 
BRANCH   8   9
HETATM    9  C   UNK     0       7.257  15.107   3.145  0.00  0.00     0.027 C 
HETATM   10  C   UNK     0       7.139  15.525   4.605  0.00  0.00     0.007 C 
ENDBRANCH   8   9
BRANCH   8  11
HETATM   11  C   UNK     0       8.735  14.160   1.334  0.00  0.00     0.027 C 
HETATM   12  C   UNK     0       8.692  15.273   0.295  0.00  0.00     0.007 C 
ENDBRANCH   8  11
ENDBRANCH   7   8
ENDBRANCH   3   7
BRANCH   1  13
HETATM   13  N   UNK     0      10.900  11.839   5.182  0.00  0.00    -0.352 N 
HETATM   14  C   UNK     0      10.993  10.504   4.836  0.00  0.00     0.214 C 
HETATM   15  O   UNK     0      11.409  10.062   3.768  0.00  0.00    -0.274 OA
HETATM   16  C   UNK     0      10.538   9.598   5.949  0.00  0.00     0.117 C 
HETATM   17  H   UNK     0      10.485  12.088   6.076  0.00  0.00     0.163 HD
ENDBRANCH   1  13
BRANCH   2  18
HETATM   18  N   UNK     0      13.694  12.317   4.525  0.00  0.00     0.085 N 
HETATM   19  H   UNK     0      14.628  12.706   4.412  0.00  0.00     0.313 HD
HETATM   20  H   UNK     0      13.506  11.765   3.689  0.00  0.00     0.313 HD
ENDBRANCH   2  18
BRANCH   6  21
HETATM   21  C   UNK     0      12.432  16.874   2.947  0.00  0.00     0.289 C 
HETATM   22  O   UNK     0      13.203  17.644   3.498  0.00  0.00    -0.260 OA
BRANCH  21  23
HETATM   23  O   UNK     0      11.783  17.051   1.768  0.00  0.00    -0.318 OA
BRANCH  23  24
HETATM   24  C   UNK     0      12.513  16.661   0.601  0.00  0.00     0.174 C 
HETATM   25  C   UNK     0      11.751  17.106  -0.629  0.00  0.00     0.034 C 
ENDBRANCH  23  24
ENDBRANCH  21  23
ENDBRANCH   6  21
TORSDOF 9
ENDMDL
