MODEL 1
REMARK VINA RESULT:      -6.5      0.000      0.000
REMARK  9 active torsions:
REMARK  status: ('A' for Active; 'I' for Inactive)
REMARK    1  A    between atoms: O_1  and  C_9 
REMARK    2  A    between atoms: O_1  and  C_13 
REMARK    3  A    between atoms: O_2  and  C_16 
REMARK    4  A    between atoms: O_2  and  C_21 
REMARK    5  A    between atoms: N_5  and  C_7 
REMARK       I    between atoms: N_5  and  C_17 
REMARK    6  A    between atoms: N_6  and  C_8 
REMARK    7  A    between atoms: C_12  and  C_16 
REMARK    8  A    between atoms: C_13  and  C_14 
REMARK    9  A    between atoms: C_13  and  C_15 
ROOT
HETATM    1  C   UNK     0     -26.974 -16.209  26.108  0.00  0.00     0.150 C 
HETATM    2  C   UNK     0     -25.757 -16.660  25.280  0.00  0.00     0.247 C 
HETATM    3  C   UNK     0     -26.531 -15.560  27.436  0.00  0.00     0.170 C 
HETATM    4  C   UNK     0     -24.825 -15.472  24.984  0.00  0.00     0.082 C 
HETATM    5  C   UNK     0     -25.332 -14.662  27.301  0.00  0.00     0.020 C 
HETATM    6  C   UNK     0     -24.580 -14.621  26.194  0.00  0.00     0.018 C 
ENDROOT
BRANCH   3   7
HETATM    7  O   UNK     0     -27.628 -14.795  27.939  0.00  0.00    -0.375 OA
BRANCH   7   8
HETATM    8  C   UNK     0     -27.483 -14.536  29.326  0.00  0.00     0.121 C 
BRANCH   8   9
HETATM    9  C   UNK     0     -27.597 -15.864  30.083  0.00  0.00     0.027 C 
HETATM   10  C   UNK     0     -26.537 -16.005  31.168  0.00  0.00     0.007 C 
ENDBRANCH   8   9
BRANCH   8  11
HETATM   11  C   UNK     0     -28.565 -13.553  29.790  0.00  0.00     0.027 C 
HETATM   12  C   UNK     0     -29.916 -13.811  29.135  0.00  0.00     0.007 C 
ENDBRANCH   8  11
ENDBRANCH   7   8
ENDBRANCH   3   7
BRANCH   1  13
HETATM   13  N   UNK     0     -27.859 -17.323  26.381  0.00  0.00    -0.352 N 
HETATM   14  C   UNK     0     -29.192 -17.333  26.015  0.00  0.00     0.214 C 
HETATM   15  O   UNK     0     -29.787 -16.432  25.429  0.00  0.00    -0.274 OA
HETATM   16  C   UNK     0     -29.874 -18.621  26.394  0.00  0.00     0.117 C 
HETATM   17  H   UNK     0     -27.490 -18.106  26.913  0.00  0.00     0.163 HD
ENDBRANCH   1  13
BRANCH   2  18
HETATM   18  N   UNK     0     -26.172 -17.264  24.011  0.00  0.00     0.085 N 
HETATM   19  H   UNK     0     -26.391 -18.248  24.158  0.00  0.00     0.313 HD
HETATM   20  H   UNK     0     -25.399 -17.234  23.348  0.00  0.00     0.313 HD
ENDBRANCH   2  18
BRANCH   6  21
HETATM   21  C   UNK     0     -23.439 -13.702  26.179  0.00  0.00     0.289 C 
HETATM   22  O   UNK     0     -22.731 -13.488  27.151  0.00  0.00    -0.260 OA
BRANCH  21  23
HETATM   23  O   UNK     0     -23.328 -13.166  24.938  0.00  0.00    -0.318 OA
BRANCH  23  24
HETATM   24  C   UNK     0     -24.148 -12.020  24.689  0.00  0.00     0.174 C 
HETATM   25  C   UNK     0     -23.260 -10.840  24.356  0.00  0.00     0.034 C 
ENDBRANCH  23  24
ENDBRANCH  21  23
ENDBRANCH   6  21
TORSDOF 9
ENDMDL
MODEL 2
REMARK VINA RESULT:      -6.4      3.223      4.608
REMARK  9 active torsions:
REMARK  status: ('A' for Active; 'I' for Inactive)
REMARK    1  A    between atoms: O_1  and  C_9 
REMARK    2  A    between atoms: O_1  and  C_13 
REMARK    3  A    between atoms: O_2  and  C_16 
REMARK    4  A    between atoms: O_2  and  C_21 
REMARK    5  A    between atoms: N_5  and  C_7 
REMARK       I    between atoms: N_5  and  C_17 
REMARK    6  A    between atoms: N_6  and  C_8 
REMARK    7  A    between atoms: C_12  and  C_16 
REMARK    8  A    between atoms: C_13  and  C_14 
REMARK    9  A    between atoms: C_13  and  C_15 
ROOT
HETATM    1  C   UNK     0     -24.170 -14.816  29.899  0.00  0.00     0.150 C 
HETATM    2  C   UNK     0     -23.040 -13.929  29.345  0.00  0.00     0.247 C 
HETATM    3  C   UNK     0     -25.508 -14.517  29.191  0.00  0.00     0.170 C 
HETATM    4  C   UNK     0     -22.876 -14.136  27.829  0.00  0.00     0.082 C 
HETATM    5  C   UNK     0     -25.373 -14.300  27.709  0.00  0.00     0.020 C 
HETATM    6  C   UNK     0     -24.188 -14.141  27.105  0.00  0.00     0.018 C 
ENDROOT
BRANCH   3   7
HETATM    7  O   UNK     0     -26.384 -15.623  29.420  0.00  0.00    -0.375 OA
BRANCH   7   8
HETATM    8  C   UNK     0     -27.494 -15.245  30.218  0.00  0.00     0.121 C 
BRANCH   8   9
HETATM    9  C   UNK     0     -27.989 -16.480  30.978  0.00  0.00     0.027 C 
HETATM   10  C   UNK     0     -27.375 -16.588  32.368  0.00  0.00     0.007 C 
ENDBRANCH   8   9
BRANCH   8  11
HETATM   11  C   UNK     0     -28.605 -14.675  29.328  0.00  0.00     0.027 C 
HETATM   12  C   UNK     0     -29.003 -13.257  29.714  0.00  0.00     0.007 C 
ENDBRANCH   8  11
ENDBRANCH   7   8
ENDBRANCH   3   7
BRANCH   1  13
HETATM   13  N   UNK     0     -24.323 -14.632  31.328  0.00  0.00    -0.352 N 
HETATM   14  C   UNK     0     -23.795 -15.504  32.261  0.00  0.00     0.214 C 
HETATM   15  O   UNK     0     -23.148 -16.519  32.015  0.00  0.00    -0.274 OA
HETATM   16  C   UNK     0     -24.077 -15.064  33.672  0.00  0.00     0.117 C 
HETATM   17  H   UNK     0     -24.890 -13.853  31.650  0.00  0.00     0.163 HD
ENDBRANCH   1  13
BRANCH   2  18
HETATM   18  N   UNK     0     -21.765 -14.220  30.004  0.00  0.00     0.085 N 
HETATM   19  H   UNK     0     -21.414 -15.121  29.684  0.00  0.00     0.313 HD
HETATM   20  H   UNK     0     -21.910 -14.305  31.009  0.00  0.00     0.313 HD
ENDBRANCH   2  18
BRANCH   6  21
HETATM   21  C   UNK     0     -24.184 -13.942  25.654  0.00  0.00     0.289 C 
HETATM   22  O   UNK     0     -23.645 -14.706  24.868  0.00  0.00    -0.260 OA
BRANCH  21  23
HETATM   23  O   UNK     0     -24.862 -12.802  25.369  0.00  0.00    -0.318 OA
BRANCH  23  24
HETATM   24  C   UNK     0     -24.288 -11.987  24.343  0.00  0.00     0.174 C 
HETATM   25  C   UNK     0     -23.024 -11.343  24.874  0.00  0.00     0.034 C 
ENDBRANCH  23  24
ENDBRANCH  21  23
ENDBRANCH   6  21
TORSDOF 9
ENDMDL
MODEL 3
REMARK VINA RESULT:      -6.3      6.589      9.270
REMARK  9 active torsions:
REMARK  status: ('A' for Active; 'I' for Inactive)
REMARK    1  A    between atoms: O_1  and  C_9 
REMARK    2  A    between atoms: O_1  and  C_13 
REMARK    3  A    between atoms: O_2  and  C_16 
REMARK    4  A    between atoms: O_2  and  C_21 
REMARK    5  A    between atoms: N_5  and  C_7 
REMARK       I    between atoms: N_5  and  C_17 
REMARK    6  A    between atoms: N_6  and  C_8 
REMARK    7  A    between atoms: C_12  and  C_16 
REMARK    8  A    between atoms: C_13  and  C_14 
REMARK    9  A    between atoms: C_13  and  C_15 
ROOT
HETATM    1  C   UNK     0     -23.151 -16.058  35.912  0.00  0.00     0.150 C 
HETATM    2  C   UNK     0     -21.958 -15.893  34.952  0.00  0.00     0.247 C 
HETATM    3  C   UNK     0     -24.319 -15.136  35.507  0.00  0.00     0.170 C 
HETATM    4  C   UNK     0     -22.375 -16.199  33.503  0.00  0.00     0.082 C 
HETATM    5  C   UNK     0     -24.546 -15.061  34.022  0.00  0.00     0.020 C 
HETATM    6  C   UNK     0     -23.674 -15.551  33.131  0.00  0.00     0.018 C 
ENDROOT
BRANCH   3   7
HETATM    7  O   UNK     0     -25.506 -15.628  36.133  0.00  0.00    -0.375 OA
BRANCH   7   8
HETATM    8  C   UNK     0     -26.217 -16.504  35.272  0.00  0.00     0.121 C 
BRANCH   8   9
HETATM    9  C   UNK     0     -27.684 -16.058  35.231  0.00  0.00     0.027 C 
HETATM   10  C   UNK     0     -28.341 -16.357  33.890  0.00  0.00     0.007 C 
ENDBRANCH   8   9
BRANCH   8  11
HETATM   11  C   UNK     0     -26.103 -17.945  35.784  0.00  0.00     0.027 C 
HETATM   12  C   UNK     0     -25.344 -18.854  34.827  0.00  0.00     0.007 C 
ENDBRANCH   8  11
ENDBRANCH   7   8
ENDBRANCH   3   7
BRANCH   1  13
HETATM   13  N   UNK     0     -22.761 -15.780  37.279  0.00  0.00    -0.352 N 
HETATM   14  C   UNK     0     -22.999 -16.655  38.323  0.00  0.00     0.214 C 
HETATM   15  O   UNK     0     -23.555 -17.747  38.237  0.00  0.00    -0.274 OA
HETATM   16  C   UNK     0     -22.470 -16.133  39.632  0.00  0.00     0.117 C 
HETATM   17  H   UNK     0     -22.341 -14.877  37.481  0.00  0.00     0.163 HD
ENDBRANCH   1  13
BRANCH   2  18
HETATM   18  N   UNK     0     -20.851 -16.779  35.324  0.00  0.00     0.085 N 
HETATM   19  H   UNK     0     -21.067 -17.242  36.205  0.00  0.00     0.313 HD
HETATM   20  H   UNK     0     -20.010 -16.226  35.485  0.00  0.00     0.313 HD
ENDBRANCH   2  18
BRANCH   6  21
HETATM   21  C   UNK     0     -24.007 -15.424  31.711  0.00  0.00     0.289 C 
HETATM   22  O   UNK     0     -25.084 -15.015  31.303  0.00  0.00    -0.260 OA
BRANCH  21  23
HETATM   23  O   UNK     0     -22.941 -15.826  30.975  0.00  0.00    -0.318 OA
BRANCH  23  24
HETATM   24  C   UNK     0     -22.344 -14.817  30.156  0.00  0.00     0.174 C 
HETATM   25  C   UNK     0     -20.838 -14.972  30.199  0.00  0.00     0.034 C 
ENDBRANCH  23  24
ENDBRANCH  21  23
ENDBRANCH   6  21
TORSDOF 9
ENDMDL
