MODEL 1
REMARK VINA RESULT:      -6.8      0.000      0.000
REMARK  9 active torsions:
REMARK  status: ('A' for Active; 'I' for Inactive)
REMARK    1  A    between atoms: O_1  and  C_9 
REMARK    2  A    between atoms: O_1  and  C_13 
REMARK    3  A    between atoms: O_2  and  C_16 
REMARK    4  A    between atoms: O_2  and  C_21 
REMARK    5  A    between atoms: N_5  and  C_7 
REMARK       I    between atoms: N_5  and  C_17 
REMARK    6  A    between atoms: N_6  and  C_8 
REMARK    7  A    between atoms: C_12  and  C_16 
REMARK    8  A    between atoms: C_13  and  C_14 
REMARK    9  A    between atoms: C_13  and  C_15 
ROOT
HETATM    1  C   UNK     0       2.913   7.770  18.518  0.00  0.00     0.150 C 
HETATM    2  C   UNK     0       2.186   8.712  17.539  0.00  0.00     0.247 C 
HETATM    3  C   UNK     0       4.438   7.800  18.286  0.00  0.00     0.170 C 
HETATM    4  C   UNK     0       2.701  10.154  17.684  0.00  0.00     0.082 C 
HETATM    5  C   UNK     0       4.983   9.174  18.011  0.00  0.00     0.020 C 
HETATM    6  C   UNK     0       4.196  10.226  17.753  0.00  0.00     0.018 C 
ENDROOT
BRANCH   3   7
HETATM    7  O   UNK     0       5.071   7.275  19.455  0.00  0.00    -0.375 OA
BRANCH   7   8
HETATM    8  C   UNK     0       5.608   8.312  20.260  0.00  0.00     0.121 C 
BRANCH   8   9
HETATM    9  C   UNK     0       7.009   7.894  20.720  0.00  0.00     0.027 C 
HETATM   10  C   UNK     0       7.966   7.696  19.551  0.00  0.00     0.007 C 
ENDBRANCH   8   9
BRANCH   8  11
HETATM   11  C   UNK     0       4.694   8.563  21.465  0.00  0.00     0.027 C 
HETATM   12  C   UNK     0       4.763   7.449  22.501  0.00  0.00     0.007 C 
ENDBRANCH   8  11
ENDBRANCH   7   8
ENDBRANCH   3   7
BRANCH   1  13
HETATM   13  N   UNK     0       2.426   6.412  18.391  0.00  0.00    -0.352 N 
HETATM   14  C   UNK     0       2.095   5.626  19.479  0.00  0.00     0.214 C 
HETATM   15  O   UNK     0       2.167   5.960  20.659  0.00  0.00    -0.274 OA
HETATM   16  C   UNK     0       1.591   4.269  19.066  0.00  0.00     0.117 C 
HETATM   17  H   UNK     0       2.378   6.007  17.460  0.00  0.00     0.163 HD
ENDBRANCH   1  13
BRANCH   2  18
HETATM   18  N   UNK     0       0.739   8.699  17.765  0.00  0.00     0.085 N 
HETATM   19  H   UNK     0       0.302   9.436  17.216  0.00  0.00     0.313 HD
HETATM   20  H   UNK     0       0.544   8.911  18.743  0.00  0.00     0.313 HD
ENDBRANCH   2  18
BRANCH   6  21
HETATM   21  C   UNK     0       4.843  11.517  17.506  0.00  0.00     0.289 C 
HETATM   22  O   UNK     0       5.975  11.787  17.877  0.00  0.00    -0.260 OA
BRANCH  21  23
HETATM   23  O   UNK     0       3.984  12.311  16.818  0.00  0.00    -0.318 OA
BRANCH  23  24
HETATM   24  C   UNK     0       4.461  12.779  15.553  0.00  0.00     0.174 C 
HETATM   25  C   UNK     0       3.315  12.776  14.562  0.00  0.00     0.034 C 
ENDBRANCH  23  24
ENDBRANCH  21  23
ENDBRANCH   6  21
TORSDOF 9
ENDMDL
MODEL 2
REMARK VINA RESULT:      -6.8      2.422      5.829
REMARK  9 active torsions:
REMARK  status: ('A' for Active; 'I' for Inactive)
REMARK    1  A    between atoms: O_1  and  C_9 
REMARK    2  A    between atoms: O_1  and  C_13 
REMARK    3  A    between atoms: O_2  and  C_16 
REMARK    4  A    between atoms: O_2  and  C_21 
REMARK    5  A    between atoms: N_5  and  C_7 
REMARK       I    between atoms: N_5  and  C_17 
REMARK    6  A    between atoms: N_6  and  C_8 
REMARK    7  A    between atoms: C_12  and  C_16 
REMARK    8  A    between atoms: C_13  and  C_14 
REMARK    9  A    between atoms: C_13  and  C_15 
ROOT
HETATM    1  C   UNK     0       3.253  10.215  18.403  0.00  0.00     0.150 C 
HETATM    2  C   UNK     0       4.433  10.882  19.134  0.00  0.00     0.247 C 
HETATM    3  C   UNK     0       3.394   8.679  18.408  0.00  0.00     0.170 C 
HETATM    4  C   UNK     0       4.531  10.380  20.585  0.00  0.00     0.082 C 
HETATM    5  C   UNK     0       3.889   8.120  19.713  0.00  0.00     0.020 C 
HETATM    6  C   UNK     0       4.387   8.892  20.689  0.00  0.00     0.018 C 
ENDROOT
BRANCH   3   7
HETATM    7  O   UNK     0       2.111   8.118  18.121  0.00  0.00    -0.375 OA
BRANCH   7   8
HETATM    8  C   UNK     0       2.205   6.729  17.847  0.00  0.00     0.121 C 
BRANCH   8   9
HETATM    9  C   UNK     0       2.829   6.550  16.458  0.00  0.00     0.027 C 
HETATM   10  C   UNK     0       4.206   5.903  16.522  0.00  0.00     0.007 C 
ENDBRANCH   8   9
BRANCH   8  11
HETATM   11  C   UNK     0       0.811   6.092  17.902  0.00  0.00     0.027 C 
HETATM   12  C   UNK     0       0.730   4.934  18.888  0.00  0.00     0.007 C 
ENDBRANCH   8  11
ENDBRANCH   7   8
ENDBRANCH   3   7
BRANCH   1  13
HETATM   13  N   UNK     0       3.150  10.691  17.038  0.00  0.00    -0.352 N 
HETATM   14  C   UNK     0       4.046  10.336  16.047  0.00  0.00     0.214 C 
HETATM   15  O   UNK     0       5.017   9.596  16.183  0.00  0.00    -0.274 OA
HETATM   16  C   UNK     0       3.693  10.949  14.719  0.00  0.00     0.117 C 
HETATM   17  H   UNK     0       2.415  11.358  16.820  0.00  0.00     0.163 HD
ENDBRANCH   1  13
BRANCH   2  18
HETATM   18  N   UNK     0       4.296  12.340  19.145  0.00  0.00     0.085 N 
HETATM   19  H   UNK     0       3.447  12.598  19.646  0.00  0.00     0.313 HD
HETATM   20  H   UNK     0       4.184  12.681  18.191  0.00  0.00     0.313 HD
ENDBRANCH   2  18
BRANCH   6  21
HETATM   21  C   UNK     0       4.833   8.232  21.918  0.00  0.00     0.289 C 
HETATM   22  O   UNK     0       4.072   7.718  22.724  0.00  0.00    -0.260 OA
BRANCH  21  23
HETATM   23  O   UNK     0       6.186   8.300  21.983  0.00  0.00    -0.318 OA
BRANCH  23  24
HETATM   24  C   UNK     0       6.827   7.185  22.611  0.00  0.00     0.174 C 
HETATM   25  C   UNK     0       7.357   7.618  23.962  0.00  0.00     0.034 C 
ENDBRANCH  23  24
ENDBRANCH  21  23
ENDBRANCH   6  21
TORSDOF 9
ENDMDL
MODEL 3
REMARK VINA RESULT:      -6.8      2.423      4.186
REMARK  9 active torsions:
REMARK  status: ('A' for Active; 'I' for Inactive)
REMARK    1  A    between atoms: O_1  and  C_9 
REMARK    2  A    between atoms: O_1  and  C_13 
REMARK    3  A    between atoms: O_2  and  C_16 
REMARK    4  A    between atoms: O_2  and  C_21 
REMARK    5  A    between atoms: N_5  and  C_7 
REMARK       I    between atoms: N_5  and  C_17 
REMARK    6  A    between atoms: N_6  and  C_8 
REMARK    7  A    between atoms: C_12  and  C_16 
REMARK    8  A    between atoms: C_13  and  C_14 
REMARK    9  A    between atoms: C_13  and  C_15 
ROOT
HETATM    1  C   UNK     0       5.542   8.986  20.482  0.00  0.00     0.150 C 
HETATM    2  C   UNK     0       5.727  10.479  20.154  0.00  0.00     0.247 C 
HETATM    3  C   UNK     0       4.132   8.502  20.087  0.00  0.00     0.170 C 
HETATM    4  C   UNK     0       5.494  10.742  18.656  0.00  0.00     0.082 C 
HETATM    5  C   UNK     0       3.647   9.054  18.776  0.00  0.00     0.020 C 
HETATM    6  C   UNK     0       4.270  10.052  18.136  0.00  0.00     0.018 C 
ENDROOT
BRANCH   3   7
HETATM    7  O   UNK     0       4.163   7.075  20.007  0.00  0.00    -0.375 OA
BRANCH   7   8
HETATM    8  C   UNK     0       3.060   6.496  20.686  0.00  0.00     0.121 C 
BRANCH   8   9
HETATM    9  C   UNK     0       3.560   5.912  22.012  0.00  0.00     0.027 C 
HETATM   10  C   UNK     0       3.156   6.765  23.208  0.00  0.00     0.007 C 
ENDBRANCH   8   9
BRANCH   8  11
HETATM   11  C   UNK     0       2.428   5.403  19.816  0.00  0.00     0.027 C 
HETATM   12  C   UNK     0       1.160   5.868  19.111  0.00  0.00     0.007 C 
ENDBRANCH   8  11
ENDBRANCH   7   8
ENDBRANCH   3   7
BRANCH   1  13
HETATM   13  N   UNK     0       5.770   8.731  21.891  0.00  0.00    -0.352 N 
HETATM   14  C   UNK     0       6.674   7.792  22.350  0.00  0.00     0.214 C 
HETATM   15  O   UNK     0       7.382   7.070  21.652  0.00  0.00    -0.274 OA
HETATM   16  C   UNK     0       6.732   7.749  23.853  0.00  0.00     0.117 C 
HETATM   17  H   UNK     0       5.197   9.232  22.564  0.00  0.00     0.163 HD
ENDBRANCH   1  13
BRANCH   2  18
HETATM   18  N   UNK     0       7.070  10.940  20.513  0.00  0.00     0.085 N 
HETATM   19  H   UNK     0       7.697  10.813  19.721  0.00  0.00     0.313 HD
HETATM   20  H   UNK     0       7.439  10.365  21.270  0.00  0.00     0.313 HD
ENDBRANCH   2  18
BRANCH   6  21
HETATM   21  C   UNK     0       3.705  10.502  16.861  0.00  0.00     0.289 C 
HETATM   22  O   UNK     0       3.297   9.741  15.997  0.00  0.00    -0.260 OA
BRANCH  21  23
HETATM   23  O   UNK     0       3.723  11.858  16.831  0.00  0.00    -0.318 OA
BRANCH  23  24
HETATM   24  C   UNK     0       4.263  12.439  15.640  0.00  0.00     0.174 C 
HETATM   25  C   UNK     0       3.139  13.071  14.847  0.00  0.00     0.034 C 
ENDBRANCH  23  24
ENDBRANCH  21  23
ENDBRANCH   6  21
TORSDOF 9
ENDMDL
