MODEL 1
REMARK VINA RESULT:      -6.6      0.000      0.000
REMARK  9 active torsions:
REMARK  status: ('A' for Active; 'I' for Inactive)
REMARK    1  A    between atoms: O_1  and  C_9 
REMARK    2  A    between atoms: O_1  and  C_13 
REMARK    3  A    between atoms: O_2  and  C_16 
REMARK    4  A    between atoms: O_2  and  C_21 
REMARK    5  A    between atoms: N_5  and  C_7 
REMARK       I    between atoms: N_5  and  C_17 
REMARK    6  A    between atoms: N_6  and  C_8 
REMARK    7  A    between atoms: C_12  and  C_16 
REMARK    8  A    between atoms: C_13  and  C_14 
REMARK    9  A    between atoms: C_13  and  C_15 
ROOT
HETATM    1  C   UNK     0      31.054  15.778  -0.868  0.00  0.00     0.150 C 
HETATM    2  C   UNK     0      32.519  15.946  -0.424  0.00  0.00     0.247 C 
HETATM    3  C   UNK     0      30.083  16.125   0.280  0.00  0.00     0.170 C 
HETATM    4  C   UNK     0      32.784  17.383   0.056  0.00  0.00     0.082 C 
HETATM    5  C   UNK     0      30.499  17.327   1.082  0.00  0.00     0.020 C 
HETATM    6  C   UNK     0      31.708  17.892   0.967  0.00  0.00     0.018 C 
ENDROOT
BRANCH   3   7
HETATM    7  O   UNK     0      28.797  16.371  -0.291  0.00  0.00    -0.375 OA
BRANCH   7   8
HETATM    8  C   UNK     0      27.966  15.224  -0.201  0.00  0.00     0.121 C 
BRANCH   8   9
HETATM    9  C   UNK     0      27.160  15.106  -1.500  0.00  0.00     0.027 C 
HETATM   10  C   UNK     0      27.490  16.218  -2.488  0.00  0.00     0.007 C 
ENDBRANCH   8   9
BRANCH   8  11
HETATM   11  C   UNK     0      27.030  15.352   1.007  0.00  0.00     0.027 C 
HETATM   12  C   UNK     0      25.681  14.683   0.783  0.00  0.00     0.007 C 
ENDBRANCH   8  11
ENDBRANCH   7   8
ENDBRANCH   3   7
BRANCH   1  13
HETATM   13  N   UNK     0      30.801  14.428  -1.330  0.00  0.00    -0.352 N 
HETATM   14  C   UNK     0      30.756  14.085  -2.668  0.00  0.00     0.214 C 
HETATM   15  O   UNK     0      30.918  14.851  -3.615  0.00  0.00    -0.274 OA
HETATM   16  C   UNK     0      30.504  12.615  -2.868  0.00  0.00     0.117 C 
HETATM   17  H   UNK     0      30.596  13.717  -0.633  0.00  0.00     0.163 HD
ENDBRANCH   1  13
BRANCH   2  18
HETATM   18  N   UNK     0      33.444  15.631  -1.515  0.00  0.00     0.085 N 
HETATM   19  H   UNK     0      34.208  15.059  -1.160  0.00  0.00     0.313 HD
HETATM   20  H   UNK     0      33.864  16.491  -1.866  0.00  0.00     0.313 HD
ENDBRANCH   2  18
BRANCH   6  21
HETATM   21  C   UNK     0      31.995  19.063   1.798  0.00  0.00     0.289 C 
HETATM   22  O   UNK     0      33.003  19.743   1.682  0.00  0.00    -0.260 OA
BRANCH  21  23
HETATM   23  O   UNK     0      30.974  19.236   2.674  0.00  0.00    -0.318 OA
BRANCH  23  24
HETATM   24  C   UNK     0      31.355  19.683   3.979  0.00  0.00     0.174 C 
HETATM   25  C   UNK     0      30.306  19.241   4.978  0.00  0.00     0.034 C 
ENDBRANCH  23  24
ENDBRANCH  21  23
ENDBRANCH   6  21
TORSDOF 9
ENDMDL
MODEL 2
REMARK VINA RESULT:      -6.0      2.198      5.472
REMARK  9 active torsions:
REMARK  status: ('A' for Active; 'I' for Inactive)
REMARK    1  A    between atoms: O_1  and  C_9 
REMARK    2  A    between atoms: O_1  and  C_13 
REMARK    3  A    between atoms: O_2  and  C_16 
REMARK    4  A    between atoms: O_2  and  C_21 
REMARK    5  A    between atoms: N_5  and  C_7 
REMARK       I    between atoms: N_5  and  C_17 
REMARK    6  A    between atoms: N_6  and  C_8 
REMARK    7  A    between atoms: C_12  and  C_16 
REMARK    8  A    between atoms: C_13  and  C_14 
REMARK    9  A    between atoms: C_13  and  C_15 
ROOT
HETATM    1  C   UNK     0      29.010  15.112  -1.515  0.00  0.00     0.150 C 
HETATM    2  C   UNK     0      27.517  15.165  -1.887  0.00  0.00     0.247 C 
HETATM    3  C   UNK     0      29.295  15.938  -0.244  0.00  0.00     0.170 C 
HETATM    4  C   UNK     0      26.646  14.644  -0.730  0.00  0.00     0.082 C 
HETATM    5  C   UNK     0      28.244  15.792   0.821  0.00  0.00     0.020 C 
HETATM    6  C   UNK     0      27.063  15.200   0.597  0.00  0.00     0.018 C 
ENDROOT
BRANCH   3   7
HETATM    7  O   UNK     0      30.553  15.513   0.284  0.00  0.00    -0.375 OA
BRANCH   7   8
HETATM    8  C   UNK     0      31.379  16.621   0.603  0.00  0.00     0.121 C 
BRANCH   8   9
HETATM    9  C   UNK     0      30.495  17.868   0.718  0.00  0.00     0.027 C 
HETATM   10  C   UNK     0      31.067  18.895   1.687  0.00  0.00     0.007 C 
ENDBRANCH   8   9
BRANCH   8  11
HETATM   11  C   UNK     0      32.442  16.809  -0.487  0.00  0.00     0.027 C 
HETATM   12  C   UNK     0      33.415  15.641  -0.571  0.00  0.00     0.007 C 
ENDBRANCH   8  11
ENDBRANCH   7   8
ENDBRANCH   3   7
BRANCH   1  13
HETATM   13  N   UNK     0      29.835  15.593  -2.606  0.00  0.00    -0.352 N 
HETATM   14  C   UNK     0      30.843  14.839  -3.177  0.00  0.00     0.214 C 
HETATM   15  O   UNK     0      31.166  13.700  -2.851  0.00  0.00    -0.274 OA
HETATM   16  C   UNK     0      31.524  15.567  -4.305  0.00  0.00     0.117 C 
HETATM   17  H   UNK     0      29.695  16.548  -2.923  0.00  0.00     0.163 HD
ENDBRANCH   1  13
BRANCH   2  18
HETATM   18  N   UNK     0      27.239  14.370  -3.086  0.00  0.00     0.085 N 
HETATM   19  H   UNK     0      26.257  14.465  -3.337  0.00  0.00     0.313 HD
HETATM   20  H   UNK     0      27.392  13.382  -2.885  0.00  0.00     0.313 HD
ENDBRANCH   2  18
BRANCH   6  21
HETATM   21  C   UNK     0      26.121  15.113   1.716  0.00  0.00     0.289 C 
HETATM   22  O   UNK     0      24.951  15.456   1.642  0.00  0.00    -0.260 OA
BRANCH  21  23
HETATM   23  O   UNK     0      26.770  14.603   2.792  0.00  0.00    -0.318 OA
BRANCH  23  24
HETATM   24  C   UNK     0      26.008  13.696   3.595  0.00  0.00     0.174 C 
HETATM   25  C   UNK     0      26.188  12.292   3.058  0.00  0.00     0.034 C 
ENDBRANCH  23  24
ENDBRANCH  21  23
ENDBRANCH   6  21
TORSDOF 9
ENDMDL
MODEL 3
REMARK VINA RESULT:      -5.9      2.724      4.378
REMARK  9 active torsions:
REMARK  status: ('A' for Active; 'I' for Inactive)
REMARK    1  A    between atoms: O_1  and  C_9 
REMARK    2  A    between atoms: O_1  and  C_13 
REMARK    3  A    between atoms: O_2  and  C_16 
REMARK    4  A    between atoms: O_2  and  C_21 
REMARK    5  A    between atoms: N_5  and  C_7 
REMARK       I    between atoms: N_5  and  C_17 
REMARK    6  A    between atoms: N_6  and  C_8 
REMARK    7  A    between atoms: C_12  and  C_16 
REMARK    8  A    between atoms: C_13  and  C_14 
REMARK    9  A    between atoms: C_13  and  C_15 
ROOT
HETATM    1  C   UNK     0      28.068  15.290   0.343  0.00  0.00     0.150 C 
HETATM    2  C   UNK     0      28.829  16.115   1.398  0.00  0.00     0.247 C 
HETATM    3  C   UNK     0      28.411  15.763  -1.084  0.00  0.00     0.170 C 
HETATM    4  C   UNK     0      30.349  16.016   1.175  0.00  0.00     0.082 C 
HETATM    5  C   UNK     0      29.866  16.086  -1.282  0.00  0.00     0.020 C 
HETATM    6  C   UNK     0      30.730  16.187  -0.264  0.00  0.00     0.018 C 
ENDROOT
BRANCH   3   7
HETATM    7  O   UNK     0      28.038  14.725  -1.993  0.00  0.00    -0.375 OA
BRANCH   7   8
HETATM    8  C   UNK     0      27.732  15.248  -3.276  0.00  0.00     0.121 C 
BRANCH   8   9
HETATM    9  C   UNK     0      27.184  16.669  -3.102  0.00  0.00     0.027 C 
HETATM   10  C   UNK     0      27.420  17.534  -4.334  0.00  0.00     0.007 C 
ENDBRANCH   8   9
BRANCH   8  11
HETATM   11  C   UNK     0      26.701  14.351  -3.972  0.00  0.00     0.027 C 
HETATM   12  C   UNK     0      25.836  13.573  -2.989  0.00  0.00     0.007 C 
ENDBRANCH   8  11
ENDBRANCH   7   8
ENDBRANCH   3   7
BRANCH   1  13
HETATM   13  N   UNK     0      26.636  15.371   0.554  0.00  0.00    -0.352 N 
HETATM   14  C   UNK     0      25.936  14.466   1.329  0.00  0.00     0.214 C 
HETATM   15  O   UNK     0      26.414  13.503   1.923  0.00  0.00    -0.274 OA
HETATM   16  C   UNK     0      24.470  14.797   1.402  0.00  0.00     0.117 C 
HETATM   17  H   UNK     0      26.123  16.098   0.064  0.00  0.00     0.163 HD
ENDBRANCH   1  13
BRANCH   2  18
HETATM   18  N   UNK     0      28.518  15.659   2.755  0.00  0.00     0.085 N 
HETATM   19  H   UNK     0      27.573  15.946   3.002  0.00  0.00     0.313 HD
HETATM   20  H   UNK     0      29.143  16.113   3.420  0.00  0.00     0.313 HD
ENDBRANCH   2  18
BRANCH   6  21
HETATM   21  C   UNK     0      32.125  16.501  -0.583  0.00  0.00     0.289 C 
HETATM   22  O   UNK     0      32.588  16.450  -1.711  0.00  0.00    -0.260 OA
BRANCH  21  23
HETATM   23  O   UNK     0      32.766  16.845   0.563  0.00  0.00    -0.318 OA
BRANCH  23  24
HETATM   24  C   UNK     0      33.353  18.149   0.570  0.00  0.00     0.174 C 
HETATM   25  C   UNK     0      32.422  19.105   1.285  0.00  0.00     0.034 C 
ENDBRANCH  23  24
ENDBRANCH  21  23
ENDBRANCH   6  21
TORSDOF 9
ENDMDL
