MODEL 1
REMARK VINA RESULT:      -6.5      0.000      0.000
REMARK  9 active torsions:
REMARK  status: ('A' for Active; 'I' for Inactive)
REMARK    1  A    between atoms: O_1  and  C_9 
REMARK    2  A    between atoms: O_1  and  C_13 
REMARK    3  A    between atoms: O_2  and  C_16 
REMARK    4  A    between atoms: O_2  and  C_21 
REMARK    5  A    between atoms: N_5  and  C_7 
REMARK       I    between atoms: N_5  and  C_17 
REMARK    6  A    between atoms: N_6  and  C_8 
REMARK    7  A    between atoms: C_12  and  C_16 
REMARK    8  A    between atoms: C_13  and  C_14 
REMARK    9  A    between atoms: C_13  and  C_15 
ROOT
HETATM    1  C   UNK     0      19.714  55.810  23.647  0.00  0.00     0.150 C 
HETATM    2  C   UNK     0      19.542  54.340  23.221  0.00  0.00     0.247 C 
HETATM    3  C   UNK     0      18.365  56.556  23.621  0.00  0.00     0.170 C 
HETATM    4  C   UNK     0      18.539  53.618  24.137  0.00  0.00     0.082 C 
HETATM    5  C   UNK     0      17.213  55.745  24.147  0.00  0.00     0.020 C 
HETATM    6  C   UNK     0      17.304  54.430  24.386  0.00  0.00     0.018 C 
ENDROOT
BRANCH   3   7
HETATM    7  O   UNK     0      18.500  57.737  24.414  0.00  0.00    -0.375 OA
BRANCH   7   8
HETATM    8  C   UNK     0      17.740  58.808  23.876  0.00  0.00     0.121 C 
BRANCH   8   9
HETATM    9  C   UNK     0      18.700  59.789  23.192  0.00  0.00     0.027 C 
HETATM   10  C   UNK     0      19.711  60.382  24.165  0.00  0.00     0.007 C 
ENDBRANCH   8   9
BRANCH   8  11
HETATM   11  C   UNK     0      16.959  59.507  24.995  0.00  0.00     0.027 C 
HETATM   12  C   UNK     0      15.733  58.721  25.440  0.00  0.00     0.007 C 
ENDBRANCH   8  11
ENDBRANCH   7   8
ENDBRANCH   3   7
BRANCH   1  13
HETATM   13  N   UNK     0      20.666  56.491  22.793  0.00  0.00    -0.352 N 
HETATM   14  C   UNK     0      21.663  57.314  23.283  0.00  0.00     0.214 C 
HETATM   15  O   UNK     0      21.871  57.572  24.465  0.00  0.00    -0.274 OA
HETATM   16  C   UNK     0      22.527  57.873  22.184  0.00  0.00     0.117 C 
HETATM   17  H   UNK     0      20.556  56.397  21.787  0.00  0.00     0.163 HD
ENDBRANCH   1  13
BRANCH   2  18
HETATM   18  N   UNK     0      20.819  53.623  23.259  0.00  0.00     0.085 N 
HETATM   19  H   UNK     0      20.807  52.869  22.573  0.00  0.00     0.313 HD
HETATM   20  H   UNK     0      20.939  53.184  24.171  0.00  0.00     0.313 HD
ENDBRANCH   2  18
BRANCH   6  21
HETATM   21  C   UNK     0      16.115  53.748  24.903  0.00  0.00     0.289 C 
HETATM   22  O   UNK     0      15.266  53.235  24.190  0.00  0.00    -0.260 OA
BRANCH  21  23
HETATM   23  O   UNK     0      16.141  53.794  26.259  0.00  0.00    -0.318 OA
BRANCH  23  24
HETATM   24  C   UNK     0      14.968  54.333  26.877  0.00  0.00     0.174 C 
HETATM   25  C   UNK     0      15.380  55.166  28.073  0.00  0.00     0.034 C 
ENDBRANCH  23  24
ENDBRANCH  21  23
ENDBRANCH   6  21
TORSDOF 9
ENDMDL
MODEL 2
REMARK VINA RESULT:      -6.5      1.002      1.673
REMARK  9 active torsions:
REMARK  status: ('A' for Active; 'I' for Inactive)
REMARK    1  A    between atoms: O_1  and  C_9 
REMARK    2  A    between atoms: O_1  and  C_13 
REMARK    3  A    between atoms: O_2  and  C_16 
REMARK    4  A    between atoms: O_2  and  C_21 
REMARK    5  A    between atoms: N_5  and  C_7 
REMARK       I    between atoms: N_5  and  C_17 
REMARK    6  A    between atoms: N_6  and  C_8 
REMARK    7  A    between atoms: C_12  and  C_16 
REMARK    8  A    between atoms: C_13  and  C_14 
REMARK    9  A    between atoms: C_13  and  C_15 
ROOT
HETATM    1  C   UNK     0      19.584  55.833  23.599  0.00  0.00     0.150 C 
HETATM    2  C   UNK     0      19.411  54.360  23.185  0.00  0.00     0.247 C 
HETATM    3  C   UNK     0      18.229  56.570  23.606  0.00  0.00     0.170 C 
HETATM    4  C   UNK     0      18.437  53.636  24.132  0.00  0.00     0.082 C 
HETATM    5  C   UNK     0      17.098  55.753  24.167  0.00  0.00     0.020 C 
HETATM    6  C   UNK     0      17.204  54.440  24.410  0.00  0.00     0.018 C 
ENDROOT
BRANCH   3   7
HETATM    7  O   UNK     0      18.377  57.756  24.389  0.00  0.00    -0.375 OA
BRANCH   7   8
HETATM    8  C   UNK     0      17.594  58.818  23.868  0.00  0.00     0.121 C 
BRANCH   8   9
HETATM    9  C   UNK     0      18.530  59.822  23.185  0.00  0.00     0.027 C 
HETATM   10  C   UNK     0      19.592  60.361  24.134  0.00  0.00     0.007 C 
ENDBRANCH   8   9
BRANCH   8  11
HETATM   11  C   UNK     0      16.811  59.493  25.002  0.00  0.00     0.027 C 
HETATM   12  C   UNK     0      17.020  58.816  26.349  0.00  0.00     0.007 C 
ENDBRANCH   8  11
ENDBRANCH   7   8
ENDBRANCH   3   7
BRANCH   1  13
HETATM   13  N   UNK     0      20.507  56.517  22.716  0.00  0.00    -0.352 N 
HETATM   14  C   UNK     0      21.540  57.311  23.176  0.00  0.00     0.214 C 
HETATM   15  O   UNK     0      21.807  57.539  24.353  0.00  0.00    -0.274 OA
HETATM   16  C   UNK     0      22.362  57.879  22.050  0.00  0.00     0.117 C 
HETATM   17  H   UNK     0      20.349  56.447  21.715  0.00  0.00     0.163 HD
ENDBRANCH   1  13
BRANCH   2  18
HETATM   18  N   UNK     0      20.693  53.652  23.192  0.00  0.00     0.085 N 
HETATM   19  H   UNK     0      20.566  52.720  23.583  0.00  0.00     0.313 HD
HETATM   20  H   UNK     0      21.349  54.136  23.803  0.00  0.00     0.313 HD
ENDBRANCH   2  18
BRANCH   6  21
HETATM   21  C   UNK     0      16.034  53.753  24.963  0.00  0.00     0.289 C 
HETATM   22  O   UNK     0      15.754  53.744  26.152  0.00  0.00    -0.260 OA
BRANCH  21  23
HETATM   23  O   UNK     0      15.358  53.159  23.948  0.00  0.00    -0.318 OA
BRANCH  23  24
HETATM   24  C   UNK     0      13.936  53.108  24.105  0.00  0.00     0.174 C 
HETATM   25  C   UNK     0      13.371  52.077  23.150  0.00  0.00     0.034 C 
ENDBRANCH  23  24
ENDBRANCH  21  23
ENDBRANCH   6  21
TORSDOF 9
ENDMDL
MODEL 3
REMARK VINA RESULT:      -6.3      3.444      4.666
REMARK  9 active torsions:
REMARK  status: ('A' for Active; 'I' for Inactive)
REMARK    1  A    between atoms: O_1  and  C_9 
REMARK    2  A    between atoms: O_1  and  C_13 
REMARK    3  A    between atoms: O_2  and  C_16 
REMARK    4  A    between atoms: O_2  and  C_21 
REMARK    5  A    between atoms: N_5  and  C_7 
REMARK       I    between atoms: N_5  and  C_17 
REMARK    6  A    between atoms: N_6  and  C_8 
REMARK    7  A    between atoms: C_12  and  C_16 
REMARK    8  A    between atoms: C_13  and  C_14 
REMARK    9  A    between atoms: C_13  and  C_15 
ROOT
HETATM    1  C   UNK     0      20.601  57.475  27.297  0.00  0.00     0.150 C 
HETATM    2  C   UNK     0      19.931  56.339  28.092  0.00  0.00     0.247 C 
HETATM    3  C   UNK     0      21.105  56.971  25.929  0.00  0.00     0.170 C 
HETATM    4  C   UNK     0      18.756  55.738  27.301  0.00  0.00     0.082 C 
HETATM    5  C   UNK     0      20.158  56.025  25.245  0.00  0.00     0.020 C 
HETATM    6  C   UNK     0      19.100  55.485  25.865  0.00  0.00     0.018 C 
ENDROOT
BRANCH   3   7
HETATM    7  O   UNK     0      21.310  58.110  25.089  0.00  0.00    -0.375 OA
BRANCH   7   8
HETATM    8  C   UNK     0      20.684  57.939  23.828  0.00  0.00     0.121 C 
BRANCH   8   9
HETATM    9  C   UNK     0      21.771  57.884  22.749  0.00  0.00     0.027 C 
HETATM   10  C   UNK     0      23.154  58.198  23.306  0.00  0.00     0.007 C 
ENDBRANCH   8   9
BRANCH   8  11
HETATM   11  C   UNK     0      19.717  59.100  23.565  0.00  0.00     0.027 C 
HETATM   12  C   UNK     0      20.050  60.342  24.381  0.00  0.00     0.007 C 
ENDBRANCH   8  11
ENDBRANCH   7   8
ENDBRANCH   3   7
BRANCH   1  13
HETATM   13  N   UNK     0      21.703  58.051  28.041  0.00  0.00    -0.352 N 
HETATM   14  C   UNK     0      21.550  59.116  28.910  0.00  0.00     0.214 C 
HETATM   15  O   UNK     0      20.498  59.698  29.160  0.00  0.00    -0.274 OA
HETATM   16  C   UNK     0      22.847  59.498  29.571  0.00  0.00     0.117 C 
HETATM   17  H   UNK     0      22.636  57.686  27.872  0.00  0.00     0.163 HD
ENDBRANCH   1  13
BRANCH   2  18
HETATM   18  N   UNK     0      19.437  56.817  29.386  0.00  0.00     0.085 N 
HETATM   19  H   UNK     0      18.464  57.103  29.294  0.00  0.00     0.313 HD
HETATM   20  H   UNK     0      19.958  57.646  29.667  0.00  0.00     0.313 HD
ENDBRANCH   2  18
BRANCH   6  21
HETATM   21  C   UNK     0      18.246  54.581  25.093  0.00  0.00     0.289 C 
HETATM   22  O   UNK     0      17.310  53.959  25.573  0.00  0.00    -0.260 OA
BRANCH  21  23
HETATM   23  O   UNK     0      18.675  54.570  23.805  0.00  0.00    -0.318 OA
BRANCH  23  24
HETATM   24  C   UNK     0      18.856  53.272  23.230  0.00  0.00     0.174 C 
HETATM   25  C   UNK     0      20.337  52.961  23.171  0.00  0.00     0.034 C 
ENDBRANCH  23  24
ENDBRANCH  21  23
ENDBRANCH   6  21
TORSDOF 9
ENDMDL
