MODEL 1
REMARK VINA RESULT:      -6.8      0.000      0.000
REMARK  9 active torsions:
REMARK  status: ('A' for Active; 'I' for Inactive)
REMARK    1  A    between atoms: O_1  and  C_9 
REMARK    2  A    between atoms: O_1  and  C_13 
REMARK    3  A    between atoms: O_2  and  C_16 
REMARK    4  A    between atoms: O_2  and  C_21 
REMARK    5  A    between atoms: N_5  and  C_7 
REMARK       I    between atoms: N_5  and  C_17 
REMARK    6  A    between atoms: N_6  and  C_8 
REMARK    7  A    between atoms: C_12  and  C_16 
REMARK    8  A    between atoms: C_13  and  C_14 
REMARK    9  A    between atoms: C_13  and  C_15 
ROOT
HETATM    1  C   UNK     0     -21.507 -45.387  25.533  0.00  0.00     0.150 C 
HETATM    2  C   UNK     0     -21.527 -46.119  24.179  0.00  0.00     0.247 C 
HETATM    3  C   UNK     0     -20.529 -44.194  25.504  0.00  0.00     0.170 C 
HETATM    4  C   UNK     0     -21.922 -45.159  23.044  0.00  0.00     0.082 C 
HETATM    5  C   UNK     0     -20.566 -43.412  24.221  0.00  0.00     0.020 C 
HETATM    6  C   UNK     0     -21.202 -43.847  23.126  0.00  0.00     0.018 C 
ENDROOT
BRANCH   3   7
HETATM    7  O   UNK     0     -20.864 -43.324  26.588  0.00  0.00    -0.375 OA
BRANCH   7   8
HETATM    8  C   UNK     0     -21.841 -42.371  26.200  0.00  0.00     0.121 C 
BRANCH   8   9
HETATM    9  C   UNK     0     -21.299 -40.970  26.504  0.00  0.00     0.027 C 
HETATM   10  C   UNK     0     -21.648 -39.965  25.413  0.00  0.00     0.007 C 
ENDBRANCH   8   9
BRANCH   8  11
HETATM   11  C   UNK     0     -23.148 -42.624  26.962  0.00  0.00     0.027 C 
HETATM   12  C   UNK     0     -22.918 -43.005  28.418  0.00  0.00     0.007 C 
ENDBRANCH   8  11
ENDBRANCH   7   8
ENDBRANCH   3   7
BRANCH   1  13
HETATM   13  N   UNK     0     -21.145 -46.290  26.608  0.00  0.00    -0.352 N 
HETATM   14  C   UNK     0     -22.033 -46.689  27.588  0.00  0.00     0.214 C 
HETATM   15  O   UNK     0     -23.209 -46.345  27.681  0.00  0.00    -0.274 OA
HETATM   16  C   UNK     0     -21.406 -47.647  28.565  0.00  0.00     0.117 C 
HETATM   17  H   UNK     0     -20.178 -46.597  26.666  0.00  0.00     0.163 HD
ENDBRANCH   1  13
BRANCH   2  18
HETATM   18  N   UNK     0     -22.466 -47.244  24.197  0.00  0.00     0.085 N 
HETATM   19  H   UNK     0     -23.142 -47.135  23.443  0.00  0.00     0.313 HD
HETATM   20  H   UNK     0     -22.996 -47.233  25.067  0.00  0.00     0.313 HD
ENDBRANCH   2  18
BRANCH   6  21
HETATM   21  C   UNK     0     -21.172 -42.994  21.936  0.00  0.00     0.289 C 
HETATM   22  O   UNK     0     -21.211 -43.425  20.794  0.00  0.00    -0.260 OA
BRANCH  21  23
HETATM   23  O   UNK     0     -21.098 -41.698  22.331  0.00  0.00    -0.318 OA
BRANCH  23  24
HETATM   24  C   UNK     0     -20.256 -40.860  21.534  0.00  0.00     0.174 C 
HETATM   25  C   UNK     0     -19.326 -40.086  22.445  0.00  0.00     0.034 C 
ENDBRANCH  23  24
ENDBRANCH  21  23
ENDBRANCH   6  21
TORSDOF 9
ENDMDL
MODEL 2
REMARK VINA RESULT:      -6.6      2.010      4.201
REMARK  9 active torsions:
REMARK  status: ('A' for Active; 'I' for Inactive)
REMARK    1  A    between atoms: O_1  and  C_9 
REMARK    2  A    between atoms: O_1  and  C_13 
REMARK    3  A    between atoms: O_2  and  C_16 
REMARK    4  A    between atoms: O_2  and  C_21 
REMARK    5  A    between atoms: N_5  and  C_7 
REMARK       I    between atoms: N_5  and  C_17 
REMARK    6  A    between atoms: N_6  and  C_8 
REMARK    7  A    between atoms: C_12  and  C_16 
REMARK    8  A    between atoms: C_13  and  C_14 
REMARK    9  A    between atoms: C_13  and  C_15 
ROOT
HETATM    1  C   UNK     0     -22.279 -44.837  27.511  0.00  0.00     0.150 C 
HETATM    2  C   UNK     0     -22.852 -43.552  28.137  0.00  0.00     0.247 C 
HETATM    3  C   UNK     0     -22.264 -44.745  25.972  0.00  0.00     0.170 C 
HETATM    4  C   UNK     0     -22.036 -42.322  27.703  0.00  0.00     0.082 C 
HETATM    5  C   UNK     0     -21.848 -43.398  25.449  0.00  0.00     0.020 C 
HETATM    6  C   UNK     0     -21.738 -42.319  26.235  0.00  0.00     0.018 C 
ENDROOT
BRANCH   3   7
HETATM    7  O   UNK     0     -21.356 -45.734  25.481  0.00  0.00    -0.375 OA
BRANCH   7   8
HETATM    8  C   UNK     0     -20.830 -45.367  24.215  0.00  0.00     0.121 C 
BRANCH   8   9
HETATM    9  C   UNK     0     -21.562 -46.173  23.135  0.00  0.00     0.027 C 
HETATM   10  C   UNK     0     -22.370 -45.283  22.198  0.00  0.00     0.007 C 
ENDBRANCH   8   9
BRANCH   8  11
HETATM   11  C   UNK     0     -19.324 -45.650  24.174  0.00  0.00     0.027 C 
HETATM   12  C   UNK     0     -18.665 -45.161  22.891  0.00  0.00     0.007 C 
ENDBRANCH   8  11
ENDBRANCH   7   8
ENDBRANCH   3   7
BRANCH   1  13
HETATM   13  N   UNK     0     -23.039 -46.000  27.924  0.00  0.00    -0.352 N 
HETATM   14  C   UNK     0     -22.484 -47.050  28.632  0.00  0.00     0.214 C 
HETATM   15  O   UNK     0     -21.313 -47.138  28.994  0.00  0.00    -0.274 OA
HETATM   16  C   UNK     0     -23.498 -48.114  28.954  0.00  0.00     0.117 C 
HETATM   17  H   UNK     0     -24.009 -46.064  27.630  0.00  0.00     0.163 HD
ENDBRANCH   1  13
BRANCH   2  18
HETATM   18  N   UNK     0     -22.854 -43.628  29.600  0.00  0.00     0.085 N 
HETATM   19  H   UNK     0     -22.247 -42.904  29.979  0.00  0.00     0.313 HD
HETATM   20  H   UNK     0     -22.462 -44.521  29.897  0.00  0.00     0.313 HD
ENDBRANCH   2  18
BRANCH   6  21
HETATM   21  C   UNK     0     -21.319 -41.062  25.611  0.00  0.00     0.289 C 
HETATM   22  O   UNK     0     -21.372 -39.978  26.172  0.00  0.00    -0.260 OA
BRANCH  21  23
HETATM   23  O   UNK     0     -20.883 -41.324  24.353  0.00  0.00    -0.318 OA
BRANCH  23  24
HETATM   24  C   UNK     0     -20.866 -40.203  23.464  0.00  0.00     0.174 C 
HETATM   25  C   UNK     0     -19.671 -40.323  22.542  0.00  0.00     0.034 C 
ENDBRANCH  23  24
ENDBRANCH  21  23
ENDBRANCH   6  21
TORSDOF 9
ENDMDL
MODEL 3
REMARK VINA RESULT:      -6.6      1.989      4.386
REMARK  9 active torsions:
REMARK  status: ('A' for Active; 'I' for Inactive)
REMARK    1  A    between atoms: O_1  and  C_9 
REMARK    2  A    between atoms: O_1  and  C_13 
REMARK    3  A    between atoms: O_2  and  C_16 
REMARK    4  A    between atoms: O_2  and  C_21 
REMARK    5  A    between atoms: N_5  and  C_7 
REMARK       I    between atoms: N_5  and  C_17 
REMARK    6  A    between atoms: N_6  and  C_8 
REMARK    7  A    between atoms: C_12  and  C_16 
REMARK    8  A    between atoms: C_13  and  C_14 
REMARK    9  A    between atoms: C_13  and  C_15 
ROOT
HETATM    1  C   UNK     0     -22.277 -44.753  27.500  0.00  0.00     0.150 C 
HETATM    2  C   UNK     0     -22.925 -43.478  28.072  0.00  0.00     0.247 C 
HETATM    3  C   UNK     0     -22.184 -44.686  25.962  0.00  0.00     0.170 C 
HETATM    4  C   UNK     0     -22.128 -42.228  27.660  0.00  0.00     0.082 C 
HETATM    5  C   UNK     0     -21.786 -43.334  25.438  0.00  0.00     0.020 C 
HETATM    6  C   UNK     0     -21.753 -42.239  26.209  0.00  0.00     0.018 C 
ENDROOT
BRANCH   3   7
HETATM    7  O   UNK     0     -21.219 -45.651  25.537  0.00  0.00    -0.375 OA
BRANCH   7   8
HETATM    8  C   UNK     0     -21.758 -46.520  24.554  0.00  0.00     0.121 C 
BRANCH   8   9
HETATM    9  C   UNK     0     -21.346 -47.956  24.897  0.00  0.00     0.027 C 
HETATM   10  C   UNK     0     -20.101 -48.006  25.774  0.00  0.00     0.007 C 
ENDBRANCH   8   9
BRANCH   8  11
HETATM   11  C   UNK     0     -21.238 -46.124  23.167  0.00  0.00     0.027 C 
HETATM   12  C   UNK     0     -22.292 -45.426  22.317  0.00  0.00     0.007 C 
ENDBRANCH   8  11
ENDBRANCH   7   8
ENDBRANCH   3   7
BRANCH   1  13
HETATM   13  N   UNK     0     -23.019 -45.934  27.894  0.00  0.00    -0.352 N 
HETATM   14  C   UNK     0     -22.452 -46.981  28.595  0.00  0.00     0.214 C 
HETATM   15  O   UNK     0     -21.283 -47.051  28.968  0.00  0.00    -0.274 OA
HETATM   16  C   UNK     0     -23.449 -48.067  28.897  0.00  0.00     0.117 C 
HETATM   17  H   UNK     0     -23.986 -46.013  27.590  0.00  0.00     0.163 HD
ENDBRANCH   1  13
BRANCH   2  18
HETATM   18  N   UNK     0     -23.002 -43.531  29.534  0.00  0.00     0.085 N 
HETATM   19  H   UNK     0     -23.587 -42.769  29.871  0.00  0.00     0.313 HD
HETATM   20  H   UNK     0     -22.075 -43.383  29.931  0.00  0.00     0.313 HD
ENDBRANCH   2  18
BRANCH   6  21
HETATM   21  C   UNK     0     -21.343 -40.979  25.585  0.00  0.00     0.289 C 
HETATM   22  O   UNK     0     -21.472 -39.888  26.119  0.00  0.00    -0.260 OA
BRANCH  21  23
HETATM   23  O   UNK     0     -20.819 -41.247  24.363  0.00  0.00    -0.318 OA
BRANCH  23  24
HETATM   24  C   UNK     0     -20.846 -40.161  23.432  0.00  0.00     0.174 C 
HETATM   25  C   UNK     0     -19.653 -40.277  22.505  0.00  0.00     0.034 C 
ENDBRANCH  23  24
ENDBRANCH  21  23
ENDBRANCH   6  21
TORSDOF 9
ENDMDL
