MODEL 1
REMARK VINA RESULT:      -5.5      0.000      0.000
REMARK  9 active torsions:
REMARK  status: ('A' for Active; 'I' for Inactive)
REMARK    1  A    between atoms: O_1  and  C_9 
REMARK    2  A    between atoms: O_1  and  C_13 
REMARK    3  A    between atoms: O_2  and  C_16 
REMARK    4  A    between atoms: O_2  and  C_21 
REMARK    5  A    between atoms: N_5  and  C_7 
REMARK       I    between atoms: N_5  and  C_17 
REMARK    6  A    between atoms: N_6  and  C_8 
REMARK    7  A    between atoms: C_12  and  C_16 
REMARK    8  A    between atoms: C_13  and  C_14 
REMARK    9  A    between atoms: C_13  and  C_15 
ROOT
HETATM    1  C   UNK     0      -6.890  -1.228 -10.613  0.00  0.00     0.150 C 
HETATM    2  C   UNK     0      -6.574  -1.694 -12.046  0.00  0.00     0.247 C 
HETATM    3  C   UNK     0      -7.292   0.261 -10.589  0.00  0.00     0.170 C 
HETATM    4  C   UNK     0      -7.782  -1.473 -12.972  0.00  0.00     0.082 C 
HETATM    5  C   UNK     0      -8.182   0.666 -11.731  0.00  0.00     0.020 C 
HETATM    6  C   UNK     0      -8.405  -0.122 -12.790  0.00  0.00     0.018 C 
ENDROOT
BRANCH   3   7
HETATM    7  O   UNK     0      -7.972   0.514  -9.358  0.00  0.00    -0.375 OA
BRANCH   7   8
HETATM    8  C   UNK     0      -9.379   0.531  -9.541  0.00  0.00     0.121 C 
BRANCH   8   9
HETATM    9  C   UNK     0      -9.950   1.743  -8.797  0.00  0.00     0.027 C 
HETATM   10  C   UNK     0     -11.018   1.349  -7.784  0.00  0.00     0.007 C 
ENDBRANCH   8   9
BRANCH   8  11
HETATM   11  C   UNK     0      -9.990  -0.770  -9.007  0.00  0.00     0.027 C 
HETATM   12  C   UNK     0     -10.634  -1.613 -10.100  0.00  0.00     0.007 C 
ENDBRANCH   8  11
ENDBRANCH   7   8
ENDBRANCH   3   7
BRANCH   1  13
HETATM   13  N   UNK     0      -5.758  -1.443  -9.734  0.00  0.00    -0.352 N 
HETATM   14  C   UNK     0      -5.863  -2.076  -8.510  0.00  0.00     0.214 C 
HETATM   15  O   UNK     0      -6.894  -2.527  -8.017  0.00  0.00    -0.274 OA
HETATM   16  C   UNK     0      -4.533  -2.190  -7.815  0.00  0.00     0.117 C 
HETATM   17  H   UNK     0      -4.859  -1.061 -10.014  0.00  0.00     0.163 HD
ENDBRANCH   1  13
BRANCH   2  18
HETATM   18  N   UNK     0      -6.206  -3.111 -12.076  0.00  0.00     0.085 N 
HETATM   19  H   UNK     0      -5.840  -3.349 -12.996  0.00  0.00     0.313 HD
HETATM   20  H   UNK     0      -7.038  -3.684 -11.937  0.00  0.00     0.313 HD
ENDBRANCH   2  18
BRANCH   6  21
HETATM   21  C   UNK     0      -9.297   0.381 -13.838  0.00  0.00     0.289 C 
HETATM   22  O   UNK     0      -9.242   0.019 -15.004  0.00  0.00    -0.260 OA
BRANCH  21  23
HETATM   23  O   UNK     0     -10.151   1.280 -13.289  0.00  0.00    -0.318 OA
BRANCH  23  24
HETATM   24  C   UNK     0     -11.532   0.905 -13.310  0.00  0.00     0.174 C 
HETATM   25  C   UNK     0     -12.170   1.299 -11.994  0.00  0.00     0.034 C 
ENDBRANCH  23  24
ENDBRANCH  21  23
ENDBRANCH   6  21
TORSDOF 9
ENDMDL
MODEL 2
REMARK VINA RESULT:      -5.4      1.988      5.500
REMARK  9 active torsions:
REMARK  status: ('A' for Active; 'I' for Inactive)
REMARK    1  A    between atoms: O_1  and  C_9 
REMARK    2  A    between atoms: O_1  and  C_13 
REMARK    3  A    between atoms: O_2  and  C_16 
REMARK    4  A    between atoms: O_2  and  C_21 
REMARK    5  A    between atoms: N_5  and  C_7 
REMARK       I    between atoms: N_5  and  C_17 
REMARK    6  A    between atoms: N_6  and  C_8 
REMARK    7  A    between atoms: C_12  and  C_16 
REMARK    8  A    between atoms: C_13  and  C_14 
REMARK    9  A    between atoms: C_13  and  C_15 
ROOT
HETATM    1  C   UNK     0      -7.945  -0.752 -11.570  0.00  0.00     0.150 C 
HETATM    2  C   UNK     0      -7.154  -2.073 -11.552  0.00  0.00     0.247 C 
HETATM    3  C   UNK     0      -8.394  -0.356 -10.149  0.00  0.00     0.170 C 
HETATM    4  C   UNK     0      -5.922  -1.960 -10.638  0.00  0.00     0.082 C 
HETATM    5  C   UNK     0      -7.351  -0.599  -9.094  0.00  0.00     0.020 C 
HETATM    6  C   UNK     0      -6.240  -1.311  -9.325  0.00  0.00     0.018 C 
ENDROOT
BRANCH   3   7
HETATM    7  O   UNK     0      -8.723   1.035 -10.163  0.00  0.00    -0.375 OA
BRANCH   7   8
HETATM    8  C   UNK     0      -8.066   1.731  -9.117  0.00  0.00     0.121 C 
BRANCH   8   9
HETATM    9  C   UNK     0      -9.127   2.283  -8.159  0.00  0.00     0.027 C 
HETATM   10  C   UNK     0      -8.830   1.937  -6.705  0.00  0.00     0.007 C 
ENDBRANCH   8   9
BRANCH   8  11
HETATM   11  C   UNK     0      -7.218   2.868  -9.700  0.00  0.00     0.027 C 
HETATM   12  C   UNK     0      -7.080   2.786 -11.214  0.00  0.00     0.007 C 
ENDBRANCH   8  11
ENDBRANCH   7   8
ENDBRANCH   3   7
BRANCH   1  13
HETATM   13  N   UNK     0      -9.102  -0.850 -12.438  0.00  0.00    -0.352 N 
HETATM   14  C   UNK     0      -9.455   0.139 -13.337  0.00  0.00     0.214 C 
HETATM   15  O   UNK     0      -8.860   1.198 -13.515  0.00  0.00    -0.274 OA
HETATM   16  C   UNK     0     -10.680  -0.229 -14.130  0.00  0.00     0.117 C 
HETATM   17  H   UNK     0      -9.705  -1.662 -12.339  0.00  0.00     0.163 HD
ENDBRANCH   1  13
BRANCH   2  18
HETATM   18  N   UNK     0      -6.712  -2.446 -12.899  0.00  0.00     0.085 N 
HETATM   19  H   UNK     0      -7.489  -2.866 -13.407  0.00  0.00     0.313 HD
HETATM   20  H   UNK     0      -5.987  -3.159 -12.836  0.00  0.00     0.313 HD
ENDBRANCH   2  18
BRANCH   6  21
HETATM   21  C   UNK     0      -5.293  -1.475  -8.219  0.00  0.00     0.289 C 
HETATM   22  O   UNK     0      -4.725  -2.527  -7.967  0.00  0.00    -0.260 OA
BRANCH  21  23
HETATM   23  O   UNK     0      -5.177  -0.292  -7.566  0.00  0.00    -0.318 OA
BRANCH  23  24
HETATM   24  C   UNK     0      -4.889  -0.389  -6.168  0.00  0.00     0.174 C 
HETATM   25  C   UNK     0      -6.190  -0.361  -5.393  0.00  0.00     0.034 C 
ENDBRANCH  23  24
ENDBRANCH  21  23
ENDBRANCH   6  21
TORSDOF 9
ENDMDL
MODEL 3
REMARK VINA RESULT:      -5.3     10.023     12.701
REMARK  9 active torsions:
REMARK  status: ('A' for Active; 'I' for Inactive)
REMARK    1  A    between atoms: O_1  and  C_9 
REMARK    2  A    between atoms: O_1  and  C_13 
REMARK    3  A    between atoms: O_2  and  C_16 
REMARK    4  A    between atoms: O_2  and  C_21 
REMARK    5  A    between atoms: N_5  and  C_7 
REMARK       I    between atoms: N_5  and  C_17 
REMARK    6  A    between atoms: N_6  and  C_8 
REMARK    7  A    between atoms: C_12  and  C_16 
REMARK    8  A    between atoms: C_13  and  C_14 
REMARK    9  A    between atoms: C_13  and  C_15 
ROOT
HETATM    1  C   UNK     0     -10.859   6.379   0.049  0.00  0.00     0.150 C 
HETATM    2  C   UNK     0     -12.282   6.948   0.200  0.00  0.00     0.247 C 
HETATM    3  C   UNK     0     -10.611   5.882  -1.390  0.00  0.00     0.170 C 
HETATM    4  C   UNK     0     -12.518   8.102  -0.789  0.00  0.00     0.082 C 
HETATM    5  C   UNK     0     -11.184   6.783  -2.449  0.00  0.00     0.020 C 
HETATM    6  C   UNK     0     -12.029   7.783  -2.169  0.00  0.00     0.018 C 
ENDROOT
BRANCH   3   7
HETATM    7  O   UNK     0      -9.199   5.779  -1.583  0.00  0.00    -0.375 OA
BRANCH   7   8
HETATM    8  C   UNK     0      -8.825   4.462  -1.955  0.00  0.00     0.121 C 
BRANCH   8   9
HETATM    9  C   UNK     0      -7.668   4.013  -1.054  0.00  0.00     0.027 C 
HETATM   10  C   UNK     0      -6.897   5.191  -0.473  0.00  0.00     0.007 C 
ENDBRANCH   8   9
BRANCH   8  11
HETATM   11  C   UNK     0      -8.404   4.437  -3.430  0.00  0.00     0.027 C 
HETATM   12  C   UNK     0      -7.215   3.522  -3.689  0.00  0.00     0.007 C 
ENDBRANCH   8  11
ENDBRANCH   7   8
ENDBRANCH   3   7
BRANCH   1  13
HETATM   13  N   UNK     0     -10.629   5.297   0.985  0.00  0.00    -0.352 N 
HETATM   14  C   UNK     0      -9.657   5.345   1.967  0.00  0.00     0.214 C 
HETATM   15  O   UNK     0      -8.882   6.276   2.171  0.00  0.00    -0.274 OA
HETATM   16  C   UNK     0      -9.649   4.103   2.817  0.00  0.00     0.117 C 
HETATM   17  H   UNK     0     -11.175   4.447   0.876  0.00  0.00     0.163 HD
ENDBRANCH   1  13
BRANCH   2  18
HETATM   18  N   UNK     0     -12.517   7.434   1.562  0.00  0.00     0.085 N 
HETATM   19  H   UNK     0     -11.709   7.967   1.877  0.00  0.00     0.313 HD
HETATM   20  H   UNK     0     -12.609   6.643   2.198  0.00  0.00     0.313 HD
ENDBRANCH   2  18
BRANCH   6  21
HETATM   21  C   UNK     0     -12.516   8.597  -3.286  0.00  0.00     0.289 C 
HETATM   22  O   UNK     0     -12.018   9.663  -3.613  0.00  0.00    -0.260 OA
BRANCH  21  23
HETATM   23  O   UNK     0     -13.573   7.966  -3.857  0.00  0.00    -0.318 OA
BRANCH  23  24
HETATM   24  C   UNK     0     -14.803   8.697  -3.846  0.00  0.00     0.174 C 
HETATM   25  C   UNK     0     -15.689   8.155  -2.744  0.00  0.00     0.034 C 
ENDBRANCH  23  24
ENDBRANCH  21  23
ENDBRANCH   6  21
TORSDOF 9
ENDMDL
