MODEL 1
REMARK VINA RESULT:      -6.4      0.000      0.000
REMARK  4 active torsions:
REMARK  status: ('A' for Active; 'I' for Inactive)
REMARK    1  A    between atoms: O_2  and  C_11 
REMARK    2  A    between atoms: O_2  and  C_17 
REMARK    3  A    between atoms: C_6  and  C_12 
REMARK    4  A    between atoms: C_7  and  C_11 
ROOT
HETATM    1  N   UNK     0      42.876  17.211   8.383  0.00  0.00     0.083 N 
HETATM    2  C   UNK     0      40.076  17.218   7.509  0.00  0.00     0.028 C 
HETATM    3  C   UNK     0      40.815  15.907   7.882  0.00  0.00     0.046 C 
HETATM    4  C   UNK     0      41.089  18.296   7.078  0.00  0.00     0.040 C 
HETATM    5  C   UNK     0      41.948  16.199   8.885  0.00  0.00     0.276 C 
HETATM    6  C   UNK     0      42.191  18.473   8.119  0.00  0.00     0.270 C 
HETATM    7  H   UNK     0      43.297  16.874   7.517  0.00  0.00     0.315 HD
ENDROOT
BRANCH   3   8
HETATM    8  C   UNK     0      39.865  14.861   8.477  0.00  0.00     0.182 C 
BRANCH   8   9
HETATM    9  O   UNK     0      40.147  13.613   7.875  0.00  0.00    -0.351 OA
BRANCH   9  10
HETATM   10  C   UNK     0      39.719  13.432   6.582  0.00  0.00     0.071 A 
HETATM   11  C   UNK     0      38.355  13.400   6.313  0.00  0.00     0.076 A 
HETATM   12  C   UNK     0      37.974  13.215   4.999  0.00  0.00     0.107 A 
HETATM   13  O   UNK     0      36.695  13.155   4.539  0.00  0.00    -0.323 OA
HETATM   14  C   UNK     0      38.900  13.069   3.991  0.00  0.00     0.105 A 
HETATM   15  C   UNK     0      36.918  12.955   3.128  0.00  0.00     0.352 A 
HETATM   16  O   UNK     0      38.315  12.900   2.774  0.00  0.00    -0.323 OA
HETATM   17  C   UNK     0      40.256  13.099   4.240  0.00  0.00     0.042 A 
HETATM   18  C   UNK     0      40.669  13.284   5.563  0.00  0.00     0.039 A 
ENDBRANCH   9  10
ENDBRANCH   8   9
ENDBRANCH   3   8
BRANCH   2  19
HETATM   19  C   UNK     0      39.008  17.038   6.443  0.00  0.00    -0.053 A 
HETATM   20  C   UNK     0      39.379  16.811   5.121  0.00  0.00     0.010 A 
HETATM   21  C   UNK     0      38.400  16.646   4.143  0.00  0.00     0.043 A 
HETATM   22  C   UNK     0      37.049  16.708   4.491  0.00  0.00     0.116 A 
HETATM   23  F   UNK     0      36.108  16.550   3.551  0.00  0.00    -0.206 F 
HETATM   24  C   UNK     0      36.681  16.935   5.817  0.00  0.00     0.043 A 
HETATM   25  C   UNK     0      37.662  17.101   6.795  0.00  0.00     0.010 A 
ENDBRANCH   2  19
TORSDOF 4
ENDMDL
MODEL 2
REMARK VINA RESULT:      -6.4     28.676     30.651
REMARK  4 active torsions:
REMARK  status: ('A' for Active; 'I' for Inactive)
REMARK    1  A    between atoms: O_2  and  C_11 
REMARK    2  A    between atoms: O_2  and  C_17 
REMARK    3  A    between atoms: C_6  and  C_12 
REMARK    4  A    between atoms: C_7  and  C_11 
ROOT
HETATM    1  N   UNK     0      36.230  34.449  30.847  0.00  0.00     0.083 N 
HETATM    2  C   UNK     0      34.412  34.099  28.571  0.00  0.00     0.028 C 
HETATM    3  C   UNK     0      34.156  35.163  29.669  0.00  0.00     0.046 C 
HETATM    4  C   UNK     0      35.281  32.956  29.131  0.00  0.00     0.040 C 
HETATM    5  C   UNK     0      35.485  35.591  30.319  0.00  0.00     0.276 C 
HETATM    6  C   UNK     0      36.549  33.492  29.791  0.00  0.00     0.270 C 
HETATM    7  H   UNK     0      35.664  33.984  31.557  0.00  0.00     0.315 HD
ENDROOT
BRANCH   3   8
HETATM    8  C   UNK     0      33.439  36.399  29.114  0.00  0.00     0.182 C 
BRANCH   8   9
HETATM    9  O   UNK     0      34.252  36.970  28.109  0.00  0.00    -0.351 OA
BRANCH   9  10
HETATM   10  C   UNK     0      33.621  37.706  27.136  0.00  0.00     0.071 A 
HETATM   11  C   UNK     0      34.287  38.778  26.551  0.00  0.00     0.076 A 
HETATM   12  C   UNK     0      33.612  39.487  25.579  0.00  0.00     0.107 A 
HETATM   13  O   UNK     0      34.092  40.561  24.895  0.00  0.00    -0.323 OA
HETATM   14  C   UNK     0      32.332  39.154  25.196  0.00  0.00     0.105 A 
HETATM   15  C   UNK     0      32.972  40.867  24.040  0.00  0.00     0.352 A 
HETATM   16  O   UNK     0      31.852  39.977  24.226  0.00  0.00    -0.323 OA
HETATM   17  C   UNK     0      31.658  38.093  25.766  0.00  0.00     0.042 A 
HETATM   18  C   UNK     0      32.319  37.359  26.754  0.00  0.00     0.039 A 
ENDBRANCH   9  10
ENDBRANCH   8   9
ENDBRANCH   3   8
BRANCH   2  19
HETATM   19  C   UNK     0      33.143  33.542  27.948  0.00  0.00    -0.053 A 
HETATM   20  C   UNK     0      32.915  33.697  26.584  0.00  0.00     0.010 A 
HETATM   21  C   UNK     0      31.750  33.187  26.012  0.00  0.00     0.043 A 
HETATM   22  C   UNK     0      30.816  32.521  26.808  0.00  0.00     0.116 A 
HETATM   23  F   UNK     0      29.697  32.031  26.259  0.00  0.00    -0.206 F 
HETATM   24  C   UNK     0      31.049  32.367  28.175  0.00  0.00     0.043 A 
HETATM   25  C   UNK     0      32.214  32.879  28.746  0.00  0.00     0.010 A 
ENDBRANCH   2  19
TORSDOF 4
ENDMDL
MODEL 3
REMARK VINA RESULT:      -6.3     28.472     30.530
REMARK  4 active torsions:
REMARK  status: ('A' for Active; 'I' for Inactive)
REMARK    1  A    between atoms: O_2  and  C_11 
REMARK    2  A    between atoms: O_2  and  C_17 
REMARK    3  A    between atoms: C_6  and  C_12 
REMARK    4  A    between atoms: C_7  and  C_11 
ROOT
HETATM    1  N   UNK     0      35.945  34.162  31.115  0.00  0.00     0.083 N 
HETATM    2  C   UNK     0      34.293  33.912  28.704  0.00  0.00     0.028 C 
HETATM    3  C   UNK     0      33.972  34.946  29.814  0.00  0.00     0.046 C 
HETATM    4  C   UNK     0      35.104  32.739  29.287  0.00  0.00     0.040 C 
HETATM    5  C   UNK     0      35.257  35.332  30.572  0.00  0.00     0.276 C 
HETATM    6  C   UNK     0      36.327  33.233  30.054  0.00  0.00     0.270 C 
HETATM    7  H   UNK     0      35.323  33.684  31.767  0.00  0.00     0.315 HD
ENDROOT
BRANCH   3   8
HETATM    8  C   UNK     0      33.314  36.210  29.250  0.00  0.00     0.182 C 
BRANCH   8   9
HETATM    9  O   UNK     0      34.165  36.747  28.257  0.00  0.00    -0.351 OA
BRANCH   9  10
HETATM   10  C   UNK     0      33.585  37.545  27.300  0.00  0.00     0.071 A 
HETATM   11  C   UNK     0      32.312  37.234  26.834  0.00  0.00     0.076 A 
HETATM   12  C   UNK     0      31.772  38.065  25.873  0.00  0.00     0.107 A 
HETATM   13  O   UNK     0      30.547  37.927  25.296  0.00  0.00    -0.323 OA
HETATM   14  C   UNK     0      32.456  39.158  25.392  0.00  0.00     0.105 A 
HETATM   15  C   UNK     0      30.537  39.056  24.398  0.00  0.00     0.352 A 
HETATM   16  O   UNK     0      31.746  39.840  24.454  0.00  0.00    -0.323 OA
HETATM   17  C   UNK     0      33.719  39.480  25.845  0.00  0.00     0.042 A 
HETATM   18  C   UNK     0      34.290  38.654  26.817  0.00  0.00     0.039 A 
ENDBRANCH   9  10
ENDBRANCH   8   9
ENDBRANCH   3   8
BRANCH   2  19
HETATM   19  C   UNK     0      33.065  33.396  27.973  0.00  0.00    -0.053 A 
HETATM   20  C   UNK     0      32.972  33.534  26.591  0.00  0.00     0.010 A 
HETATM   21  C   UNK     0      31.845  33.061  25.920  0.00  0.00     0.043 A 
HETATM   22  C   UNK     0      30.814  32.448  26.634  0.00  0.00     0.116 A 
HETATM   23  F   UNK     0      29.732  31.993  25.990  0.00  0.00    -0.206 F 
HETATM   24  C   UNK     0      30.912  32.311  28.019  0.00  0.00     0.043 A 
HETATM   25  C   UNK     0      32.039  32.786  28.689  0.00  0.00     0.010 A 
ENDBRANCH   2  19
TORSDOF 4
ENDMDL
