MODEL 1
REMARK VINA RESULT:      -7.8      0.000      0.000
REMARK  4 active torsions:
REMARK  status: ('A' for Active; 'I' for Inactive)
REMARK    1  A    between atoms: O_2  and  C_11 
REMARK    2  A    between atoms: O_2  and  C_17 
REMARK    3  A    between atoms: C_6  and  C_12 
REMARK    4  A    between atoms: C_7  and  C_11 
ROOT
HETATM    1  N   UNK     0      10.479  10.365   4.568  0.00  0.00     0.083 N 
HETATM    2  C   UNK     0       8.352  11.957   5.810  0.00  0.00     0.028 C 
HETATM    3  C   UNK     0       9.704  12.585   5.384  0.00  0.00     0.046 C 
HETATM    4  C   UNK     0       8.524  10.448   6.066  0.00  0.00     0.040 C 
HETATM    5  C   UNK     0      10.327  11.779   4.228  0.00  0.00     0.276 C 
HETATM    6  C   UNK     0       9.190   9.754   4.881  0.00  0.00     0.270 C 
HETATM    7  H   UNK     0      11.091  10.283   5.379  0.00  0.00     0.315 HD
ENDROOT
BRANCH   3   8
HETATM    8  C   UNK     0       9.547  14.050   4.956  0.00  0.00     0.182 C 
BRANCH   8   9
HETATM    9  O   UNK     0       8.572  14.111   3.935  0.00  0.00    -0.351 OA
BRANCH   9  10
HETATM   10  C   UNK     0       8.981  14.569   2.706  0.00  0.00     0.071 A 
HETATM   11  C   UNK     0      10.274  15.060   2.557  0.00  0.00     0.076 A 
HETATM   12  C   UNK     0      10.639  15.508   1.304  0.00  0.00     0.107 A 
HETATM   13  O   UNK     0      11.852  16.022   0.961  0.00  0.00    -0.323 OA
HETATM   14  C   UNK     0       9.767  15.471   0.239  0.00  0.00     0.105 A 
HETATM   15  C   UNK     0      11.645  16.304  -0.439  0.00  0.00     0.352 A 
HETATM   16  O   UNK     0      10.325  15.957  -0.902  0.00  0.00    -0.323 OA
HETATM   17  C   UNK     0       8.482  14.985   0.370  0.00  0.00     0.042 A 
HETATM   18  C   UNK     0       8.087  14.527   1.629  0.00  0.00     0.039 A 
ENDBRANCH   9  10
ENDBRANCH   8   9
ENDBRANCH   3   8
BRANCH   2  19
HETATM   19  C   UNK     0       7.716  12.630   7.016  0.00  0.00    -0.053 A 
HETATM   20  C   UNK     0       8.394  12.656   8.232  0.00  0.00     0.010 A 
HETATM   21  C   UNK     0       7.811  13.273   9.338  0.00  0.00     0.043 A 
HETATM   22  C   UNK     0       6.551  13.863   9.224  0.00  0.00     0.116 A 
HETATM   23  F   UNK     0       5.991  14.455  10.287  0.00  0.00    -0.206 F 
HETATM   24  C   UNK     0       5.875  13.834   8.004  0.00  0.00     0.043 A 
HETATM   25  C   UNK     0       6.459  13.216   6.898  0.00  0.00     0.010 A 
ENDBRANCH   2  19
TORSDOF 4
ENDMDL
MODEL 2
REMARK VINA RESULT:      -7.7      3.265      6.255
REMARK  4 active torsions:
REMARK  status: ('A' for Active; 'I' for Inactive)
REMARK    1  A    between atoms: O_2  and  C_11 
REMARK    2  A    between atoms: O_2  and  C_17 
REMARK    3  A    between atoms: C_6  and  C_12 
REMARK    4  A    between atoms: C_7  and  C_11 
ROOT
HETATM    1  N   UNK     0      13.778  16.055   0.475  0.00  0.00     0.083 N 
HETATM    2  C   UNK     0      11.527  16.102   2.356  0.00  0.00     0.028 C 
HETATM    3  C   UNK     0      12.803  15.263   2.625  0.00  0.00     0.046 C 
HETATM    4  C   UNK     0      11.358  16.344   0.844  0.00  0.00     0.040 C 
HETATM    5  C   UNK     0      14.015  15.888   1.909  0.00  0.00     0.276 C 
HETATM    6  C   UNK     0      12.629  16.921   0.226  0.00  0.00     0.270 C 
HETATM    7  H   UNK     0      13.600  15.140   0.060  0.00  0.00     0.315 HD
ENDROOT
BRANCH   3   8
HETATM    8  C   UNK     0      13.105  15.140   4.123  0.00  0.00     0.182 C 
BRANCH   8   9
HETATM    9  O   UNK     0      13.354  13.779   4.415  0.00  0.00    -0.351 OA
BRANCH   9  10
HETATM   10  C   UNK     0      12.261  12.963   4.576  0.00  0.00     0.071 A 
HETATM   11  C   UNK     0      11.408  13.170   5.655  0.00  0.00     0.076 A 
HETATM   12  C   UNK     0      10.324  12.324   5.774  0.00  0.00     0.107 A 
HETATM   13  O   UNK     0       9.383  12.366   6.757  0.00  0.00    -0.323 OA
HETATM   14  C   UNK     0      10.087  11.317   4.866  0.00  0.00     0.105 A 
HETATM   15  C   UNK     0       8.527  11.273   6.365  0.00  0.00     0.352 A 
HETATM   16  O   UNK     0       8.969  10.604   5.167  0.00  0.00    -0.323 OA
HETATM   17  C   UNK     0      10.922  11.099   3.790  0.00  0.00     0.042 A 
HETATM   18  C   UNK     0      12.029  11.941   3.647  0.00  0.00     0.039 A 
ENDBRANCH   9  10
ENDBRANCH   8   9
ENDBRANCH   3   8
BRANCH   2  19
HETATM   19  C   UNK     0      10.261  15.499   2.941  0.00  0.00    -0.053 A 
HETATM   20  C   UNK     0       9.598  14.483   2.258  0.00  0.00     0.010 A 
HETATM   21  C   UNK     0       8.436  13.929   2.794  0.00  0.00     0.043 A 
HETATM   22  C   UNK     0       7.942  14.392   4.014  0.00  0.00     0.116 A 
HETATM   23  F   UNK     0       6.826  13.861   4.530  0.00  0.00    -0.206 F 
HETATM   24  C   UNK     0       8.609  15.410   4.696  0.00  0.00     0.043 A 
HETATM   25  C   UNK     0       9.771  15.964   4.158  0.00  0.00     0.010 A 
ENDBRANCH   2  19
TORSDOF 4
ENDMDL
MODEL 3
REMARK VINA RESULT:      -7.7      0.827      1.846
REMARK  4 active torsions:
REMARK  status: ('A' for Active; 'I' for Inactive)
REMARK    1  A    between atoms: O_2  and  C_11 
REMARK    2  A    between atoms: O_2  and  C_17 
REMARK    3  A    between atoms: C_6  and  C_12 
REMARK    4  A    between atoms: C_7  and  C_11 
ROOT
HETATM    1  N   UNK     0      10.272  10.645   4.524  0.00  0.00     0.083 N 
HETATM    2  C   UNK     0       8.142  12.100   5.920  0.00  0.00     0.028 C 
HETATM    3  C   UNK     0       9.402  12.818   5.373  0.00  0.00     0.046 C 
HETATM    4  C   UNK     0       8.448  10.613   6.181  0.00  0.00     0.040 C 
HETATM    5  C   UNK     0       9.986  12.038   4.180  0.00  0.00     0.276 C 
HETATM    6  C   UNK     0       9.063   9.947   4.953  0.00  0.00     0.270 C 
HETATM    7  H   UNK     0      10.954  10.625   5.283  0.00  0.00     0.315 HD
ENDROOT
BRANCH   3   8
HETATM    8  C   UNK     0       9.101  14.258   4.941  0.00  0.00     0.182 C 
BRANCH   8   9
HETATM    9  O   UNK     0       9.012  14.288   3.530  0.00  0.00    -0.351 OA
BRANCH   9  10
HETATM   10  C   UNK     0       9.969  15.009   2.858  0.00  0.00     0.071 A 
HETATM   11  C   UNK     0      10.015  14.952   1.469  0.00  0.00     0.076 A 
HETATM   12  C   UNK     0      10.994  15.692   0.839  0.00  0.00     0.107 A 
HETATM   13  O   UNK     0      11.199  15.765  -0.505  0.00  0.00    -0.323 OA
HETATM   14  C   UNK     0      11.891  16.459   1.547  0.00  0.00     0.105 A 
HETATM   15  C   UNK     0      12.326  16.664  -0.563  0.00  0.00     0.352 A 
HETATM   16  O   UNK     0      12.769  17.108   0.736  0.00  0.00    -0.323 OA
HETATM   17  C   UNK     0      11.858  16.527   2.924  0.00  0.00     0.042 A 
HETATM   18  C   UNK     0      10.877  15.785   3.588  0.00  0.00     0.039 A 
ENDBRANCH   9  10
ENDBRANCH   8   9
ENDBRANCH   3   8
BRANCH   2  19
HETATM   19  C   UNK     0       7.560  12.747   7.166  0.00  0.00    -0.053 A 
HETATM   20  C   UNK     0       6.277  13.287   7.133  0.00  0.00     0.010 A 
HETATM   21  C   UNK     0       5.743  13.880   8.276  0.00  0.00     0.043 A 
HETATM   22  C   UNK     0       6.495  13.932   9.451  0.00  0.00     0.116 A 
HETATM   23  F   UNK     0       5.982  14.502  10.549  0.00  0.00    -0.206 F 
HETATM   24  C   UNK     0       7.780  13.390   9.480  0.00  0.00     0.043 A 
HETATM   25  C   UNK     0       8.313  12.797   8.336  0.00  0.00     0.010 A 
ENDBRANCH   2  19
TORSDOF 4
ENDMDL
