MODEL 1
REMARK VINA RESULT:      -8.0      0.000      0.000
REMARK  4 active torsions:
REMARK  status: ('A' for Active; 'I' for Inactive)
REMARK    1  A    between atoms: O_2  and  C_11 
REMARK    2  A    between atoms: O_2  and  C_17 
REMARK    3  A    between atoms: C_6  and  C_12 
REMARK    4  A    between atoms: C_7  and  C_11 
ROOT
HETATM    1  N   UNK     0     -30.893 -17.654  28.523  0.00  0.00     0.083 N 
HETATM    2  C   UNK     0     -28.346 -18.139  27.152  0.00  0.00     0.028 C 
HETATM    3  C   UNK     0     -28.517 -16.993  28.183  0.00  0.00     0.046 C 
HETATM    4  C   UNK     0     -29.709 -18.510  26.539  0.00  0.00     0.040 C 
HETATM    5  C   UNK     0     -29.629 -17.342  29.189  0.00  0.00     0.276 C 
HETATM    6  C   UNK     0     -30.749 -18.792  27.620  0.00  0.00     0.270 C 
HETATM    7  H   UNK     0     -31.193 -16.840  27.986  0.00  0.00     0.315 HD
ENDROOT
BRANCH   3   8
HETATM    8  C   UNK     0     -27.216 -16.704  28.941  0.00  0.00     0.182 C 
BRANCH   8   9
HETATM    9  O   UNK     0     -26.883 -15.344  28.747  0.00  0.00    -0.351 OA
BRANCH   9  10
HETATM   10  C   UNK     0     -25.564 -14.993  28.907  0.00  0.00     0.071 A 
HETATM   11  C   UNK     0     -24.842 -14.534  27.810  0.00  0.00     0.076 A 
HETATM   12  C   UNK     0     -23.522 -14.195  28.020  0.00  0.00     0.107 A 
HETATM   13  O   UNK     0     -22.657 -13.729  27.078  0.00  0.00    -0.323 OA
HETATM   14  C   UNK     0     -22.935 -14.300  29.261  0.00  0.00     0.105 A 
HETATM   15  C   UNK     0     -21.461 -13.554  27.865  0.00  0.00     0.352 A 
HETATM   16  O   UNK     0     -21.631 -13.915  29.251  0.00  0.00    -0.323 OA
HETATM   17  C   UNK     0     -23.638 -14.753  30.359  0.00  0.00     0.042 A 
HETATM   18  C   UNK     0     -24.977 -15.105  30.173  0.00  0.00     0.039 A 
ENDBRANCH   9  10
ENDBRANCH   8   9
ENDBRANCH   3   8
BRANCH   2  19
HETATM   19  C   UNK     0     -27.338 -17.832  26.056  0.00  0.00    -0.053 A 
HETATM   20  C   UNK     0     -26.379 -18.781  25.711  0.00  0.00     0.010 A 
HETATM   21  C   UNK     0     -25.455 -18.500  24.706  0.00  0.00     0.043 A 
HETATM   22  C   UNK     0     -25.493 -17.270  24.047  0.00  0.00     0.116 A 
HETATM   23  F   UNK     0     -24.605 -17.000  23.082  0.00  0.00    -0.206 F 
HETATM   24  C   UNK     0     -26.455 -16.322  24.396  0.00  0.00     0.043 A 
HETATM   25  C   UNK     0     -27.379 -16.604  25.402  0.00  0.00     0.010 A 
ENDBRANCH   2  19
TORSDOF 4
ENDMDL
MODEL 2
REMARK VINA RESULT:      -7.6      2.674      4.131
REMARK  4 active torsions:
REMARK  status: ('A' for Active; 'I' for Inactive)
REMARK    1  A    between atoms: O_2  and  C_11 
REMARK    2  A    between atoms: O_2  and  C_17 
REMARK    3  A    between atoms: C_6  and  C_12 
REMARK    4  A    between atoms: C_7  and  C_11 
ROOT
HETATM    1  N   UNK     0     -33.766 -19.578  30.131  0.00  0.00     0.083 N 
HETATM    2  C   UNK     0     -31.392 -18.764  28.613  0.00  0.00     0.028 C 
HETATM    3  C   UNK     0     -31.723 -18.162  30.003  0.00  0.00     0.046 C 
HETATM    4  C   UNK     0     -32.676 -19.286  27.940  0.00  0.00     0.040 C 
HETATM    5  C   UNK     0     -32.554 -19.158  30.833  0.00  0.00     0.276 C 
HETATM    6  C   UNK     0     -33.446 -20.227  28.863  0.00  0.00     0.270 C 
HETATM    7  H   UNK     0     -34.344 -18.757  29.947  0.00  0.00     0.315 HD
ENDROOT
BRANCH   3   8
HETATM    8  C   UNK     0     -30.457 -17.783  30.780  0.00  0.00     0.182 C 
BRANCH   8   9
HETATM    9  O   UNK     0     -30.380 -16.372  30.842  0.00  0.00    -0.351 OA
BRANCH   9  10
HETATM   10  C   UNK     0     -29.262 -15.782  30.304  0.00  0.00     0.071 A 
HETATM   11  C   UNK     0     -28.030 -16.416  30.430  0.00  0.00     0.076 A 
HETATM   12  C   UNK     0     -26.936 -15.784  29.873  0.00  0.00     0.107 A 
HETATM   13  O   UNK     0     -25.655 -16.242  29.892  0.00  0.00    -0.323 OA
HETATM   14  C   UNK     0     -27.051 -14.579  29.218  0.00  0.00     0.105 A 
HETATM   15  C   UNK     0     -24.976 -15.190  29.176  0.00  0.00     0.352 A 
HETATM   16  O   UNK     0     -25.856 -14.132  28.746  0.00  0.00    -0.323 OA
HETATM   17  C   UNK     0     -28.266 -13.939  29.085  0.00  0.00     0.042 A 
HETATM   18  C   UNK     0     -29.389 -14.556  29.641  0.00  0.00     0.039 A 
ENDBRANCH   9  10
ENDBRANCH   8   9
ENDBRANCH   3   8
BRANCH   2  19
HETATM   19  C   UNK     0     -30.661 -17.806  27.687  0.00  0.00    -0.053 A 
HETATM   20  C   UNK     0     -29.353 -18.080  27.298  0.00  0.00     0.010 A 
HETATM   21  C   UNK     0     -28.682 -17.200  26.449  0.00  0.00     0.043 A 
HETATM   22  C   UNK     0     -29.324 -16.049  25.990  0.00  0.00     0.116 A 
HETATM   23  F   UNK     0     -28.680 -15.204  25.174  0.00  0.00    -0.206 F 
HETATM   24  C   UNK     0     -30.635 -15.778  26.381  0.00  0.00     0.043 A 
HETATM   25  C   UNK     0     -31.305 -16.658  27.232  0.00  0.00     0.010 A 
ENDBRANCH   2  19
TORSDOF 4
ENDMDL
MODEL 3
REMARK VINA RESULT:      -7.6     30.314     32.833
REMARK  4 active torsions:
REMARK  status: ('A' for Active; 'I' for Inactive)
REMARK    1  A    between atoms: O_2  and  C_11 
REMARK    2  A    between atoms: O_2  and  C_17 
REMARK    3  A    between atoms: C_6  and  C_12 
REMARK    4  A    between atoms: C_7  and  C_11 
ROOT
HETATM    1  N   UNK     0     -20.530  12.843  21.773  0.00  0.00     0.083 N 
HETATM    2  C   UNK     0     -19.312  12.944  19.107  0.00  0.00     0.028 C 
HETATM    3  C   UNK     0     -20.805  12.581  19.313  0.00  0.00     0.046 C 
HETATM    4  C   UNK     0     -18.507  12.629  20.382  0.00  0.00     0.040 C 
HETATM    5  C   UNK     0     -21.336  13.217  20.611  0.00  0.00     0.276 C 
HETATM    6  C   UNK     0     -19.142  13.268  21.614  0.00  0.00     0.270 C 
HETATM    7  H   UNK     0     -20.556  11.829  21.882  0.00  0.00     0.315 HD
ENDROOT
BRANCH   3   8
HETATM    8  C   UNK     0     -21.674  13.032  18.133  0.00  0.00     0.182 C 
BRANCH   8   9
HETATM    9  O   UNK     0     -22.093  14.360  18.373  0.00  0.00    -0.351 OA
BRANCH   9  10
HETATM   10  C   UNK     0     -21.852  15.281  17.383  0.00  0.00     0.071 A 
HETATM   11  C   UNK     0     -22.466  16.528  17.446  0.00  0.00     0.076 A 
HETATM   12  C   UNK     0     -22.193  17.419  16.429  0.00  0.00     0.107 A 
HETATM   13  O   UNK     0     -22.695  18.679  16.314  0.00  0.00    -0.323 OA
HETATM   14  C   UNK     0     -21.347  17.097  15.392  0.00  0.00     0.105 A 
HETATM   15  C   UNK     0     -22.070  19.114  15.089  0.00  0.00     0.352 A 
HETATM   16  O   UNK     0     -21.214  18.114  14.499  0.00  0.00    -0.323 OA
HETATM   17  C   UNK     0     -20.729  15.866  15.315  0.00  0.00     0.042 A 
HETATM   18  C   UNK     0     -20.990  14.944  16.332  0.00  0.00     0.039 A 
ENDBRANCH   9  10
ENDBRANCH   8   9
ENDBRANCH   3   8
BRANCH   2  19
HETATM   19  C   UNK     0     -18.678  12.271  17.900  0.00  0.00    -0.053 A 
HETATM   20  C   UNK     0     -18.465  10.896  17.906  0.00  0.00     0.010 A 
HETATM   21  C   UNK     0     -17.883  10.279  16.800  0.00  0.00     0.043 A 
HETATM   22  C   UNK     0     -17.516  11.040  15.689  0.00  0.00     0.116 A 
HETATM   23  F   UNK     0     -16.957  10.447  14.626  0.00  0.00    -0.206 F 
HETATM   24  C   UNK     0     -17.732  12.418  15.687  0.00  0.00     0.043 A 
HETATM   25  C   UNK     0     -18.314  13.035  16.795  0.00  0.00     0.010 A 
ENDBRANCH   2  19
TORSDOF 4
ENDMDL
