MODEL 1
REMARK VINA RESULT:      -8.4      0.000      0.000
REMARK  4 active torsions:
REMARK  status: ('A' for Active; 'I' for Inactive)
REMARK    1  A    between atoms: O_2  and  C_11 
REMARK    2  A    between atoms: O_2  and  C_17 
REMARK    3  A    between atoms: C_6  and  C_12 
REMARK    4  A    between atoms: C_7  and  C_11 
ROOT
HETATM    1  N   UNK     0     -25.839 -17.189  32.384  0.00  0.00     0.083 N 
HETATM    2  C   UNK     0     -24.144 -15.149  31.131  0.00  0.00     0.028 C 
HETATM    3  C   UNK     0     -25.239 -15.906  30.336  0.00  0.00     0.046 C 
HETATM    4  C   UNK     0     -23.688 -15.988  32.340  0.00  0.00     0.040 C 
HETATM    5  C   UNK     0     -26.358 -16.377  31.284  0.00  0.00     0.276 C 
HETATM    6  C   UNK     0     -24.875 -16.440  33.186  0.00  0.00     0.270 C 
HETATM    7  H   UNK     0     -25.380 -18.015  31.999  0.00  0.00     0.315 HD
ENDROOT
BRANCH   3   8
HETATM    8  C   UNK     0     -25.843 -15.042  29.224  0.00  0.00     0.182 C 
BRANCH   8   9
HETATM    9  O   UNK     0     -26.515 -15.893  28.317  0.00  0.00    -0.351 OA
BRANCH   9  10
HETATM   10  C   UNK     0     -27.824 -15.592  28.029  0.00  0.00     0.071 A 
HETATM   11  C   UNK     0     -28.449 -16.222  26.957  0.00  0.00     0.076 A 
HETATM   12  C   UNK     0     -29.764 -15.888  26.708  0.00  0.00     0.107 A 
HETATM   13  O   UNK     0     -30.541 -16.392  25.711  0.00  0.00    -0.323 OA
HETATM   14  C   UNK     0     -30.438 -14.971  27.483  0.00  0.00     0.105 A 
HETATM   15  C   UNK     0     -31.779 -15.691  25.945  0.00  0.00     0.352 A 
HETATM   16  O   UNK     0     -31.720 -14.788  27.068  0.00  0.00    -0.323 OA
HETATM   17  C   UNK     0     -29.833 -14.339  28.549  0.00  0.00     0.042 A 
HETATM   18  C   UNK     0     -28.501 -14.658  28.823  0.00  0.00     0.039 A 
ENDBRANCH   9  10
ENDBRANCH   8   9
ENDBRANCH   3   8
BRANCH   2  19
HETATM   19  C   UNK     0     -22.948 -14.738  30.289  0.00  0.00    -0.053 A 
HETATM   20  C   UNK     0     -21.685 -15.242  30.587  0.00  0.00     0.010 A 
HETATM   21  C   UNK     0     -20.587 -14.865  29.815  0.00  0.00     0.043 A 
HETATM   22  C   UNK     0     -20.756 -13.986  28.744  0.00  0.00     0.116 A 
HETATM   23  F   UNK     0     -19.702 -13.624  28.002  0.00  0.00    -0.206 F 
HETATM   24  C   UNK     0     -22.024 -13.483  28.449  0.00  0.00     0.043 A 
HETATM   25  C   UNK     0     -23.121 -13.860  29.223  0.00  0.00     0.010 A 
ENDBRANCH   2  19
TORSDOF 4
ENDMDL
MODEL 2
REMARK VINA RESULT:      -8.3      2.799      4.279
REMARK  4 active torsions:
REMARK  status: ('A' for Active; 'I' for Inactive)
REMARK    1  A    between atoms: O_2  and  C_11 
REMARK    2  A    between atoms: O_2  and  C_17 
REMARK    3  A    between atoms: C_6  and  C_12 
REMARK    4  A    between atoms: C_7  and  C_11 
ROOT
HETATM    1  N   UNK     0     -22.645 -13.969  29.596  0.00  0.00     0.083 N 
HETATM    2  C   UNK     0     -23.549 -15.788  31.713  0.00  0.00     0.028 C 
HETATM    3  C   UNK     0     -24.533 -14.863  30.951  0.00  0.00     0.046 C 
HETATM    4  C   UNK     0     -22.124 -15.203  31.665  0.00  0.00     0.040 C 
HETATM    5  C   UNK     0     -23.988 -14.545  29.546  0.00  0.00     0.276 C 
HETATM    6  C   UNK     0     -21.701 -14.883  30.234  0.00  0.00     0.270 C 
HETATM    7  H   UNK     0     -22.677 -13.100  30.129  0.00  0.00     0.315 HD
ENDROOT
BRANCH   3   8
HETATM    8  C   UNK     0     -25.928 -15.486  30.828  0.00  0.00     0.182 C 
BRANCH   8   9
HETATM    9  O   UNK     0     -26.252 -15.579  29.455  0.00  0.00    -0.351 OA
BRANCH   9  10
HETATM   10  C   UNK     0     -27.507 -15.165  29.079  0.00  0.00     0.071 A 
HETATM   11  C   UNK     0     -28.191 -15.871  28.094  0.00  0.00     0.076 A 
HETATM   12  C   UNK     0     -29.448 -15.417  27.750  0.00  0.00     0.107 A 
HETATM   13  O   UNK     0     -30.269 -15.969  26.815  0.00  0.00    -0.323 OA
HETATM   14  C   UNK     0     -30.010 -14.314  28.353  0.00  0.00     0.105 A 
HETATM   15  C   UNK     0     -31.409 -15.090  26.896  0.00  0.00     0.352 A 
HETATM   16  O   UNK     0     -31.251 -14.038  27.870  0.00  0.00    -0.323 OA
HETATM   17  C   UNK     0     -29.345 -13.604  29.331  0.00  0.00     0.042 A 
HETATM   18  C   UNK     0     -28.070 -14.042  29.697  0.00  0.00     0.039 A 
ENDBRANCH   9  10
ENDBRANCH   8   9
ENDBRANCH   3   8
BRANCH   2  19
HETATM   19  C   UNK     0     -23.958 -16.068  33.149  0.00  0.00    -0.053 A 
HETATM   20  C   UNK     0     -24.077 -17.383  33.592  0.00  0.00     0.010 A 
HETATM   21  C   UNK     0     -24.452 -17.640  34.910  0.00  0.00     0.043 A 
HETATM   22  C   UNK     0     -24.707 -16.581  35.782  0.00  0.00     0.116 A 
HETATM   23  F   UNK     0     -25.068 -16.828  37.048  0.00  0.00    -0.206 F 
HETATM   24  C   UNK     0     -24.587 -15.265  35.335  0.00  0.00     0.043 A 
HETATM   25  C   UNK     0     -24.212 -15.009  34.016  0.00  0.00     0.010 A 
ENDBRANCH   2  19
TORSDOF 4
ENDMDL
MODEL 3
REMARK VINA RESULT:      -8.1     27.811     29.973
REMARK  4 active torsions:
REMARK  status: ('A' for Active; 'I' for Inactive)
REMARK    1  A    between atoms: O_2  and  C_11 
REMARK    2  A    between atoms: O_2  and  C_17 
REMARK    3  A    between atoms: C_6  and  C_12 
REMARK    4  A    between atoms: C_7  and  C_11 
ROOT
HETATM    1  N   UNK     0     -18.411   9.615  16.409  0.00  0.00     0.083 N 
HETATM    2  C   UNK     0     -18.602  12.502  16.893  0.00  0.00     0.028 C 
HETATM    3  C   UNK     0     -19.258  11.466  17.843  0.00  0.00     0.046 C 
HETATM    4  C   UNK     0     -18.432  11.900  15.486  0.00  0.00     0.040 C 
HETATM    5  C   UNK     0     -18.500  10.126  17.776  0.00  0.00     0.276 C 
HETATM    6  C   UNK     0     -17.711  10.555  15.537  0.00  0.00     0.270 C 
HETATM    7  H   UNK     0     -19.354   9.466  16.048  0.00  0.00     0.315 HD
ENDROOT
BRANCH   3   8
HETATM    8  C   UNK     0     -19.294  11.959  19.294  0.00  0.00     0.182 C 
BRANCH   8   9
HETATM    9  O   UNK     0     -20.580  11.697  19.819  0.00  0.00    -0.351 OA
BRANCH   9  10
HETATM   10  C   UNK     0     -20.657  10.823  20.877  0.00  0.00     0.071 A 
HETATM   11  C   UNK     0     -20.762   9.459  20.628  0.00  0.00     0.076 A 
HETATM   12  C   UNK     0     -20.837   8.621  21.722  0.00  0.00     0.107 A 
HETATM   13  O   UNK     0     -20.944   7.265  21.684  0.00  0.00    -0.323 OA
HETATM   14  C   UNK     0     -20.808   9.107  23.010  0.00  0.00     0.105 A 
HETATM   15  C   UNK     0     -20.979   6.952  23.092  0.00  0.00     0.352 A 
HETATM   16  O   UNK     0     -20.894   8.116  23.938  0.00  0.00    -0.323 OA
HETATM   17  C   UNK     0     -20.704  10.457  23.274  0.00  0.00     0.042 A 
HETATM   18  C   UNK     0     -20.627  11.328  22.183  0.00  0.00     0.039 A 
ENDBRANCH   9  10
ENDBRANCH   8   9
ENDBRANCH   3   8
BRANCH   2  19
HETATM   19  C   UNK     0     -19.349  13.823  16.818  0.00  0.00    -0.053 A 
HETATM   20  C   UNK     0     -20.741  13.834  16.834  0.00  0.00     0.010 A 
HETATM   21  C   UNK     0     -21.426  15.046  16.765  0.00  0.00     0.043 A 
HETATM   22  C   UNK     0     -20.717  16.245  16.680  0.00  0.00     0.116 A 
HETATM   23  F   UNK     0     -21.375  17.410  16.613  0.00  0.00    -0.206 F 
HETATM   24  C   UNK     0     -19.322  16.230  16.663  0.00  0.00     0.043 A 
HETATM   25  C   UNK     0     -18.637  15.016  16.732  0.00  0.00     0.010 A 
ENDBRANCH   2  19
TORSDOF 4
ENDMDL
