MODEL 1
REMARK VINA RESULT:      -8.7      0.000      0.000
REMARK  4 active torsions:
REMARK  status: ('A' for Active; 'I' for Inactive)
REMARK    1  A    between atoms: O_2  and  C_11 
REMARK    2  A    between atoms: O_2  and  C_17 
REMARK    3  A    between atoms: C_6  and  C_12 
REMARK    4  A    between atoms: C_7  and  C_11 
ROOT
HETATM    1  N   UNK     0     -42.668  49.548  12.231  0.00  0.00     0.083 N 
HETATM    2  C   UNK     0     -42.143  49.711  15.112  0.00  0.00     0.028 C 
HETATM    3  C   UNK     0     -41.051  50.037  14.060  0.00  0.00     0.046 C 
HETATM    4  C   UNK     0     -43.200  48.768  14.507  0.00  0.00     0.040 C 
HETATM    5  C   UNK     0     -41.701  50.515  12.748  0.00  0.00     0.276 C 
HETATM    6  C   UNK     0     -43.745  49.312  13.190  0.00  0.00     0.270 C 
HETATM    7  H   UNK     0     -42.189  48.666  12.046  0.00  0.00     0.315 HD
ENDROOT
BRANCH   3   8
HETATM    8  C   UNK     0     -40.070  51.103  14.562  0.00  0.00     0.182 C 
BRANCH   8   9
HETATM    9  O   UNK     0     -38.757  50.669  14.269  0.00  0.00    -0.351 OA
BRANCH   9  10
HETATM   10  C   UNK     0     -37.725  51.486  14.664  0.00  0.00     0.071 A 
HETATM   11  C   UNK     0     -36.414  51.044  14.527  0.00  0.00     0.076 A 
HETATM   12  C   UNK     0     -35.413  51.900  14.938  0.00  0.00     0.107 A 
HETATM   13  O   UNK     0     -34.076  51.649  14.885  0.00  0.00    -0.323 OA
HETATM   14  C   UNK     0     -35.691  53.142  15.461  0.00  0.00     0.105 A 
HETATM   15  C   UNK     0     -33.544  52.873  15.433  0.00  0.00     0.352 A 
HETATM   16  O   UNK     0     -34.564  53.824  15.801  0.00  0.00    -0.323 OA
HETATM   17  C   UNK     0     -36.986  53.596  15.603  0.00  0.00     0.042 A 
HETATM   18  C   UNK     0     -38.019  52.748  15.196  0.00  0.00     0.039 A 
ENDBRANCH   9  10
ENDBRANCH   8   9
ENDBRANCH   3   8
BRANCH   2  19
HETATM   19  C   UNK     0     -41.594  49.131  16.406  0.00  0.00    -0.053 A 
HETATM   20  C   UNK     0     -42.262  49.358  17.606  0.00  0.00     0.010 A 
HETATM   21  C   UNK     0     -41.759  48.826  18.792  0.00  0.00     0.043 A 
HETATM   22  C   UNK     0     -40.588  48.067  18.775  0.00  0.00     0.116 A 
HETATM   23  F   UNK     0     -40.104  47.556  19.915  0.00  0.00    -0.206 F 
HETATM   24  C   UNK     0     -39.921  47.842  17.570  0.00  0.00     0.043 A 
HETATM   25  C   UNK     0     -40.425  48.375  16.384  0.00  0.00     0.010 A 
ENDBRANCH   2  19
TORSDOF 4
ENDMDL
MODEL 2
REMARK VINA RESULT:      -8.6      2.908      4.268
REMARK  4 active torsions:
REMARK  status: ('A' for Active; 'I' for Inactive)
REMARK    1  A    between atoms: O_2  and  C_11 
REMARK    2  A    between atoms: O_2  and  C_17 
REMARK    3  A    between atoms: C_6  and  C_12 
REMARK    4  A    between atoms: C_7  and  C_11 
ROOT
HETATM    1  N   UNK     0     -42.932  47.618  18.615  0.00  0.00     0.083 N 
HETATM    2  C   UNK     0     -42.033  48.016  15.851  0.00  0.00     0.028 C 
HETATM    3  C   UNK     0     -41.069  48.165  17.056  0.00  0.00     0.046 C 
HETATM    4  C   UNK     0     -43.487  48.257  16.300  0.00  0.00     0.040 C 
HETATM    5  C   UNK     0     -41.554  47.304  18.238  0.00  0.00     0.276 C 
HETATM    6  C   UNK     0     -43.850  47.390  17.502  0.00  0.00     0.270 C 
HETATM    7  H   UNK     0     -42.984  48.599  18.892  0.00  0.00     0.315 HD
ENDROOT
BRANCH   3   8
HETATM    8  C   UNK     0     -39.632  47.770  16.694  0.00  0.00     0.182 C 
BRANCH   8   9
HETATM    9  O   UNK     0     -38.749  48.635  17.379  0.00  0.00    -0.351 OA
BRANCH   9  10
HETATM   10  C   UNK     0     -37.913  49.411  16.613  0.00  0.00     0.071 A 
HETATM   11  C   UNK     0     -37.016  50.270  17.239  0.00  0.00     0.076 A 
HETATM   12  C   UNK     0     -36.198  51.029  16.427  0.00  0.00     0.107 A 
HETATM   13  O   UNK     0     -35.262  51.923  16.848  0.00  0.00    -0.323 OA
HETATM   14  C   UNK     0     -36.260  50.945  15.055  0.00  0.00     0.105 A 
HETATM   15  C   UNK     0     -34.741  52.391  15.588  0.00  0.00     0.352 A 
HETATM   16  O   UNK     0     -35.371  51.775  14.446  0.00  0.00    -0.323 OA
HETATM   17  C   UNK     0     -37.144  50.098  14.419  0.00  0.00     0.042 A 
HETATM   18  C   UNK     0     -37.985  49.319  15.218  0.00  0.00     0.039 A 
ENDBRANCH   9  10
ENDBRANCH   8   9
ENDBRANCH   3   8
BRANCH   2  19
HETATM   19  C   UNK     0     -41.687  48.914  14.674  0.00  0.00    -0.053 A 
HETATM   20  C   UNK     0     -41.371  50.252  14.892  0.00  0.00     0.010 A 
HETATM   21  C   UNK     0     -41.054  51.075  13.812  0.00  0.00     0.043 A 
HETATM   22  C   UNK     0     -41.051  50.556  12.517  0.00  0.00     0.116 A 
HETATM   23  F   UNK     0     -40.747  51.347  11.479  0.00  0.00    -0.206 F 
HETATM   24  C   UNK     0     -41.368  49.214  12.303  0.00  0.00     0.043 A 
HETATM   25  C   UNK     0     -41.686  48.392  13.383  0.00  0.00     0.010 A 
ENDBRANCH   2  19
TORSDOF 4
ENDMDL
MODEL 3
REMARK VINA RESULT:      -8.5      3.639      7.033
REMARK  4 active torsions:
REMARK  status: ('A' for Active; 'I' for Inactive)
REMARK    1  A    between atoms: O_2  and  C_11 
REMARK    2  A    between atoms: O_2  and  C_17 
REMARK    3  A    between atoms: C_6  and  C_12 
REMARK    4  A    between atoms: C_7  and  C_11 
ROOT
HETATM    1  N   UNK     0     -41.568  49.272  15.086  0.00  0.00     0.083 N 
HETATM    2  C   UNK     0     -38.807  50.193  14.721  0.00  0.00     0.028 C 
HETATM    3  C   UNK     0     -39.253  49.423  15.990  0.00  0.00     0.046 C 
HETATM    4  C   UNK     0     -40.015  50.896  14.073  0.00  0.00     0.040 C 
HETATM    5  C   UNK     0     -40.459  48.519  15.670  0.00  0.00     0.276 C 
HETATM    6  C   UNK     0     -41.168  49.923  13.841  0.00  0.00     0.270 C 
HETATM    7  H   UNK     0     -41.872  49.985  15.750  0.00  0.00     0.315 HD
ENDROOT
BRANCH   3   8
HETATM    8  C   UNK     0     -38.120  48.572  16.573  0.00  0.00     0.182 C 
BRANCH   8   9
HETATM    9  O   UNK     0     -38.048  48.821  17.963  0.00  0.00    -0.351 OA
BRANCH   9  10
HETATM   10  C   UNK     0     -38.701  47.940  18.791  0.00  0.00     0.071 A 
HETATM   11  C   UNK     0     -39.543  48.433  19.783  0.00  0.00     0.076 A 
HETATM   12  C   UNK     0     -40.177  47.510  20.589  0.00  0.00     0.107 A 
HETATM   13  O   UNK     0     -41.033  47.794  21.609  0.00  0.00    -0.323 OA
HETATM   14  C   UNK     0     -39.991  46.156  20.425  0.00  0.00     0.105 A 
HETATM   15  C   UNK     0     -41.365  46.467  22.067  0.00  0.00     0.352 A 
HETATM   16  O   UNK     0     -40.707  45.424  21.320  0.00  0.00    -0.323 OA
HETATM   17  C   UNK     0     -39.161  45.651  19.446  0.00  0.00     0.042 A 
HETATM   18  C   UNK     0     -38.505  46.565  18.616  0.00  0.00     0.039 A 
ENDBRANCH   9  10
ENDBRANCH   8   9
ENDBRANCH   3   8
BRANCH   2  19
HETATM   19  C   UNK     0     -37.686  51.189  14.970  0.00  0.00    -0.053 A 
HETATM   20  C   UNK     0     -37.957  52.389  15.622  0.00  0.00     0.010 A 
HETATM   21  C   UNK     0     -36.929  53.302  15.851  0.00  0.00     0.043 A 
HETATM   22  C   UNK     0     -35.631  53.012  15.427  0.00  0.00     0.116 A 
HETATM   23  F   UNK     0     -34.643  53.890  15.646  0.00  0.00    -0.206 F 
HETATM   24  C   UNK     0     -35.364  51.809  14.774  0.00  0.00     0.043 A 
HETATM   25  C   UNK     0     -36.394  50.896  14.545  0.00  0.00     0.010 A 
ENDBRANCH   2  19
TORSDOF 4
ENDMDL
