MODEL 1
REMARK VINA RESULT:      -7.0      0.000      0.000
REMARK  4 active torsions:
REMARK  status: ('A' for Active; 'I' for Inactive)
REMARK    1  A    between atoms: O_2  and  C_11 
REMARK    2  A    between atoms: O_2  and  C_17 
REMARK    3  A    between atoms: C_6  and  C_12 
REMARK    4  A    between atoms: C_7  and  C_11 
ROOT
HETATM    1  N   UNK     0     -35.736 -58.536   6.543  0.00  0.00     0.083 N 
HETATM    2  C   UNK     0     -33.678 -57.882   8.528  0.00  0.00     0.028 C 
HETATM    3  C   UNK     0     -33.999 -56.940   7.339  0.00  0.00     0.046 C 
HETATM    4  C   UNK     0     -34.076 -59.330   8.182  0.00  0.00     0.040 C 
HETATM    5  C   UNK     0     -35.455 -57.141   6.876  0.00  0.00     0.276 C 
HETATM    6  C   UNK     0     -35.520 -59.410   7.693  0.00  0.00     0.270 C 
HETATM    7  H   UNK     0     -35.118 -58.827   5.784  0.00  0.00     0.315 HD
ENDROOT
BRANCH   3   8
HETATM    8  C   UNK     0     -33.777 -55.466   7.698  0.00  0.00     0.182 C 
BRANCH   8   9
HETATM    9  O   UNK     0     -33.735 -54.720   6.498  0.00  0.00    -0.351 OA
BRANCH   9  10
HETATM   10  C   UNK     0     -32.547 -54.709   5.808  0.00  0.00     0.071 A 
HETATM   11  C   UNK     0     -32.556 -54.908   4.432  0.00  0.00     0.076 A 
HETATM   12  C   UNK     0     -31.338 -54.888   3.784  0.00  0.00     0.107 A 
HETATM   13  O   UNK     0     -31.141 -55.062   2.448  0.00  0.00    -0.323 OA
HETATM   14  C   UNK     0     -30.159 -54.679   4.463  0.00  0.00     0.105 A 
HETATM   15  C   UNK     0     -29.706 -54.940   2.363  0.00  0.00     0.352 A 
HETATM   16  O   UNK     0     -29.078 -54.698   3.638  0.00  0.00    -0.323 OA
HETATM   17  C   UNK     0     -30.133 -54.480   5.828  0.00  0.00     0.042 A 
HETATM   18  C   UNK     0     -31.353 -54.496   6.509  0.00  0.00     0.039 A 
ENDBRANCH   9  10
ENDBRANCH   8   9
ENDBRANCH   3   8
BRANCH   2  19
HETATM   19  C   UNK     0     -32.229 -57.825   8.982  0.00  0.00    -0.053 A 
HETATM   20  C   UNK     0     -31.931 -57.607  10.325  0.00  0.00     0.010 A 
HETATM   21  C   UNK     0     -30.602 -57.554  10.741  0.00  0.00     0.043 A 
HETATM   22  C   UNK     0     -29.573 -57.722   9.813  0.00  0.00     0.116 A 
HETATM   23  F   UNK     0     -28.296 -57.672  10.213  0.00  0.00    -0.206 F 
HETATM   24  C   UNK     0     -29.876 -57.941   8.469  0.00  0.00     0.043 A 
HETATM   25  C   UNK     0     -31.206 -57.992   8.053  0.00  0.00     0.010 A 
ENDBRANCH   2  19
TORSDOF 4
ENDMDL
MODEL 2
REMARK VINA RESULT:      -6.8      3.268      5.728
REMARK  4 active torsions:
REMARK  status: ('A' for Active; 'I' for Inactive)
REMARK    1  A    between atoms: O_2  and  C_11 
REMARK    2  A    between atoms: O_2  and  C_17 
REMARK    3  A    between atoms: C_6  and  C_12 
REMARK    4  A    between atoms: C_7  and  C_11 
ROOT
HETATM    1  N   UNK     0     -28.325 -58.690  10.244  0.00  0.00     0.083 N 
HETATM    2  C   UNK     0     -30.459 -56.877   9.369  0.00  0.00     0.028 C 
HETATM    3  C   UNK     0     -30.685 -58.405   9.501  0.00  0.00     0.046 C 
HETATM    4  C   UNK     0     -28.964 -56.577   9.149  0.00  0.00     0.040 C 
HETATM    5  C   UNK     0     -29.722 -58.999  10.547  0.00  0.00     0.276 C 
HETATM    6  C   UNK     0     -28.098 -57.248  10.211  0.00  0.00     0.270 C 
HETATM    7  H   UNK     0     -28.089 -59.084   9.333  0.00  0.00     0.315 HD
ENDROOT
BRANCH   3   8
HETATM    8  C   UNK     0     -32.129 -58.742   9.889  0.00  0.00     0.182 C 
BRANCH   8   9
HETATM    9  O   UNK     0     -32.600 -59.747   9.013  0.00  0.00    -0.351 OA
BRANCH   9  10
HETATM   10  C   UNK     0     -33.509 -59.367   8.055  0.00  0.00     0.071 A 
HETATM   11  C   UNK     0     -33.050 -58.890   6.832  0.00  0.00     0.076 A 
HETATM   12  C   UNK     0     -34.001 -58.521   5.902  0.00  0.00     0.107 A 
HETATM   13  O   UNK     0     -33.751 -58.034   4.656  0.00  0.00    -0.323 OA
HETATM   14  C   UNK     0     -35.348 -58.619   6.165  0.00  0.00     0.105 A 
HETATM   15  C   UNK     0     -35.093 -57.836   4.164  0.00  0.00     0.352 A 
HETATM   16  O   UNK     0     -36.110 -58.205   5.117  0.00  0.00    -0.323 OA
HETATM   17  C   UNK     0     -35.819 -59.090   7.373  0.00  0.00     0.042 A 
HETATM   18  C   UNK     0     -34.878 -59.470   8.333  0.00  0.00     0.039 A 
ENDBRANCH   9  10
ENDBRANCH   8   9
ENDBRANCH   3   8
BRANCH   2  19
HETATM   19  C   UNK     0     -31.297 -56.224   8.282  0.00  0.00    -0.053 A 
HETATM   20  C   UNK     0     -32.580 -55.770   8.574  0.00  0.00     0.010 A 
HETATM   21  C   UNK     0     -33.348 -55.172   7.576  0.00  0.00     0.043 A 
HETATM   22  C   UNK     0     -32.830 -55.028   6.288  0.00  0.00     0.116 A 
HETATM   23  F   UNK     0     -33.568 -54.453   5.330  0.00  0.00    -0.206 F 
HETATM   24  C   UNK     0     -31.544 -55.485   6.000  0.00  0.00     0.043 A 
HETATM   25  C   UNK     0     -30.776 -56.084   6.999  0.00  0.00     0.010 A 
ENDBRANCH   2  19
TORSDOF 4
ENDMDL
MODEL 3
REMARK VINA RESULT:      -6.7      3.396      5.716
REMARK  4 active torsions:
REMARK  status: ('A' for Active; 'I' for Inactive)
REMARK    1  A    between atoms: O_2  and  C_11 
REMARK    2  A    between atoms: O_2  and  C_17 
REMARK    3  A    between atoms: C_6  and  C_12 
REMARK    4  A    between atoms: C_7  and  C_11 
ROOT
HETATM    1  N   UNK     0     -29.462 -57.993  10.447  0.00  0.00     0.083 N 
HETATM    2  C   UNK     0     -30.893 -56.170   8.649  0.00  0.00     0.028 C 
HETATM    3  C   UNK     0     -31.626 -57.281   9.444  0.00  0.00     0.046 C 
HETATM    4  C   UNK     0     -29.412 -56.546   8.454  0.00  0.00     0.040 C 
HETATM    5  C   UNK     0     -30.848 -57.622  10.729  0.00  0.00     0.276 C 
HETATM    6  C   UNK     0     -28.748 -56.908   9.780  0.00  0.00     0.270 C 
HETATM    7  H   UNK     0     -29.455 -58.816   9.844  0.00  0.00     0.315 HD
ENDROOT
BRANCH   3   8
HETATM    8  C   UNK     0     -33.059 -56.876   9.809  0.00  0.00     0.182 C 
BRANCH   8   9
HETATM    9  O   UNK     0     -33.915 -57.964   9.518  0.00  0.00    -0.351 OA
BRANCH   9  10
HETATM   10  C   UNK     0     -34.459 -58.012   8.258  0.00  0.00     0.071 A 
HETATM   11  C   UNK     0     -35.012 -56.859   7.709  0.00  0.00     0.076 A 
HETATM   12  C   UNK     0     -35.547 -56.958   6.441  0.00  0.00     0.107 A 
HETATM   13  O   UNK     0     -36.130 -55.948   5.740  0.00  0.00    -0.323 OA
HETATM   14  C   UNK     0     -35.536 -58.143   5.740  0.00  0.00     0.105 A 
HETATM   15  C   UNK     0     -36.485 -56.629   4.519  0.00  0.00     0.352 A 
HETATM   16  O   UNK     0     -36.111 -58.022   4.514  0.00  0.00    -0.323 OA
HETATM   17  C   UNK     0     -34.991 -59.294   6.270  0.00  0.00     0.042 A 
HETATM   18  C   UNK     0     -34.444 -59.222   7.554  0.00  0.00     0.039 A 
ENDBRANCH   9  10
ENDBRANCH   8   9
ENDBRANCH   3   8
BRANCH   2  19
HETATM   19  C   UNK     0     -31.538 -55.845   7.313  0.00  0.00    -0.053 A 
HETATM   20  C   UNK     0     -31.717 -56.850   6.366  0.00  0.00     0.010 A 
HETATM   21  C   UNK     0     -32.309 -56.551   5.140  0.00  0.00     0.043 A 
HETATM   22  C   UNK     0     -32.721 -55.247   4.863  0.00  0.00     0.116 A 
HETATM   23  F   UNK     0     -33.290 -54.959   3.685  0.00  0.00    -0.206 F 
HETATM   24  C   UNK     0     -32.540 -54.242   5.815  0.00  0.00     0.043 A 
HETATM   25  C   UNK     0     -31.948 -54.542   7.041  0.00  0.00     0.010 A 
ENDBRANCH   2  19
TORSDOF 4
ENDMDL
