MODEL 1
REMARK VINA RESULT:      -9.3      0.000      0.000
REMARK  4 active torsions:
REMARK  status: ('A' for Active; 'I' for Inactive)
REMARK    1  A    between atoms: O_2  and  C_11 
REMARK    2  A    between atoms: O_2  and  C_17 
REMARK    3  A    between atoms: C_6  and  C_12 
REMARK    4  A    between atoms: C_7  and  C_11 
ROOT
HETATM    1  N   UNK     0      -4.998  20.608 -29.073  0.00  0.00     0.083 N 
HETATM    2  C   UNK     0      -3.623  18.921 -27.106  0.00  0.00     0.028 C 
HETATM    3  C   UNK     0      -4.976  19.609 -26.792  0.00  0.00     0.046 C 
HETATM    4  C   UNK     0      -2.878  19.692 -28.213  0.00  0.00     0.040 C 
HETATM    5  C   UNK     0      -5.769  19.846 -28.091  0.00  0.00     0.276 C 
HETATM    6  C   UNK     0      -3.766  19.911 -29.435  0.00  0.00     0.270 C 
HETATM    7  H   UNK     0      -4.761  21.517 -28.674  0.00  0.00     0.315 HD
ENDROOT
BRANCH   3   8
HETATM    8  C   UNK     0      -5.827  18.786 -25.819  0.00  0.00     0.182 C 
BRANCH   8   9
HETATM    9  O   UNK     0      -6.950  18.291 -26.521  0.00  0.00    -0.351 OA
BRANCH   9  10
HETATM   10  C   UNK     0      -7.083  16.926 -26.606  0.00  0.00     0.071 A 
HETATM   11  C   UNK     0      -8.095  16.387 -27.394  0.00  0.00     0.076 A 
HETATM   12  C   UNK     0      -8.189  15.012 -27.447  0.00  0.00     0.107 A 
HETATM   13  O   UNK     0      -9.107  14.300 -28.157  0.00  0.00    -0.323 OA
HETATM   14  C   UNK     0      -7.319  14.199 -26.755  0.00  0.00     0.105 A 
HETATM   15  C   UNK     0      -8.718  12.949 -27.835  0.00  0.00     0.352 A 
HETATM   16  O   UNK     0      -7.585  12.879 -26.946  0.00  0.00    -0.323 OA
HETATM   17  C   UNK     0      -6.310  14.717 -25.971  0.00  0.00     0.042 A 
HETATM   18  C   UNK     0      -6.194  16.108 -25.898  0.00  0.00     0.039 A 
ENDBRANCH   9  10
ENDBRANCH   8   9
ENDBRANCH   3   8
BRANCH   2  19
HETATM   19  C   UNK     0      -2.728  18.743 -25.891  0.00  0.00    -0.053 A 
HETATM   20  C   UNK     0      -2.837  17.594 -25.113  0.00  0.00     0.010 A 
HETATM   21  C   UNK     0      -2.016  17.430 -23.997  0.00  0.00     0.043 A 
HETATM   22  C   UNK     0      -1.088  18.417 -23.664  0.00  0.00     0.116 A 
HETATM   23  F   UNK     0      -0.299  18.261 -22.593  0.00  0.00    -0.206 F 
HETATM   24  C   UNK     0      -0.982  19.567 -24.447  0.00  0.00     0.043 A 
HETATM   25  C   UNK     0      -1.804  19.730 -25.562  0.00  0.00     0.010 A 
ENDBRANCH   2  19
TORSDOF 4
ENDMDL
MODEL 2
REMARK VINA RESULT:      -9.2      1.428      1.987
REMARK  4 active torsions:
REMARK  status: ('A' for Active; 'I' for Inactive)
REMARK    1  A    between atoms: O_2  and  C_11 
REMARK    2  A    between atoms: O_2  and  C_17 
REMARK    3  A    between atoms: C_6  and  C_12 
REMARK    4  A    between atoms: C_7  and  C_11 
ROOT
HETATM    1  N   UNK     0      -5.656  19.924 -28.465  0.00  0.00     0.083 N 
HETATM    2  C   UNK     0      -3.339  18.908 -26.982  0.00  0.00     0.028 C 
HETATM    3  C   UNK     0      -4.718  18.201 -26.933  0.00  0.00     0.046 C 
HETATM    4  C   UNK     0      -3.517  20.397 -27.337  0.00  0.00     0.040 C 
HETATM    5  C   UNK     0      -5.512  18.490 -28.221  0.00  0.00     0.276 C 
HETATM    6  C   UNK     0      -4.354  20.572 -28.601  0.00  0.00     0.270 C 
HETATM    7  H   UNK     0      -6.157  20.345 -27.682  0.00  0.00     0.315 HD
ENDROOT
BRANCH   3   8
HETATM    8  C   UNK     0      -4.579  16.685 -26.749  0.00  0.00     0.182 C 
BRANCH   8   9
HETATM    9  O   UNK     0      -5.664  16.234 -25.963  0.00  0.00    -0.351 OA
BRANCH   9  10
HETATM   10  C   UNK     0      -6.788  15.812 -26.630  0.00  0.00     0.071 A 
HETATM   11  C   UNK     0      -8.010  16.418 -26.357  0.00  0.00     0.076 A 
HETATM   12  C   UNK     0      -9.111  15.961 -27.053  0.00  0.00     0.107 A 
HETATM   13  O   UNK     0     -10.385  16.423 -26.926  0.00  0.00    -0.323 OA
HETATM   14  C   UNK     0      -9.012  14.949 -27.981  0.00  0.00     0.105 A 
HETATM   15  C   UNK     0     -11.076  15.589 -27.878  0.00  0.00     0.352 A 
HETATM   16  O   UNK     0     -10.211  14.652 -28.551  0.00  0.00    -0.323 OA
HETATM   17  C   UNK     0      -7.808  14.339 -28.264  0.00  0.00     0.042 A 
HETATM   18  C   UNK     0      -6.677  14.782 -27.572  0.00  0.00     0.039 A 
ENDBRANCH   9  10
ENDBRANCH   8   9
ENDBRANCH   3   8
BRANCH   2  19
HETATM   19  C   UNK     0      -2.529  18.762 -25.704  0.00  0.00    -0.053 A 
HETATM   20  C   UNK     0      -1.139  18.822 -25.753  0.00  0.00     0.010 A 
HETATM   21  C   UNK     0      -0.397  18.688 -24.581  0.00  0.00     0.043 A 
HETATM   22  C   UNK     0      -1.047  18.495 -23.361  0.00  0.00     0.116 A 
HETATM   23  F   UNK     0      -0.334  18.366 -22.235  0.00  0.00    -0.206 F 
HETATM   24  C   UNK     0      -2.440  18.436 -23.316  0.00  0.00     0.043 A 
HETATM   25  C   UNK     0      -3.182  18.569 -24.490  0.00  0.00     0.010 A 
ENDBRANCH   2  19
TORSDOF 4
ENDMDL
MODEL 3
REMARK VINA RESULT:      -9.0      2.656      4.291
REMARK  4 active torsions:
REMARK  status: ('A' for Active; 'I' for Inactive)
REMARK    1  A    between atoms: O_2  and  C_11 
REMARK    2  A    between atoms: O_2  and  C_17 
REMARK    3  A    between atoms: C_6  and  C_12 
REMARK    4  A    between atoms: C_7  and  C_11 
ROOT
HETATM    1  N   UNK     0      -0.915  18.036 -24.179  0.00  0.00     0.083 N 
HETATM    2  C   UNK     0      -3.108  19.277 -25.681  0.00  0.00     0.028 C 
HETATM    3  C   UNK     0      -3.090  17.760 -25.359  0.00  0.00     0.046 C 
HETATM    4  C   UNK     0      -1.673  19.838 -25.679  0.00  0.00     0.040 C 
HETATM    5  C   UNK     0      -2.270  17.495 -24.082  0.00  0.00     0.276 C 
HETATM    6  C   UNK     0      -0.936  19.481 -24.391  0.00  0.00     0.270 C 
HETATM    7  H   UNK     0      -0.436  17.592 -24.963  0.00  0.00     0.315 HD
ENDROOT
BRANCH   3   8
HETATM    8  C   UNK     0      -4.504  17.193 -25.183  0.00  0.00     0.182 C 
BRANCH   8   9
HETATM    9  O   UNK     0      -4.563  15.940 -25.835  0.00  0.00    -0.351 OA
BRANCH   9  10
HETATM   10  C   UNK     0      -5.708  15.654 -26.538  0.00  0.00     0.071 A 
HETATM   11  C   UNK     0      -6.238  14.369 -26.483  0.00  0.00     0.076 A 
HETATM   12  C   UNK     0      -7.390  14.130 -27.205  0.00  0.00     0.107 A 
HETATM   13  O   UNK     0      -8.055  12.945 -27.278  0.00  0.00    -0.323 OA
HETATM   14  C   UNK     0      -7.996  15.116 -27.950  0.00  0.00     0.105 A 
HETATM   15  C   UNK     0      -9.147  13.296 -28.152  0.00  0.00     0.352 A 
HETATM   16  O   UNK     0      -9.115  14.672 -28.582  0.00  0.00    -0.323 OA
HETATM   17  C   UNK     0      -7.483  16.395 -28.014  0.00  0.00     0.042 A 
HETATM   18  C   UNK     0      -6.316  16.664 -27.293  0.00  0.00     0.039 A 
ENDBRANCH   9  10
ENDBRANCH   8   9
ENDBRANCH   3   8
BRANCH   2  19
HETATM   19  C   UNK     0      -3.809  19.619 -26.985  0.00  0.00    -0.053 A 
HETATM   20  C   UNK     0      -3.202  19.314 -28.199  0.00  0.00     0.010 A 
HETATM   21  C   UNK     0      -3.845  19.628 -29.396  0.00  0.00     0.043 A 
HETATM   22  C   UNK     0      -5.096  20.245 -29.374  0.00  0.00     0.116 A 
HETATM   23  F   UNK     0      -5.714  20.547 -30.523  0.00  0.00    -0.206 F 
HETATM   24  C   UNK     0      -5.702  20.549 -28.154  0.00  0.00     0.043 A 
HETATM   25  C   UNK     0      -5.057  20.235 -26.958  0.00  0.00     0.010 A 
ENDBRANCH   2  19
TORSDOF 4
ENDMDL
