MODEL 1
REMARK VINA RESULT:      -8.2      0.000      0.000
REMARK  4 active torsions:
REMARK  status: ('A' for Active; 'I' for Inactive)
REMARK    1  A    between atoms: O_2  and  C_11 
REMARK    2  A    between atoms: O_2  and  C_17 
REMARK    3  A    between atoms: C_6  and  C_12 
REMARK    4  A    between atoms: C_7  and  C_11 
ROOT
HETATM    1  N   UNK     0       2.237  12.036  13.929  0.00  0.00     0.083 N 
HETATM    2  C   UNK     0       4.196  11.504  16.046  0.00  0.00     0.028 C 
HETATM    3  C   UNK     0       3.478  10.358  15.287  0.00  0.00     0.046 C 
HETATM    4  C   UNK     0       3.348  12.789  15.995  0.00  0.00     0.040 C 
HETATM    5  C   UNK     0       3.061  10.829  13.881  0.00  0.00     0.276 C 
HETATM    6  C   UNK     0       2.952  13.140  14.564  0.00  0.00     0.270 C 
HETATM    7  H   UNK     0       1.390  11.838  14.462  0.00  0.00     0.315 HD
ENDROOT
BRANCH   3   8
HETATM    8  C   UNK     0       4.358   9.109  15.166  0.00  0.00     0.182 C 
BRANCH   8   9
HETATM    9  O   UNK     0       3.595   7.989  15.567  0.00  0.00    -0.351 OA
BRANCH   9  10
HETATM   10  C   UNK     0       3.735   7.569  16.867  0.00  0.00     0.071 A 
HETATM   11  C   UNK     0       2.610   7.167  17.580  0.00  0.00     0.076 A 
HETATM   12  C   UNK     0       2.802   6.754  18.882  0.00  0.00     0.107 A 
HETATM   13  O   UNK     0       1.831   6.328  19.736  0.00  0.00    -0.323 OA
HETATM   14  C   UNK     0       4.051   6.734  19.460  0.00  0.00     0.105 A 
HETATM   15  C   UNK     0       2.609   6.038  20.915  0.00  0.00     0.352 A 
HETATM   16  O   UNK     0       4.018   6.294  20.746  0.00  0.00    -0.323 OA
HETATM   17  C   UNK     0       5.177   7.128  18.767  0.00  0.00     0.042 A 
HETATM   18  C   UNK     0       5.011   7.553  17.446  0.00  0.00     0.039 A 
ENDBRANCH   9  10
ENDBRANCH   8   9
ENDBRANCH   3   8
BRANCH   2  19
HETATM   19  C   UNK     0       4.551  11.160  17.483  0.00  0.00    -0.053 A 
HETATM   20  C   UNK     0       5.883  11.165  17.889  0.00  0.00     0.010 A 
HETATM   21  C   UNK     0       6.208  10.849  19.207  0.00  0.00     0.043 A 
HETATM   22  C   UNK     0       5.199  10.529  20.117  0.00  0.00     0.116 A 
HETATM   23  F   UNK     0       5.512  10.226  21.384  0.00  0.00    -0.206 F 
HETATM   24  C   UNK     0       3.866  10.526  19.707  0.00  0.00     0.043 A 
HETATM   25  C   UNK     0       3.542  10.841  18.387  0.00  0.00     0.010 A 
ENDBRANCH   2  19
TORSDOF 4
ENDMDL
MODEL 2
REMARK VINA RESULT:      -8.1      3.222      4.914
REMARK  4 active torsions:
REMARK  status: ('A' for Active; 'I' for Inactive)
REMARK    1  A    between atoms: O_2  and  C_11 
REMARK    2  A    between atoms: O_2  and  C_17 
REMARK    3  A    between atoms: C_6  and  C_12 
REMARK    4  A    between atoms: C_7  and  C_11 
ROOT
HETATM    1  N   UNK     0       5.594   8.273  14.793  0.00  0.00     0.083 N 
HETATM    2  C   UNK     0       3.452   7.653  16.699  0.00  0.00     0.028 C 
HETATM    3  C   UNK     0       4.878   8.041  17.167  0.00  0.00     0.046 C 
HETATM    4  C   UNK     0       3.500   7.066  15.276  0.00  0.00     0.040 C 
HETATM    5  C   UNK     0       5.568   8.919  16.105  0.00  0.00     0.276 C 
HETATM    6  C   UNK     0       4.243   7.992  14.316  0.00  0.00     0.270 C 
HETATM    7  H   UNK     0       6.110   7.396  14.866  0.00  0.00     0.315 HD
ENDROOT
BRANCH   3   8
HETATM    8  C   UNK     0       4.861   8.783  18.508  0.00  0.00     0.182 C 
BRANCH   8   9
HETATM    9  O   UNK     0       5.967   8.345  19.272  0.00  0.00    -0.351 OA
BRANCH   9  10
HETATM   10  C   UNK     0       5.716   7.933  20.558  0.00  0.00     0.071 A 
HETATM   11  C   UNK     0       4.404   7.694  20.954  0.00  0.00     0.076 A 
HETATM   12  C   UNK     0       4.202   7.282  22.255  0.00  0.00     0.107 A 
HETATM   13  O   UNK     0       2.999   7.000  22.826  0.00  0.00    -0.323 OA
HETATM   14  C   UNK     0       5.249   7.111  23.132  0.00  0.00     0.105 A 
HETATM   15  C   UNK     0       3.407   6.633  24.160  0.00  0.00     0.352 A 
HETATM   16  O   UNK     0       4.833   6.701  24.360  0.00  0.00    -0.323 OA
HETATM   17  C   UNK     0       6.556   7.344  22.755  0.00  0.00     0.042 A 
HETATM   18  C   UNK     0       6.788   7.763  21.442  0.00  0.00     0.039 A 
ENDBRANCH   9  10
ENDBRANCH   8   9
ENDBRANCH   3   8
BRANCH   2  19
HETATM   19  C   UNK     0       2.736   6.699  17.642  0.00  0.00    -0.053 A 
HETATM   20  C   UNK     0       1.386   6.887  17.924  0.00  0.00     0.010 A 
HETATM   21  C   UNK     0       0.729   6.012  18.788  0.00  0.00     0.043 A 
HETATM   22  C   UNK     0       1.425   4.950  19.368  0.00  0.00     0.116 A 
HETATM   23  F   UNK     0       0.795   4.110  20.198  0.00  0.00    -0.206 F 
HETATM   24  C   UNK     0       2.779   4.765  19.082  0.00  0.00     0.043 A 
HETATM   25  C   UNK     0       3.435   5.642  18.218  0.00  0.00     0.010 A 
ENDBRANCH   2  19
TORSDOF 4
ENDMDL
MODEL 3
REMARK VINA RESULT:      -8.1      3.047      6.243
REMARK  4 active torsions:
REMARK  status: ('A' for Active; 'I' for Inactive)
REMARK    1  A    between atoms: O_2  and  C_11 
REMARK    2  A    between atoms: O_2  and  C_17 
REMARK    3  A    between atoms: C_6  and  C_12 
REMARK    4  A    between atoms: C_7  and  C_11 
ROOT
HETATM    1  N   UNK     0       2.218   4.640  18.394  0.00  0.00     0.083 N 
HETATM    2  C   UNK     0       3.269   6.419  20.476  0.00  0.00     0.028 C 
HETATM    3  C   UNK     0       3.821   6.437  19.028  0.00  0.00     0.046 C 
HETATM    4  C   UNK     0       2.637   5.048  20.788  0.00  0.00     0.040 C 
HETATM    5  C   UNK     0       2.741   5.958  18.039  0.00  0.00     0.276 C 
HETATM    6  C   UNK     0       1.617   4.650  19.725  0.00  0.00     0.270 C 
HETATM    7  H   UNK     0       2.984   3.965  18.380  0.00  0.00     0.315 HD
ENDROOT
BRANCH   3   8
HETATM    8  C   UNK     0       4.307   7.831  18.616  0.00  0.00     0.182 C 
BRANCH   8   9
HETATM    9  O   UNK     0       3.211   8.721  18.686  0.00  0.00    -0.351 OA
BRANCH   9  10
HETATM   10  C   UNK     0       3.316   9.899  17.986  0.00  0.00     0.071 A 
HETATM   11  C   UNK     0       3.550   9.860  16.616  0.00  0.00     0.076 A 
HETATM   12  C   UNK     0       3.648  11.069  15.957  0.00  0.00     0.107 A 
HETATM   13  O   UNK     0       3.873  11.237  14.626  0.00  0.00    -0.323 OA
HETATM   14  C   UNK     0       3.519  12.268  16.621  0.00  0.00     0.105 A 
HETATM   15  C   UNK     0       3.871  12.676  14.525  0.00  0.00     0.352 A 
HETATM   16  O   UNK     0       3.647  13.335  15.788  0.00  0.00    -0.323 OA
HETATM   17  C   UNK     0       3.286  12.324  17.979  0.00  0.00     0.042 A 
HETATM   18  C   UNK     0       3.184  11.114  18.671  0.00  0.00     0.039 A 
ENDBRANCH   9  10
ENDBRANCH   8   9
ENDBRANCH   3   8
BRANCH   2  19
HETATM   19  C   UNK     0       4.302   6.777  21.531  0.00  0.00    -0.053 A 
HETATM   20  C   UNK     0       5.564   7.218  21.144  0.00  0.00     0.010 A 
HETATM   21  C   UNK     0       6.512   7.548  22.111  0.00  0.00     0.043 A 
HETATM   22  C   UNK     0       6.194   7.436  23.466  0.00  0.00     0.116 A 
HETATM   23  F   UNK     0       7.105   7.752  24.396  0.00  0.00    -0.206 F 
HETATM   24  C   UNK     0       4.928   6.993  23.850  0.00  0.00     0.043 A 
HETATM   25  C   UNK     0       3.981   6.663  22.881  0.00  0.00     0.010 A 
ENDBRANCH   2  19
TORSDOF 4
ENDMDL
