MODEL 1
REMARK VINA RESULT:      -9.1      0.000      0.000
REMARK  4 active torsions:
REMARK  status: ('A' for Active; 'I' for Inactive)
REMARK    1  A    between atoms: O_2  and  C_11 
REMARK    2  A    between atoms: O_2  and  C_17 
REMARK    3  A    between atoms: C_6  and  C_12 
REMARK    4  A    between atoms: C_7  and  C_11 
ROOT
HETATM    1  N   UNK     0      26.606  15.189   2.097  0.00  0.00     0.083 N 
HETATM    2  C   UNK     0      27.993  15.089  -0.486  0.00  0.00     0.028 C 
HETATM    3  C   UNK     0      28.486  15.991   0.675  0.00  0.00     0.046 C 
HETATM    4  C   UNK     0      26.487  14.802  -0.334  0.00  0.00     0.040 C 
HETATM    5  C   UNK     0      28.051  15.402   2.031  0.00  0.00     0.276 C 
HETATM    6  C   UNK     0      26.159  14.266   1.057  0.00  0.00     0.270 C 
HETATM    7  H   UNK     0      26.133  16.084   1.972  0.00  0.00     0.315 HD
ENDROOT
BRANCH   3   8
HETATM    8  C   UNK     0      30.009  16.165   0.660  0.00  0.00     0.182 C 
BRANCH   8   9
HETATM    9  O   UNK     0      30.300  17.495   0.279  0.00  0.00    -0.351 OA
BRANCH   9  10
HETATM   10  C   UNK     0      31.292  18.143   0.975  0.00  0.00     0.071 A 
HETATM   11  C   UNK     0      30.971  18.825   2.144  0.00  0.00     0.076 A 
HETATM   12  C   UNK     0      32.001  19.460   2.807  0.00  0.00     0.107 A 
HETATM   13  O   UNK     0      31.888  20.175   3.960  0.00  0.00    -0.323 OA
HETATM   14  C   UNK     0      33.295  19.423   2.339  0.00  0.00     0.105 A 
HETATM   15  C   UNK     0      33.256  20.584   4.165  0.00  0.00     0.352 A 
HETATM   16  O   UNK     0      34.153  20.111   3.140  0.00  0.00    -0.323 OA
HETATM   17  C   UNK     0      33.630  18.751   1.182  0.00  0.00     0.042 A 
HETATM   18  C   UNK     0      32.605  18.100   0.490  0.00  0.00     0.039 A 
ENDBRANCH   9  10
ENDBRANCH   8   9
ENDBRANCH   3   8
BRANCH   2  19
HETATM   19  C   UNK     0      28.289  15.650  -1.867  0.00  0.00    -0.053 A 
HETATM   20  C   UNK     0      29.478  15.318  -2.510  0.00  0.00     0.010 A 
HETATM   21  C   UNK     0      29.749  15.833  -3.777  0.00  0.00     0.043 A 
HETATM   22  C   UNK     0      28.829  16.679  -4.398  0.00  0.00     0.116 A 
HETATM   23  F   UNK     0      29.089  17.175  -5.615  0.00  0.00    -0.206 F 
HETATM   24  C   UNK     0      27.639  17.010  -3.749  0.00  0.00     0.043 A 
HETATM   25  C   UNK     0      27.369  16.495  -2.482  0.00  0.00     0.010 A 
ENDBRANCH   2  19
TORSDOF 4
ENDMDL
MODEL 2
REMARK VINA RESULT:      -8.9      2.594      4.189
REMARK  4 active torsions:
REMARK  status: ('A' for Active; 'I' for Inactive)
REMARK    1  A    between atoms: O_2  and  C_11 
REMARK    2  A    between atoms: O_2  and  C_17 
REMARK    3  A    between atoms: C_6  and  C_12 
REMARK    4  A    between atoms: C_7  and  C_11 
ROOT
HETATM    1  N   UNK     0      29.678  15.813  -3.959  0.00  0.00     0.083 N 
HETATM    2  C   UNK     0      28.432  16.022  -1.312  0.00  0.00     0.028 C 
HETATM    3  C   UNK     0      29.804  15.330  -1.520  0.00  0.00     0.046 C 
HETATM    4  C   UNK     0      27.617  15.992  -2.619  0.00  0.00     0.040 C 
HETATM    5  C   UNK     0      30.510  15.908  -2.761  0.00  0.00     0.276 C 
HETATM    6  C   UNK     0      28.424  16.543  -3.792  0.00  0.00     0.270 C 
HETATM    7  H   UNK     0      29.468  14.831  -4.140  0.00  0.00     0.315 HD
ENDROOT
BRANCH   3   8
HETATM    8  C   UNK     0      30.716  15.483  -0.297  0.00  0.00     0.182 C 
BRANCH   8   9
HETATM    9  O   UNK     0      31.614  16.547  -0.544  0.00  0.00    -0.351 OA
BRANCH   9  10
HETATM   10  C   UNK     0      31.753  17.490   0.445  0.00  0.00     0.071 A 
HETATM   11  C   UNK     0      33.028  17.903   0.819  0.00  0.00     0.076 A 
HETATM   12  C   UNK     0      33.117  18.852   1.816  0.00  0.00     0.107 A 
HETATM   13  O   UNK     0      34.267  19.379   2.318  0.00  0.00    -0.323 OA
HETATM   14  C   UNK     0      31.996  19.376   2.419  0.00  0.00     0.105 A 
HETATM   15  C   UNK     0      33.745  20.292   3.304  0.00  0.00     0.352 A 
HETATM   16  O   UNK     0      32.305  20.295   3.373  0.00  0.00    -0.323 OA
HETATM   17  C   UNK     0      30.725  18.979   2.059  0.00  0.00     0.042 A 
HETATM   18  C   UNK     0      30.607  18.017   1.052  0.00  0.00     0.039 A 
ENDBRANCH   9  10
ENDBRANCH   8   9
ENDBRANCH   3   8
BRANCH   2  19
HETATM   19  C   UNK     0      27.619  15.439  -0.167  0.00  0.00    -0.053 A 
HETATM   20  C   UNK     0      28.029  15.640   1.147  0.00  0.00     0.010 A 
HETATM   21  C   UNK     0      27.284  15.106   2.197  0.00  0.00     0.043 A 
HETATM   22  C   UNK     0      26.127  14.372   1.928  0.00  0.00     0.116 A 
HETATM   23  F   UNK     0      25.411  13.858   2.937  0.00  0.00    -0.206 F 
HETATM   24  C   UNK     0      25.719  14.172   0.609  0.00  0.00     0.043 A 
HETATM   25  C   UNK     0      26.467  14.707  -0.440  0.00  0.00     0.010 A 
ENDBRANCH   2  19
TORSDOF 4
ENDMDL
MODEL 3
REMARK VINA RESULT:      -8.3      3.674      7.140
REMARK  4 active torsions:
REMARK  status: ('A' for Active; 'I' for Inactive)
REMARK    1  A    between atoms: O_2  and  C_11 
REMARK    2  A    between atoms: O_2  and  C_17 
REMARK    3  A    between atoms: C_6  and  C_12 
REMARK    4  A    between atoms: C_7  and  C_11 
ROOT
HETATM    1  N   UNK     0      29.817  15.074  -2.742  0.00  0.00     0.083 N 
HETATM    2  C   UNK     0      31.289  16.144  -0.441  0.00  0.00     0.028 C 
HETATM    3  C   UNK     0      29.739  16.127  -0.487  0.00  0.00     0.046 C 
HETATM    4  C   UNK     0      31.863  16.135  -1.870  0.00  0.00     0.040 C 
HETATM    5  C   UNK     0      29.244  14.988  -1.399  0.00  0.00     0.276 C 
HETATM    6  C   UNK     0      31.275  14.998  -2.701  0.00  0.00     0.270 C 
HETATM    7  H   UNK     0      29.542  15.961  -3.163  0.00  0.00     0.315 HD
ENDROOT
BRANCH   3   8
HETATM    8  C   UNK     0      29.125  15.965   0.908  0.00  0.00     0.182 C 
BRANCH   8   9
HETATM    9  O   UNK     0      27.735  15.752   0.759  0.00  0.00    -0.351 OA
BRANCH   9  10
HETATM   10  C   UNK     0      27.094  15.073   1.767  0.00  0.00     0.071 A 
HETATM   11  C   UNK     0      25.791  14.629   1.568  0.00  0.00     0.076 A 
HETATM   12  C   UNK     0      25.190  13.952   2.609  0.00  0.00     0.107 A 
HETATM   13  O   UNK     0      23.928  13.442   2.608  0.00  0.00    -0.323 OA
HETATM   14  C   UNK     0      25.845  13.720   3.797  0.00  0.00     0.105 A 
HETATM   15  C   UNK     0      23.862  12.864   3.927  0.00  0.00     0.352 A 
HETATM   16  O   UNK     0      25.075  13.038   4.687  0.00  0.00    -0.323 OA
HETATM   17  C   UNK     0      27.137  14.154   4.010  0.00  0.00     0.042 A 
HETATM   18  C   UNK     0      27.770  14.843   2.972  0.00  0.00     0.039 A 
ENDBRANCH   9  10
ENDBRANCH   8   9
ENDBRANCH   3   8
BRANCH   2  19
HETATM   19  C   UNK     0      31.866  17.303   0.355  0.00  0.00    -0.053 A 
HETATM   20  C   UNK     0      33.246  17.437   0.484  0.00  0.00     0.010 A 
HETATM   21  C   UNK     0      33.775  18.500   1.214  0.00  0.00     0.043 A 
HETATM   22  C   UNK     0      32.922  19.428   1.813  0.00  0.00     0.116 A 
HETATM   23  F   UNK     0      33.430  20.450   2.514  0.00  0.00    -0.206 F 
HETATM   24  C   UNK     0      31.540  19.291   1.681  0.00  0.00     0.043 A 
HETATM   25  C   UNK     0      31.011  18.226   0.951  0.00  0.00     0.010 A 
ENDBRANCH   2  19
TORSDOF 4
ENDMDL
