MODEL 1
REMARK VINA RESULT:      -8.5      0.000      0.000
REMARK  4 active torsions:
REMARK  status: ('A' for Active; 'I' for Inactive)
REMARK    1  A    between atoms: O_2  and  C_11 
REMARK    2  A    between atoms: O_2  and  C_17 
REMARK    3  A    between atoms: C_6  and  C_12 
REMARK    4  A    between atoms: C_7  and  C_11 
ROOT
HETATM    1  N   UNK     0      20.611  55.459  22.983  0.00  0.00     0.083 N 
HETATM    2  C   UNK     0      20.161  58.213  23.886  0.00  0.00     0.028 C 
HETATM    3  C   UNK     0      19.367  57.018  24.474  0.00  0.00     0.046 C 
HETATM    4  C   UNK     0      20.673  57.869  22.474  0.00  0.00     0.040 C 
HETATM    5  C   UNK     0      20.191  55.721  24.359  0.00  0.00     0.276 C 
HETATM    6  C   UNK     0      21.435  56.547  22.464  0.00  0.00     0.270 C 
HETATM    7  H   UNK     0      19.781  55.362  22.397  0.00  0.00     0.315 HD
ENDROOT
BRANCH   3   8
HETATM    8  C   UNK     0      18.983  57.249  25.940  0.00  0.00     0.182 C 
BRANCH   8   9
HETATM    9  O   UNK     0      17.602  57.548  25.994  0.00  0.00    -0.351 OA
BRANCH   9  10
HETATM   10  C   UNK     0      16.745  56.503  26.240  0.00  0.00     0.071 A 
HETATM   11  C   UNK     0      15.641  56.317  25.413  0.00  0.00     0.076 A 
HETATM   12  C   UNK     0      14.810  55.254  25.699  0.00  0.00     0.107 A 
HETATM   13  O   UNK     0      13.687  54.910  25.011  0.00  0.00    -0.323 OA
HETATM   14  C   UNK     0      15.055  54.407  26.756  0.00  0.00     0.105 A 
HETATM   15  C   UNK     0      13.253  53.752  25.753  0.00  0.00     0.352 A 
HETATM   16  O   UNK     0      14.116  53.428  26.862  0.00  0.00    -0.323 OA
HETATM   17  C   UNK     0      16.144  54.577  27.585  0.00  0.00     0.042 A 
HETATM   18  C   UNK     0      17.002  55.647  27.318  0.00  0.00     0.039 A 
ENDBRANCH   9  10
ENDBRANCH   8   9
ENDBRANCH   3   8
BRANCH   2  19
HETATM   19  C   UNK     0      19.380  59.516  23.864  0.00  0.00    -0.053 A 
HETATM   20  C   UNK     0      18.234  59.625  23.080  0.00  0.00     0.010 A 
HETATM   21  C   UNK     0      17.518  60.820  23.059  0.00  0.00     0.043 A 
HETATM   22  C   UNK     0      17.948  61.905  23.824  0.00  0.00     0.116 A 
HETATM   23  F   UNK     0      17.260  63.054  23.804  0.00  0.00    -0.206 F 
HETATM   24  C   UNK     0      19.096  61.793  24.609  0.00  0.00     0.043 A 
HETATM   25  C   UNK     0      19.813  60.596  24.628  0.00  0.00     0.010 A 
ENDBRANCH   2  19
TORSDOF 4
ENDMDL
MODEL 2
REMARK VINA RESULT:      -8.4      3.323      4.883
REMARK  4 active torsions:
REMARK  status: ('A' for Active; 'I' for Inactive)
REMARK    1  A    between atoms: O_2  and  C_11 
REMARK    2  A    between atoms: O_2  and  C_17 
REMARK    3  A    between atoms: C_6  and  C_12 
REMARK    4  A    between atoms: C_7  and  C_11 
ROOT
HETATM    1  N   UNK     0      17.500  64.032  26.791  0.00  0.00     0.083 N 
HETATM    2  C   UNK     0      17.662  61.924  24.757  0.00  0.00     0.028 C 
HETATM    3  C   UNK     0      17.215  61.627  26.212  0.00  0.00     0.046 C 
HETATM    4  C   UNK     0      18.534  63.193  24.717  0.00  0.00     0.040 C 
HETATM    5  C   UNK     0      16.594  62.885  26.847  0.00  0.00     0.276 C 
HETATM    6  C   UNK     0      17.846  64.365  25.412  0.00  0.00     0.270 C 
HETATM    7  H   UNK     0      18.353  63.805  27.302  0.00  0.00     0.315 HD
ENDROOT
BRANCH   3   8
HETATM    8  C   UNK     0      16.209  60.472  26.279  0.00  0.00     0.182 C 
BRANCH   8   9
HETATM    9  O   UNK     0      16.744  59.467  27.116  0.00  0.00    -0.351 OA
BRANCH   9  10
HETATM   10  C   UNK     0      17.267  58.355  26.502  0.00  0.00     0.071 A 
HETATM   11  C   UNK     0      16.541  57.726  25.496  0.00  0.00     0.076 A 
HETATM   12  C   UNK     0      17.108  56.613  24.910  0.00  0.00     0.107 A 
HETATM   13  O   UNK     0      16.556  55.865  23.915  0.00  0.00    -0.323 OA
HETATM   14  C   UNK     0      18.342  56.139  25.296  0.00  0.00     0.105 A 
HETATM   15  C   UNK     0      17.580  54.868  23.720  0.00  0.00     0.352 A 
HETATM   16  O   UNK     0      18.715  55.037  24.593  0.00  0.00    -0.323 OA
HETATM   17  C   UNK     0      19.075  56.752  26.292  0.00  0.00     0.042 A 
HETATM   18  C   UNK     0      18.522  57.880  26.904  0.00  0.00     0.039 A 
ENDBRANCH   9  10
ENDBRANCH   8   9
ENDBRANCH   3   8
BRANCH   2  19
HETATM   19  C   UNK     0      18.382  60.765  24.088  0.00  0.00    -0.053 A 
HETATM   20  C   UNK     0      19.646  60.386  24.529  0.00  0.00     0.010 A 
HETATM   21  C   UNK     0      20.307  59.323  23.915  0.00  0.00     0.043 A 
HETATM   22  C   UNK     0      19.699  58.641  22.860  0.00  0.00     0.116 A 
HETATM   23  F   UNK     0      20.333  57.619  22.270  0.00  0.00    -0.206 F 
HETATM   24  C   UNK     0      18.431  59.023  22.421  0.00  0.00     0.043 A 
HETATM   25  C   UNK     0      17.772  60.088  23.035  0.00  0.00     0.010 A 
ENDBRANCH   2  19
TORSDOF 4
ENDMDL
MODEL 3
REMARK VINA RESULT:      -8.4      2.965      4.354
REMARK  4 active torsions:
REMARK  status: ('A' for Active; 'I' for Inactive)
REMARK    1  A    between atoms: O_2  and  C_11 
REMARK    2  A    between atoms: O_2  and  C_17 
REMARK    3  A    between atoms: C_6  and  C_12 
REMARK    4  A    between atoms: C_7  and  C_11 
ROOT
HETATM    1  N   UNK     0      22.308  58.788  24.307  0.00  0.00     0.083 N 
HETATM    2  C   UNK     0      20.234  56.928  23.387  0.00  0.00     0.028 C 
HETATM    3  C   UNK     0      20.108  57.699  24.726  0.00  0.00     0.046 C 
HETATM    4  C   UNK     0      21.716  56.791  22.990  0.00  0.00     0.040 C 
HETATM    5  C   UNK     0      20.908  59.014  24.663  0.00  0.00     0.276 C 
HETATM    6  C   UNK     0      22.425  58.143  23.002  0.00  0.00     0.270 C 
HETATM    7  H   UNK     0      22.736  58.189  25.014  0.00  0.00     0.315 HD
ENDROOT
BRANCH   3   8
HETATM    8  C   UNK     0      18.648  58.007  25.077  0.00  0.00     0.182 C 
BRANCH   8   9
HETATM    9  O   UNK     0      18.330  57.337  26.281  0.00  0.00    -0.351 OA
BRANCH   9  10
HETATM   10  C   UNK     0      17.406  56.323  26.208  0.00  0.00     0.071 A 
HETATM   11  C   UNK     0      16.177  56.563  25.603  0.00  0.00     0.076 A 
HETATM   12  C   UNK     0      15.282  55.514  25.555  0.00  0.00     0.107 A 
HETATM   13  O   UNK     0      14.036  55.551  25.008  0.00  0.00    -0.323 OA
HETATM   14  C   UNK     0      15.586  54.278  26.078  0.00  0.00     0.105 A 
HETATM   15  C   UNK     0      13.590  54.200  25.247  0.00  0.00     0.352 A 
HETATM   16  O   UNK     0      14.569  53.388  25.926  0.00  0.00    -0.323 OA
HETATM   17  C   UNK     0      16.801  54.023  26.681  0.00  0.00     0.042 A 
HETATM   18  C   UNK     0      17.725  55.070  26.745  0.00  0.00     0.039 A 
ENDBRANCH   9  10
ENDBRANCH   8   9
ENDBRANCH   3   8
BRANCH   2  19
HETATM   19  C   UNK     0      19.561  55.566  23.398  0.00  0.00    -0.053 A 
HETATM   20  C   UNK     0      20.199  54.481  23.992  0.00  0.00     0.010 A 
HETATM   21  C   UNK     0      19.581  53.231  24.002  0.00  0.00     0.043 A 
HETATM   22  C   UNK     0      18.324  53.070  23.417  0.00  0.00     0.116 A 
HETATM   23  F   UNK     0      17.730  51.870  23.426  0.00  0.00    -0.206 F 
HETATM   24  C   UNK     0      17.687  54.160  22.823  0.00  0.00     0.043 A 
HETATM   25  C   UNK     0      18.307  55.410  22.813  0.00  0.00     0.010 A 
ENDBRANCH   2  19
TORSDOF 4
ENDMDL
