MODEL 1
REMARK VINA RESULT:      -7.3      0.000      0.000
REMARK  4 active torsions:
REMARK  status: ('A' for Active; 'I' for Inactive)
REMARK    1  A    between atoms: O_2  and  C_11 
REMARK    2  A    between atoms: O_2  and  C_17 
REMARK    3  A    between atoms: C_6  and  C_12 
REMARK    4  A    between atoms: C_7  and  C_11 
ROOT
HETATM    1  N   UNK     0     -21.981 -47.641  28.618  0.00  0.00     0.083 N 
HETATM    2  C   UNK     0     -22.050 -45.768  26.361  0.00  0.00     0.028 C 
HETATM    3  C   UNK     0     -20.927 -46.826  26.515  0.00  0.00     0.046 C 
HETATM    4  C   UNK     0     -22.668 -45.445  27.735  0.00  0.00     0.040 C 
HETATM    5  C   UNK     0     -21.438 -48.036  27.319  0.00  0.00     0.276 C 
HETATM    6  C   UNK     0     -23.100 -46.715  28.465  0.00  0.00     0.270 C 
HETATM    7  H   UNK     0     -21.245 -47.187  29.160  0.00  0.00     0.315 HD
ENDROOT
BRANCH   3   8
HETATM    8  C   UNK     0     -20.397 -47.302  25.158  0.00  0.00     0.182 C 
BRANCH   8   9
HETATM    9  O   UNK     0     -19.127 -46.717  24.947  0.00  0.00    -0.351 OA
BRANCH   9  10
HETATM   10  C   UNK     0     -18.699 -46.603  23.646  0.00  0.00     0.071 A 
HETATM   11  C   UNK     0     -17.438 -46.075  23.388  0.00  0.00     0.076 A 
HETATM   12  C   UNK     0     -17.053 -45.980  22.066  0.00  0.00     0.107 A 
HETATM   13  O   UNK     0     -15.865 -45.494  21.613  0.00  0.00    -0.323 OA
HETATM   14  C   UNK     0     -17.875 -46.390  21.041  0.00  0.00     0.105 A 
HETATM   15  C   UNK     0     -16.032 -45.643  20.188  0.00  0.00     0.352 A 
HETATM   16  O   UNK     0     -17.304 -46.211  19.819  0.00  0.00    -0.323 OA
HETATM   17  C   UNK     0     -19.128 -46.916  21.280  0.00  0.00     0.042 A 
HETATM   18  C   UNK     0     -19.543 -47.021  22.610  0.00  0.00     0.039 A 
ENDBRANCH   9  10
ENDBRANCH   8   9
ENDBRANCH   3   8
BRANCH   2  19
HETATM   19  C   UNK     0     -21.601 -44.492  25.669  0.00  0.00    -0.053 A 
HETATM   20  C   UNK     0     -21.144 -43.417  26.426  0.00  0.00     0.010 A 
HETATM   21  C   UNK     0     -20.732 -42.246  25.791  0.00  0.00     0.043 A 
HETATM   22  C   UNK     0     -20.777 -42.154  24.400  0.00  0.00     0.116 A 
HETATM   23  F   UNK     0     -20.382 -41.029  23.790  0.00  0.00    -0.206 F 
HETATM   24  C   UNK     0     -21.236 -43.234  23.644  0.00  0.00     0.043 A 
HETATM   25  C   UNK     0     -21.648 -44.405  24.281  0.00  0.00     0.010 A 
ENDBRANCH   2  19
TORSDOF 4
ENDMDL
MODEL 2
REMARK VINA RESULT:      -7.0      5.890      9.508
REMARK  4 active torsions:
REMARK  status: ('A' for Active; 'I' for Inactive)
REMARK    1  A    between atoms: O_2  and  C_11 
REMARK    2  A    between atoms: O_2  and  C_17 
REMARK    3  A    between atoms: C_6  and  C_12 
REMARK    4  A    between atoms: C_7  and  C_11 
ROOT
HETATM    1  N   UNK     0     -19.800 -49.921  16.219  0.00  0.00     0.083 N 
HETATM    2  C   UNK     0     -16.980 -49.210  15.839  0.00  0.00     0.028 C 
HETATM    3  C   UNK     0     -17.557 -49.554  17.236  0.00  0.00     0.046 C 
HETATM    4  C   UNK     0     -18.101 -48.710  14.909  0.00  0.00     0.040 C 
HETATM    5  C   UNK     0     -18.776 -50.486  17.096  0.00  0.00     0.276 C 
HETATM    6  C   UNK     0     -19.276 -49.683  14.877  0.00  0.00     0.270 C 
HETATM    7  H   UNK     0     -20.121 -49.035  16.612  0.00  0.00     0.315 HD
ENDROOT
BRANCH   3   8
HETATM    8  C   UNK     0     -16.512 -50.214  18.144  0.00  0.00     0.182 C 
BRANCH   8   9
HETATM    9  O   UNK     0     -16.926 -50.053  19.486  0.00  0.00    -0.351 OA
BRANCH   9  10
HETATM   10  C   UNK     0     -16.483 -48.933  20.148  0.00  0.00     0.071 A 
HETATM   11  C   UNK     0     -17.297 -48.343  21.109  0.00  0.00     0.076 A 
HETATM   12  C   UNK     0     -16.808 -47.221  21.746  0.00  0.00     0.107 A 
HETATM   13  O   UNK     0     -17.451 -46.506  22.709  0.00  0.00    -0.323 OA
HETATM   14  C   UNK     0     -15.568 -46.702  21.451  0.00  0.00     0.105 A 
HETATM   15  C   UNK     0     -16.477 -45.479  22.987  0.00  0.00     0.352 A 
HETATM   16  O   UNK     0     -15.281 -45.598  22.191  0.00  0.00    -0.323 OA
HETATM   17  C   UNK     0     -14.749 -47.276  20.501  0.00  0.00     0.042 A 
HETATM   18  C   UNK     0     -15.220 -48.413  19.839  0.00  0.00     0.039 A 
ENDBRANCH   9  10
ENDBRANCH   8   9
ENDBRANCH   3   8
BRANCH   2  19
HETATM   19  C   UNK     0     -15.837 -48.209  15.877  0.00  0.00    -0.053 A 
HETATM   20  C   UNK     0     -14.682 -48.447  15.137  0.00  0.00     0.010 A 
HETATM   21  C   UNK     0     -13.634 -47.529  15.172  0.00  0.00     0.043 A 
HETATM   22  C   UNK     0     -13.743 -46.374  15.947  0.00  0.00     0.116 A 
HETATM   23  F   UNK     0     -12.736 -45.492  15.981  0.00  0.00    -0.206 F 
HETATM   24  C   UNK     0     -14.902 -46.139  16.688  0.00  0.00     0.043 A 
HETATM   25  C   UNK     0     -15.950 -47.059  16.653  0.00  0.00     0.010 A 
ENDBRANCH   2  19
TORSDOF 4
ENDMDL
MODEL 3
REMARK VINA RESULT:      -6.9     43.928     46.721
REMARK  4 active torsions:
REMARK  status: ('A' for Active; 'I' for Inactive)
REMARK    1  A    between atoms: O_2  and  C_11 
REMARK    2  A    between atoms: O_2  and  C_17 
REMARK    3  A    between atoms: C_6  and  C_12 
REMARK    4  A    between atoms: C_7  and  C_11 
ROOT
HETATM    1  N   UNK     0     -28.549   1.872  16.694  0.00  0.00     0.083 N 
HETATM    2  C   UNK     0     -26.802   1.299  14.409  0.00  0.00     0.028 C 
HETATM    3  C   UNK     0     -26.285   1.247  15.870  0.00  0.00     0.046 C 
HETATM    4  C   UNK     0     -28.029   2.225  14.311  0.00  0.00     0.040 C 
HETATM    5  C   UNK     0     -27.442   0.928  16.835  0.00  0.00     0.276 C 
HETATM    6  C   UNK     0     -29.094   1.850  15.339  0.00  0.00     0.270 C 
HETATM    7  H   UNK     0     -28.212   2.812  16.902  0.00  0.00     0.315 HD
ENDROOT
BRANCH   3   8
HETATM    8  C   UNK     0     -25.170   0.210  16.048  0.00  0.00     0.182 C 
BRANCH   8   9
HETATM    9  O   UNK     0     -25.060  -0.090  17.426  0.00  0.00    -0.351 OA
BRANCH   9  10
HETATM   10  C   UNK     0     -24.594  -1.338  17.759  0.00  0.00     0.071 A 
HETATM   11  C   UNK     0     -24.777  -1.811  19.054  0.00  0.00     0.076 A 
HETATM   12  C   UNK     0     -24.292  -3.071  19.341  0.00  0.00     0.107 A 
HETATM   13  O   UNK     0     -24.374  -3.703  20.544  0.00  0.00    -0.323 OA
HETATM   14  C   UNK     0     -23.654  -3.835  18.391  0.00  0.00     0.105 A 
HETATM   15  C   UNK     0     -23.715  -4.951  20.244  0.00  0.00     0.352 A 
HETATM   16  O   UNK     0     -23.255  -5.040  18.880  0.00  0.00    -0.323 OA
HETATM   17  C   UNK     0     -23.464  -3.381  17.102  0.00  0.00     0.042 A 
HETATM   18  C   UNK     0     -23.945  -2.107  16.785  0.00  0.00     0.039 A 
ENDBRANCH   9  10
ENDBRANCH   8   9
ENDBRANCH   3   8
BRANCH   2  19
HETATM   19  C   UNK     0     -25.745   1.712  13.398  0.00  0.00    -0.053 A 
HETATM   20  C   UNK     0     -25.551   0.951  12.248  0.00  0.00     0.010 A 
HETATM   21  C   UNK     0     -24.581   1.330  11.321  0.00  0.00     0.043 A 
HETATM   22  C   UNK     0     -23.809   2.470  11.546  0.00  0.00     0.116 A 
HETATM   23  F   UNK     0     -22.877   2.834  10.655  0.00  0.00    -0.206 F 
HETATM   24  C   UNK     0     -24.007   3.230  12.699  0.00  0.00     0.043 A 
HETATM   25  C   UNK     0     -24.977   2.850  13.627  0.00  0.00     0.010 A 
ENDBRANCH   2  19
TORSDOF 4
ENDMDL
