MODEL 1
REMARK VINA RESULT:      -9.7      0.000      0.000
REMARK  4 active torsions:
REMARK  status: ('A' for Active; 'I' for Inactive)
REMARK    1  A    between atoms: O_2  and  C_11 
REMARK    2  A    between atoms: O_2  and  C_17 
REMARK    3  A    between atoms: C_6  and  C_12 
REMARK    4  A    between atoms: C_7  and  C_11 
ROOT
HETATM    1  N   UNK     0     167.952  -7.726 343.902  0.00  0.00     0.083 N 
HETATM    2  C   UNK     0     167.551  -5.175 342.510  0.00  0.00     0.028 C 
HETATM    3  C   UNK     0     166.587  -5.662 343.622  0.00  0.00     0.046 C 
HETATM    4  C   UNK     0     168.269  -6.376 341.865  0.00  0.00     0.040 C 
HETATM    5  C   UNK     0     167.325  -6.601 344.596  0.00  0.00     0.276 C 
HETATM    6  C   UNK     0     168.926  -7.264 342.918  0.00  0.00     0.270 C 
HETATM    7  H   UNK     0     167.228  -8.266 343.426  0.00  0.00     0.315 HD
ENDROOT
BRANCH   3   8
HETATM    8  C   UNK     0     165.977  -4.494 344.406  0.00  0.00     0.182 C 
BRANCH   8   9
HETATM    9  O   UNK     0     164.570  -4.566 344.285  0.00  0.00    -0.351 OA
BRANCH   9  10
HETATM   10  C   UNK     0     163.982  -3.771 343.331  0.00  0.00     0.071 A 
HETATM   11  C   UNK     0     163.256  -4.362 342.302  0.00  0.00     0.076 A 
HETATM   12  C   UNK     0     162.685  -3.522 341.369  0.00  0.00     0.107 A 
HETATM   13  O   UNK     0     161.942  -3.908 340.296  0.00  0.00    -0.323 OA
HETATM   14  C   UNK     0     162.821  -2.154 341.446  0.00  0.00     0.105 A 
HETATM   15  C   UNK     0     161.627  -2.630 339.705  0.00  0.00     0.352 A 
HETATM   16  O   UNK     0     162.182  -1.514 340.430  0.00  0.00    -0.323 OA
HETATM   17  C   UNK     0     163.537  -1.552 342.459  0.00  0.00     0.042 A 
HETATM   18  C   UNK     0     164.127  -2.380 343.418  0.00  0.00     0.039 A 
ENDBRANCH   9  10
ENDBRANCH   8   9
ENDBRANCH   3   8
BRANCH   2  19
HETATM   19  C   UNK     0     166.879  -4.325 341.444  0.00  0.00    -0.053 A 
HETATM   20  C   UNK     0     166.270  -4.937 340.352  0.00  0.00     0.010 A 
HETATM   21  C   UNK     0     165.654  -4.157 339.374  0.00  0.00     0.043 A 
HETATM   22  C   UNK     0     165.646  -2.766 339.493  0.00  0.00     0.116 A 
HETATM   23  F   UNK     0     165.054  -2.017 338.554  0.00  0.00    -0.206 F 
HETATM   24  C   UNK     0     166.256  -2.158 340.590  0.00  0.00     0.043 A 
HETATM   25  C   UNK     0     166.874  -2.939 341.567  0.00  0.00     0.010 A 
ENDBRANCH   2  19
TORSDOF 4
ENDMDL
MODEL 2
REMARK VINA RESULT:      -9.6      3.142      6.355
REMARK  4 active torsions:
REMARK  status: ('A' for Active; 'I' for Inactive)
REMARK    1  A    between atoms: O_2  and  C_11 
REMARK    2  A    between atoms: O_2  and  C_17 
REMARK    3  A    between atoms: C_6  and  C_12 
REMARK    4  A    between atoms: C_7  and  C_11 
ROOT
HETATM    1  N   UNK     0     161.456  -3.175 339.970  0.00  0.00     0.083 N 
HETATM    2  C   UNK     0     163.580  -2.762 341.951  0.00  0.00     0.028 C 
HETATM    3  C   UNK     0     163.875  -3.329 340.539  0.00  0.00     0.046 C 
HETATM    4  C   UNK     0     162.116  -3.041 342.340  0.00  0.00     0.040 C 
HETATM    5  C   UNK     0     162.813  -2.843 339.535  0.00  0.00     0.276 C 
HETATM    6  C   UNK     0     161.150  -2.562 341.260  0.00  0.00     0.270 C 
HETATM    7  H   UNK     0     161.374  -4.188 340.055  0.00  0.00     0.315 HD
ENDROOT
BRANCH   3   8
HETATM    8  C   UNK     0     165.269  -2.930 340.039  0.00  0.00     0.182 C 
BRANCH   8   9
HETATM    9  O   UNK     0     165.778  -3.988 339.253  0.00  0.00    -0.351 OA
BRANCH   9  10
HETATM   10  C   UNK     0     166.354  -5.043 339.920  0.00  0.00     0.071 A 
HETATM   11  C   UNK     0     167.035  -4.806 341.110  0.00  0.00     0.076 A 
HETATM   12  C   UNK     0     167.596  -5.897 341.743  0.00  0.00     0.107 A 
HETATM   13  O   UNK     0     168.298  -5.869 342.909  0.00  0.00    -0.323 OA
HETATM   14  C   UNK     0     167.488  -7.168 341.228  0.00  0.00     0.105 A 
HETATM   15  C   UNK     0     168.620  -7.266 343.069  0.00  0.00     0.352 A 
HETATM   16  O   UNK     0     168.110  -8.095 342.006  0.00  0.00    -0.323 OA
HETATM   17  C   UNK     0     166.815  -7.419 340.050  0.00  0.00     0.042 A 
HETATM   18  C   UNK     0     166.239  -6.332 339.387  0.00  0.00     0.039 A 
ENDBRANCH   9  10
ENDBRANCH   8   9
ENDBRANCH   3   8
BRANCH   2  19
HETATM   19  C   UNK     0     164.521  -3.276 343.028  0.00  0.00    -0.053 A 
HETATM   20  C   UNK     0     165.528  -2.450 343.520  0.00  0.00     0.010 A 
HETATM   21  C   UNK     0     166.392  -2.922 344.508  0.00  0.00     0.043 A 
HETATM   22  C   UNK     0     166.245  -4.219 345.001  0.00  0.00     0.116 A 
HETATM   23  F   UNK     0     167.075  -4.672 345.950  0.00  0.00    -0.206 F 
HETATM   24  C   UNK     0     165.235  -5.043 344.506  0.00  0.00     0.043 A 
HETATM   25  C   UNK     0     164.372  -4.571 343.517  0.00  0.00     0.010 A 
ENDBRANCH   2  19
TORSDOF 4
ENDMDL
MODEL 3
REMARK VINA RESULT:      -9.4      3.295      6.273
REMARK  4 active torsions:
REMARK  status: ('A' for Active; 'I' for Inactive)
REMARK    1  A    between atoms: O_2  and  C_11 
REMARK    2  A    between atoms: O_2  and  C_17 
REMARK    3  A    between atoms: C_6  and  C_12 
REMARK    4  A    between atoms: C_7  and  C_11 
ROOT
HETATM    1  N   UNK     0     163.293  -2.182 339.193  0.00  0.00     0.083 N 
HETATM    2  C   UNK     0     165.509  -2.608 341.067  0.00  0.00     0.028 C 
HETATM    3  C   UNK     0     165.060  -3.703 340.067  0.00  0.00     0.046 C 
HETATM    4  C   UNK     0     164.345  -1.640 341.354  0.00  0.00     0.040 C 
HETATM    5  C   UNK     0     164.404  -3.061 338.830  0.00  0.00     0.276 C 
HETATM    6  C   UNK     0     163.739  -1.097 340.063  0.00  0.00     0.270 C 
HETATM    7  H   UNK     0     162.584  -2.729 339.681  0.00  0.00     0.315 HD
ENDROOT
BRANCH   3   8
HETATM    8  C   UNK     0     166.229  -4.589 339.621  0.00  0.00     0.182 C 
BRANCH   8   9
HETATM    9  O   UNK     0     165.911  -5.932 339.930  0.00  0.00    -0.351 OA
BRANCH   9  10
HETATM   10  C   UNK     0     166.570  -6.503 340.991  0.00  0.00     0.071 A 
HETATM   11  C   UNK     0     165.839  -7.164 341.972  0.00  0.00     0.076 A 
HETATM   12  C   UNK     0     166.545  -7.721 343.018  0.00  0.00     0.107 A 
HETATM   13  O   UNK     0     166.012  -8.403 344.069  0.00  0.00    -0.323 OA
HETATM   14  C   UNK     0     167.917  -7.633 343.094  0.00  0.00     0.105 A 
HETATM   15  C   UNK     0     167.201  -8.735 344.814  0.00  0.00     0.352 A 
HETATM   16  O   UNK     0     168.413  -8.249 344.201  0.00  0.00    -0.323 OA
HETATM   17  C   UNK     0     168.657  -6.982 342.129  0.00  0.00     0.042 A 
HETATM   18  C   UNK     0     167.966  -6.407 341.059  0.00  0.00     0.039 A 
ENDBRANCH   9  10
ENDBRANCH   8   9
ENDBRANCH   3   8
BRANCH   2  19
HETATM   19  C   UNK     0     166.074  -3.157 342.366  0.00  0.00    -0.053 A 
HETATM   20  C   UNK     0     167.449  -3.148 342.584  0.00  0.00     0.010 A 
HETATM   21  C   UNK     0     167.967  -3.652 343.776  0.00  0.00     0.043 A 
HETATM   22  C   UNK     0     167.107  -4.165 344.748  0.00  0.00     0.116 A 
HETATM   23  F   UNK     0     167.605  -4.650 345.894  0.00  0.00    -0.206 F 
HETATM   24  C   UNK     0     165.730  -4.172 344.527  0.00  0.00     0.043 A 
HETATM   25  C   UNK     0     165.213  -3.668 343.334  0.00  0.00     0.010 A 
ENDBRANCH   2  19
TORSDOF 4
ENDMDL
