MODEL 1
REMARK VINA RESULT:      -7.2      0.000      0.000
REMARK  4 active torsions:
REMARK  status: ('A' for Active; 'I' for Inactive)
REMARK    1  A    between atoms: O_2  and  C_11 
REMARK    2  A    between atoms: O_2  and  C_17 
REMARK    3  A    between atoms: C_6  and  C_12 
REMARK    4  A    between atoms: C_7  and  C_11 
ROOT
HETATM    1  N   UNK     0      45.123   2.925  35.075  0.00  0.00     0.083 N 
HETATM    2  C   UNK     0      42.729   3.224  33.407  0.00  0.00     0.028 C 
HETATM    3  C   UNK     0      42.836   2.127  34.497  0.00  0.00     0.046 C 
HETATM    4  C   UNK     0      44.134   3.646  32.937  0.00  0.00     0.040 C 
HETATM    5  C   UNK     0      43.808   2.570  35.607  0.00  0.00     0.276 C 
HETATM    6  C   UNK     0      45.027   4.022  34.116  0.00  0.00     0.270 C 
HETATM    7  H   UNK     0      45.523   2.110  34.610  0.00  0.00     0.315 HD
ENDROOT
BRANCH   3   8
HETATM    8  C   UNK     0      41.473   1.795  35.115  0.00  0.00     0.182 C 
BRANCH   8   9
HETATM    9  O   UNK     0      41.300   2.600  36.264  0.00  0.00    -0.351 OA
BRANCH   9  10
HETATM   10  C   UNK     0      40.144   3.338  36.343  0.00  0.00     0.071 A 
HETATM   11  C   UNK     0      39.533   3.518  37.580  0.00  0.00     0.076 A 
HETATM   12  C   UNK     0      38.374   4.267  37.608  0.00  0.00     0.107 A 
HETATM   13  O   UNK     0      37.635   4.554  38.714  0.00  0.00    -0.323 OA
HETATM   14  C   UNK     0      37.839   4.817  36.465  0.00  0.00     0.105 A 
HETATM   15  C   UNK     0      36.575   5.345  38.140  0.00  0.00     0.352 A 
HETATM   16  O   UNK     0      36.699   5.516  36.714  0.00  0.00    -0.323 OA
HETATM   17  C   UNK     0      38.433   4.648  35.232  0.00  0.00     0.042 A 
HETATM   18  C   UNK     0      39.607   3.893  35.175  0.00  0.00     0.039 A 
ENDBRANCH   9  10
ENDBRANCH   8   9
ENDBRANCH   3   8
BRANCH   2  19
HETATM   19  C   UNK     0      41.870   2.826  32.218  0.00  0.00    -0.053 A 
HETATM   20  C   UNK     0      42.199   1.698  31.472  0.00  0.00     0.010 A 
HETATM   21  C   UNK     0      41.411   1.332  30.381  0.00  0.00     0.043 A 
HETATM   22  C   UNK     0      40.294   2.097  30.041  0.00  0.00     0.116 A 
HETATM   23  F   UNK     0      39.537   1.746  28.993  0.00  0.00    -0.206 F 
HETATM   24  C   UNK     0      39.967   3.226  30.791  0.00  0.00     0.043 A 
HETATM   25  C   UNK     0      40.757   3.591  31.881  0.00  0.00     0.010 A 
ENDBRANCH   2  19
TORSDOF 4
ENDMDL
MODEL 2
REMARK VINA RESULT:      -6.4      3.410      6.271
REMARK  4 active torsions:
REMARK  status: ('A' for Active; 'I' for Inactive)
REMARK    1  A    between atoms: O_2  and  C_11 
REMARK    2  A    between atoms: O_2  and  C_17 
REMARK    3  A    between atoms: C_6  and  C_12 
REMARK    4  A    between atoms: C_7  and  C_11 
ROOT
HETATM    1  N   UNK     0      44.316   1.725  35.256  0.00  0.00     0.083 N 
HETATM    2  C   UNK     0      41.450   2.349  35.228  0.00  0.00     0.028 C 
HETATM    3  C   UNK     0      42.477   3.172  34.407  0.00  0.00     0.046 C 
HETATM    4  C   UNK     0      42.147   1.671  36.423  0.00  0.00     0.040 C 
HETATM    5  C   UNK     0      43.703   2.305  34.062  0.00  0.00     0.276 C 
HETATM    6  C   UNK     0      43.372   0.877  35.978  0.00  0.00     0.270 C 
HETATM    7  H   UNK     0      44.623   2.480  35.871  0.00  0.00     0.315 HD
ENDROOT
BRANCH   3   8
HETATM    8  C   UNK     0      41.866   3.727  33.115  0.00  0.00     0.182 C 
BRANCH   8   9
HETATM    9  O   UNK     0      41.555   2.638  32.268  0.00  0.00    -0.351 OA
BRANCH   9  10
HETATM   10  C   UNK     0      41.006   2.934  31.044  0.00  0.00     0.071 A 
HETATM   11  C   UNK     0      39.659   3.273  30.965  0.00  0.00     0.076 A 
HETATM   12  C   UNK     0      39.153   3.562  29.715  0.00  0.00     0.107 A 
HETATM   13  O   UNK     0      37.868   3.912  29.435  0.00  0.00    -0.323 OA
HETATM   14  C   UNK     0      39.941   3.522  28.587  0.00  0.00     0.105 A 
HETATM   15  C   UNK     0      37.935   4.087  28.004  0.00  0.00     0.352 A 
HETATM   16  O   UNK     0      39.248   3.840  27.461  0.00  0.00    -0.323 OA
HETATM   17  C   UNK     0      41.278   3.188  28.648  0.00  0.00     0.042 A 
HETATM   18  C   UNK     0      41.816   2.889  29.903  0.00  0.00     0.039 A 
ENDBRANCH   9  10
ENDBRANCH   8   9
ENDBRANCH   3   8
BRANCH   2  19
HETATM   19  C   UNK     0      40.254   3.158  35.701  0.00  0.00    -0.053 A 
HETATM   20  C   UNK     0      39.544   3.940  34.795  0.00  0.00     0.010 A 
HETATM   21  C   UNK     0      38.446   4.682  35.229  0.00  0.00     0.043 A 
HETATM   22  C   UNK     0      38.061   4.639  36.569  0.00  0.00     0.116 A 
HETATM   23  F   UNK     0      37.006   5.351  36.987  0.00  0.00    -0.206 F 
HETATM   24  C   UNK     0      38.775   3.853  37.475  0.00  0.00     0.043 A 
HETATM   25  C   UNK     0      39.874   3.112  37.039  0.00  0.00     0.010 A 
ENDBRANCH   2  19
TORSDOF 4
ENDMDL
MODEL 3
REMARK VINA RESULT:      -6.3      4.416      7.769
REMARK  4 active torsions:
REMARK  status: ('A' for Active; 'I' for Inactive)
REMARK    1  A    between atoms: O_2  and  C_11 
REMARK    2  A    between atoms: O_2  and  C_17 
REMARK    3  A    between atoms: C_6  and  C_12 
REMARK    4  A    between atoms: C_7  and  C_11 
ROOT
HETATM    1  N   UNK     0      38.758   3.317  32.530  0.00  0.00     0.083 N 
HETATM    2  C   UNK     0      41.608   3.799  33.033  0.00  0.00     0.028 C 
HETATM    3  C   UNK     0      41.106   3.151  31.717  0.00  0.00     0.046 C 
HETATM    4  C   UNK     0      40.587   3.568  34.163  0.00  0.00     0.040 C 
HETATM    5  C   UNK     0      39.663   3.599  31.416  0.00  0.00     0.276 C 
HETATM    6  C   UNK     0      39.185   4.004  33.746  0.00  0.00     0.270 C 
HETATM    7  H   UNK     0      38.749   2.311  32.702  0.00  0.00     0.315 HD
ENDROOT
BRANCH   3   8
HETATM    8  C   UNK     0      42.006   3.498  30.525  0.00  0.00     0.182 C 
BRANCH   8   9
HETATM    9  O   UNK     0      42.400   2.292  29.902  0.00  0.00    -0.351 OA
BRANCH   9  10
HETATM   10  C   UNK     0      43.626   1.779  30.251  0.00  0.00     0.071 A 
HETATM   11  C   UNK     0      44.732   2.621  30.289  0.00  0.00     0.076 A 
HETATM   12  C   UNK     0      45.941   2.059  30.646  0.00  0.00     0.107 A 
HETATM   13  O   UNK     0      47.130   2.716  30.739  0.00  0.00    -0.323 OA
HETATM   14  C   UNK     0      46.056   0.723  30.955  0.00  0.00     0.105 A 
HETATM   15  C   UNK     0      48.006   1.642  31.141  0.00  0.00     0.352 A 
HETATM   16  O   UNK     0      47.331   0.376  31.279  0.00  0.00    -0.323 OA
HETATM   17  C   UNK     0      44.969  -0.125  30.923  0.00  0.00     0.042 A 
HETATM   18  C   UNK     0      43.732   0.418  30.563  0.00  0.00     0.039 A 
ENDBRANCH   9  10
ENDBRANCH   8   9
ENDBRANCH   3   8
BRANCH   2  19
HETATM   19  C   UNK     0      42.988   3.329  33.461  0.00  0.00    -0.053 A 
HETATM   20  C   UNK     0      44.052   4.226  33.477  0.00  0.00     0.010 A 
HETATM   21  C   UNK     0      45.318   3.794  33.870  0.00  0.00     0.043 A 
HETATM   22  C   UNK     0      45.516   2.465  34.247  0.00  0.00     0.116 A 
HETATM   23  F   UNK     0      46.732   2.050  34.624  0.00  0.00    -0.206 F 
HETATM   24  C   UNK     0      44.447   1.569  34.230  0.00  0.00     0.043 A 
HETATM   25  C   UNK     0      43.181   2.002  33.836  0.00  0.00     0.010 A 
ENDBRANCH   2  19
TORSDOF 4
ENDMDL
