MODEL 1
REMARK VINA RESULT:      -9.3      0.000      0.000
REMARK  4 active torsions:
REMARK  status: ('A' for Active; 'I' for Inactive)
REMARK    1  A    between atoms: O_2  and  C_11 
REMARK    2  A    between atoms: O_2  and  C_17 
REMARK    3  A    between atoms: C_6  and  C_12 
REMARK    4  A    between atoms: C_7  and  C_11 
ROOT
HETATM    1  N   UNK     0     -20.703   7.676  17.240  0.00  0.00     0.083 N 
HETATM    2  C   UNK     0     -23.029   6.068  16.456  0.00  0.00     0.028 C 
HETATM    3  C   UNK     0     -23.079   7.618  16.497  0.00  0.00     0.046 C 
HETATM    4  C   UNK     0     -21.934   5.547  17.406  0.00  0.00     0.040 C 
HETATM    5  C   UNK     0     -21.671   8.204  16.279  0.00  0.00     0.276 C 
HETATM    6  C   UNK     0     -20.592   6.223  17.136  0.00  0.00     0.270 C 
HETATM    7  H   UNK     0     -21.007   7.919  18.183  0.00  0.00     0.315 HD
ENDROOT
BRANCH   3   8
HETATM    8  C   UNK     0     -24.037   8.189  15.445  0.00  0.00     0.182 C 
BRANCH   8   9
HETATM    9  O   UNK     0     -24.535   9.423  15.922  0.00  0.00    -0.351 OA
BRANCH   9  10
HETATM   10  C   UNK     0     -24.173  10.553  15.230  0.00  0.00     0.071 A 
HETATM   11  C   UNK     0     -23.661  11.644  15.925  0.00  0.00     0.076 A 
HETATM   12  C   UNK     0     -23.312  12.756  15.186  0.00  0.00     0.107 A 
HETATM   13  O   UNK     0     -22.798  13.915  15.681  0.00  0.00    -0.323 OA
HETATM   14  C   UNK     0     -23.460  12.792  13.818  0.00  0.00     0.105 A 
HETATM   15  C   UNK     0     -22.639  14.684  14.471  0.00  0.00     0.352 A 
HETATM   16  O   UNK     0     -23.058  13.978  13.286  0.00  0.00    -0.323 OA
HETATM   17  C   UNK     0     -23.966  11.719  13.114  0.00  0.00     0.042 A 
HETATM   18  C   UNK     0     -24.329  10.580  13.838  0.00  0.00     0.039 A 
ENDBRANCH   9  10
ENDBRANCH   8   9
ENDBRANCH   3   8
BRANCH   2  19
HETATM   19  C   UNK     0     -24.359   5.403  16.766  0.00  0.00    -0.053 A 
HETATM   20  C   UNK     0     -25.274   6.038  17.603  0.00  0.00     0.010 A 
HETATM   21  C   UNK     0     -26.494   5.428  17.887  0.00  0.00     0.043 A 
HETATM   22  C   UNK     0     -26.798   4.183  17.333  0.00  0.00     0.116 A 
HETATM   23  F   UNK     0     -27.971   3.597  17.606  0.00  0.00    -0.206 F 
HETATM   24  C   UNK     0     -25.880   3.551  16.495  0.00  0.00     0.043 A 
HETATM   25  C   UNK     0     -24.658   4.162  16.212  0.00  0.00     0.010 A 
ENDBRANCH   2  19
TORSDOF 4
ENDMDL
MODEL 2
REMARK VINA RESULT:      -9.0      1.453      2.222
REMARK  4 active torsions:
REMARK  status: ('A' for Active; 'I' for Inactive)
REMARK    1  A    between atoms: O_2  and  C_11 
REMARK    2  A    between atoms: O_2  and  C_17 
REMARK    3  A    between atoms: C_6  and  C_12 
REMARK    4  A    between atoms: C_7  and  C_11 
ROOT
HETATM    1  N   UNK     0     -20.378   5.504  18.332  0.00  0.00     0.083 N 
HETATM    2  C   UNK     0     -22.912   4.565  17.190  0.00  0.00     0.028 C 
HETATM    3  C   UNK     0     -22.511   6.063  17.176  0.00  0.00     0.046 C 
HETATM    4  C   UNK     0     -22.189   3.832  18.336  0.00  0.00     0.040 C 
HETATM    5  C   UNK     0     -20.977   6.206  17.198  0.00  0.00     0.276 C 
HETATM    6  C   UNK     0     -20.683   4.076  18.292  0.00  0.00     0.270 C 
HETATM    7  H   UNK     0     -20.747   5.898  19.198  0.00  0.00     0.315 HD
ENDROOT
BRANCH   3   8
HETATM    8  C   UNK     0     -23.074   6.797  15.953  0.00  0.00     0.182 C 
BRANCH   8   9
HETATM    9  O   UNK     0     -23.612   8.030  16.385  0.00  0.00    -0.351 OA
BRANCH   9  10
HETATM   10  C   UNK     0     -23.195   9.161  15.725  0.00  0.00     0.071 A 
HETATM   11  C   UNK     0     -24.114   9.892  14.978  0.00  0.00     0.076 A 
HETATM   12  C   UNK     0     -23.647  11.019  14.333  0.00  0.00     0.107 A 
HETATM   13  O   UNK     0     -24.387  11.859  13.558  0.00  0.00    -0.323 OA
HETATM   14  C   UNK     0     -22.331  11.412  14.421  0.00  0.00     0.105 A 
HETATM   15  C   UNK     0     -23.389  12.825  13.169  0.00  0.00     0.352 A 
HETATM   16  O   UNK     0     -22.083  12.547  13.713  0.00  0.00    -0.323 OA
HETATM   17  C   UNK     0     -21.409  10.699  15.158  0.00  0.00     0.042 A 
HETATM   18  C   UNK     0     -21.854   9.552  15.820  0.00  0.00     0.039 A 
ENDBRANCH   9  10
ENDBRANCH   8   9
ENDBRANCH   3   8
BRANCH   2  19
HETATM   19  C   UNK     0     -24.411   4.333  17.275  0.00  0.00    -0.053 A 
HETATM   20  C   UNK     0     -25.016   3.396  16.442  0.00  0.00     0.010 A 
HETATM   21  C   UNK     0     -26.391   3.183  16.520  0.00  0.00     0.043 A 
HETATM   22  C   UNK     0     -27.159   3.907  17.433  0.00  0.00     0.116 A 
HETATM   23  F   UNK     0     -28.481   3.702  17.508  0.00  0.00    -0.206 F 
HETATM   24  C   UNK     0     -26.549   4.844  18.267  0.00  0.00     0.043 A 
HETATM   25  C   UNK     0     -25.173   5.057  18.188  0.00  0.00     0.010 A 
ENDBRANCH   2  19
TORSDOF 4
ENDMDL
MODEL 3
REMARK VINA RESULT:      -8.9      2.919      6.512
REMARK  4 active torsions:
REMARK  status: ('A' for Active; 'I' for Inactive)
REMARK    1  A    between atoms: O_2  and  C_11 
REMARK    2  A    between atoms: O_2  and  C_17 
REMARK    3  A    between atoms: C_6  and  C_12 
REMARK    4  A    between atoms: C_7  and  C_11 
ROOT
HETATM    1  N   UNK     0     -23.014  11.115  13.887  0.00  0.00     0.083 N 
HETATM    2  C   UNK     0     -24.030   9.002  15.650  0.00  0.00     0.028 C 
HETATM    3  C   UNK     0     -22.513   9.201  15.399  0.00  0.00     0.046 C 
HETATM    4  C   UNK     0     -24.843   9.571  14.471  0.00  0.00     0.040 C 
HETATM    5  C   UNK     0     -22.220  10.668  15.031  0.00  0.00     0.276 C 
HETATM    6  C   UNK     0     -24.444  11.011  14.162  0.00  0.00     0.270 C 
HETATM    7  H   UNK     0     -22.788  10.533  13.080  0.00  0.00     0.315 HD
ENDROOT
BRANCH   3   8
HETATM    8  C   UNK     0     -21.672   8.803  16.617  0.00  0.00     0.182 C 
BRANCH   8   9
HETATM    9  O   UNK     0     -20.765   7.795  16.220  0.00  0.00    -0.351 OA
BRANCH   9  10
HETATM   10  C   UNK     0     -20.627   6.712  17.054  0.00  0.00     0.071 A 
HETATM   11  C   UNK     0     -21.596   5.714  17.042  0.00  0.00     0.076 A 
HETATM   12  C   UNK     0     -21.414   4.647  17.897  0.00  0.00     0.107 A 
HETATM   13  O   UNK     0     -22.247   3.579  18.030  0.00  0.00    -0.323 OA
HETATM   14  C   UNK     0     -20.322   4.565  18.730  0.00  0.00     0.105 A 
HETATM   15  C   UNK     0     -21.557   2.815  19.040  0.00  0.00     0.352 A 
HETATM   16  O   UNK     0     -20.335   3.436  19.489  0.00  0.00    -0.323 OA
HETATM   17  C   UNK     0     -19.352   5.546  18.755  0.00  0.00     0.042 A 
HETATM   18  C   UNK     0     -19.512   6.638  17.898  0.00  0.00     0.039 A 
ENDBRANCH   9  10
ENDBRANCH   8   9
ENDBRANCH   3   8
BRANCH   2  19
HETATM   19  C   UNK     0     -24.423   7.558  15.917  0.00  0.00    -0.053 A 
HETATM   20  C   UNK     0     -24.946   7.200  17.156  0.00  0.00     0.010 A 
HETATM   21  C   UNK     0     -25.306   5.876  17.401  0.00  0.00     0.043 A 
HETATM   22  C   UNK     0     -25.144   4.913  16.404  0.00  0.00     0.116 A 
HETATM   23  F   UNK     0     -25.491   3.641  16.639  0.00  0.00    -0.206 F 
HETATM   24  C   UNK     0     -24.620   5.276  15.163  0.00  0.00     0.043 A 
HETATM   25  C   UNK     0     -24.259   6.601  14.919  0.00  0.00     0.010 A 
ENDBRANCH   2  19
TORSDOF 4
ENDMDL
