MODEL 1
REMARK VINA RESULT:      -7.0      0.000      0.000
REMARK  4 active torsions:
REMARK  status: ('A' for Active; 'I' for Inactive)
REMARK    1  A    between atoms: O_2  and  C_11 
REMARK    2  A    between atoms: O_2  and  C_17 
REMARK    3  A    between atoms: C_6  and  C_12 
REMARK    4  A    between atoms: C_7  and  C_11 
ROOT
HETATM    1  N   UNK     0     -22.888  37.873  46.203  0.00  0.00     0.083 N 
HETATM    2  C   UNK     0     -20.524  37.088  44.654  0.00  0.00     0.028 C 
HETATM    3  C   UNK     0     -20.660  38.499  45.283  0.00  0.00     0.046 C 
HETATM    4  C   UNK     0     -21.917  36.471  44.424  0.00  0.00     0.040 C 
HETATM    5  C   UNK     0     -21.580  38.446  46.518  0.00  0.00     0.276 C 
HETATM    6  C   UNK     0     -22.760  36.510  45.696  0.00  0.00     0.270 C 
HETATM    7  H   UNK     0     -23.340  38.451  45.494  0.00  0.00     0.315 HD
ENDROOT
BRANCH   3   8
HETATM    8  C   UNK     0     -19.301  39.082  45.684  0.00  0.00     0.182 C 
BRANCH   8   9
HETATM    9  O   UNK     0     -19.277  39.225  47.091  0.00  0.00    -0.351 OA
BRANCH   9  10
HETATM   10  C   UNK     0     -19.210  40.504  47.589  0.00  0.00     0.071 A 
HETATM   11  C   UNK     0     -19.500  41.577  46.754  0.00  0.00     0.076 A 
HETATM   12  C   UNK     0     -19.418  42.842  47.300  0.00  0.00     0.107 A 
HETATM   13  O   UNK     0     -19.663  44.011  46.647  0.00  0.00    -0.323 OA
HETATM   14  C   UNK     0     -19.067  43.042  48.615  0.00  0.00     0.105 A 
HETATM   15  C   UNK     0     -19.426  44.969  47.699  0.00  0.00     0.352 A 
HETATM   16  O   UNK     0     -19.047  44.360  48.950  0.00  0.00    -0.323 OA
HETATM   17  C   UNK     0     -18.777  41.988  49.457  0.00  0.00     0.042 A 
HETATM   18  C   UNK     0     -18.851  40.696  48.929  0.00  0.00     0.039 A 
ENDBRANCH   9  10
ENDBRANCH   8   9
ENDBRANCH   3   8
BRANCH   2  19
HETATM   19  C   UNK     0     -19.716  37.066  43.367  0.00  0.00    -0.053 A 
HETATM   20  C   UNK     0     -18.494  36.400  43.326  0.00  0.00     0.010 A 
HETATM   21  C   UNK     0     -17.754  36.380  42.145  0.00  0.00     0.043 A 
HETATM   22  C   UNK     0     -18.238  37.026  41.007  0.00  0.00     0.116 A 
HETATM   23  F   UNK     0     -17.526  37.007  39.872  0.00  0.00    -0.206 F 
HETATM   24  C   UNK     0     -19.462  37.692  41.052  0.00  0.00     0.043 A 
HETATM   25  C   UNK     0     -20.203  37.712  42.234  0.00  0.00     0.010 A 
ENDBRANCH   2  19
TORSDOF 4
ENDMDL
MODEL 2
REMARK VINA RESULT:      -6.9      1.517      2.431
REMARK  4 active torsions:
REMARK  status: ('A' for Active; 'I' for Inactive)
REMARK    1  A    between atoms: O_2  and  C_11 
REMARK    2  A    between atoms: O_2  and  C_17 
REMARK    3  A    between atoms: C_6  and  C_12 
REMARK    4  A    between atoms: C_7  and  C_11 
ROOT
HETATM    1  N   UNK     0     -23.092  37.690  46.147  0.00  0.00     0.083 N 
HETATM    2  C   UNK     0     -20.644  36.990  44.690  0.00  0.00     0.028 C 
HETATM    3  C   UNK     0     -20.848  38.389  45.328  0.00  0.00     0.046 C 
HETATM    4  C   UNK     0     -22.008  36.336  44.397  0.00  0.00     0.040 C 
HETATM    5  C   UNK     0     -21.815  38.296  46.523  0.00  0.00     0.276 C 
HETATM    6  C   UNK     0     -22.904  36.336  45.632  0.00  0.00     0.270 C 
HETATM    7  H   UNK     0     -23.531  38.262  45.426  0.00  0.00     0.315 HD
ENDROOT
BRANCH   3   8
HETATM    8  C   UNK     0     -19.523  39.007  45.791  0.00  0.00     0.182 C 
BRANCH   8   9
HETATM    9  O   UNK     0     -19.809  40.228  46.445  0.00  0.00    -0.351 OA
BRANCH   9  10
HETATM   10  C   UNK     0     -19.023  40.559  47.522  0.00  0.00     0.071 A 
HETATM   11  C   UNK     0     -18.299  39.564  48.170  0.00  0.00     0.076 A 
HETATM   12  C   UNK     0     -17.525  39.946  49.247  0.00  0.00     0.107 A 
HETATM   13  O   UNK     0     -16.750  39.123  50.005  0.00  0.00    -0.323 OA
HETATM   14  C   UNK     0     -17.464  41.255  49.667  0.00  0.00     0.105 A 
HETATM   15  C   UNK     0     -16.195  40.061  50.950  0.00  0.00     0.352 A 
HETATM   16  O   UNK     0     -16.645  41.415  50.741  0.00  0.00    -0.323 OA
HETATM   17  C   UNK     0     -18.175  42.254  49.035  0.00  0.00     0.042 A 
HETATM   18  C   UNK     0     -18.969  41.894  47.943  0.00  0.00     0.039 A 
ENDBRANCH   9  10
ENDBRANCH   8   9
ENDBRANCH   3   8
BRANCH   2  19
HETATM   19  C   UNK     0     -19.784  37.006  43.438  0.00  0.00    -0.053 A 
HETATM   20  C   UNK     0     -18.584  36.301  43.413  0.00  0.00     0.010 A 
HETATM   21  C   UNK     0     -17.794  36.315  42.264  0.00  0.00     0.043 A 
HETATM   22  C   UNK     0     -18.208  37.034  41.142  0.00  0.00     0.116 A 
HETATM   23  F   UNK     0     -17.450  37.048  40.038  0.00  0.00    -0.206 F 
HETATM   24  C   UNK     0     -19.412  37.740  41.171  0.00  0.00     0.043 A 
HETATM   25  C   UNK     0     -20.200  37.725  42.322  0.00  0.00     0.010 A 
ENDBRANCH   2  19
TORSDOF 4
ENDMDL
MODEL 3
REMARK VINA RESULT:      -6.8     18.241     19.808
REMARK  4 active torsions:
REMARK  status: ('A' for Active; 'I' for Inactive)
REMARK    1  A    between atoms: O_2  and  C_11 
REMARK    2  A    between atoms: O_2  and  C_17 
REMARK    3  A    between atoms: C_6  and  C_12 
REMARK    4  A    between atoms: C_7  and  C_11 
ROOT
HETATM    1  N   UNK     0      -5.668  28.406  48.782  0.00  0.00     0.083 N 
HETATM    2  C   UNK     0      -6.936  29.359  51.249  0.00  0.00     0.028 C 
HETATM    3  C   UNK     0      -5.838  28.265  51.262  0.00  0.00     0.046 C 
HETATM    4  C   UNK     0      -7.644  29.387  49.881  0.00  0.00     0.040 C 
HETATM    5  C   UNK     0      -4.917  28.418  50.037  0.00  0.00     0.276 C 
HETATM    6  C   UNK     0      -6.640  29.495  48.736  0.00  0.00     0.270 C 
HETATM    7  H   UNK     0      -6.162  27.517  48.700  0.00  0.00     0.315 HD
ENDROOT
BRANCH   3   8
HETATM    8  C   UNK     0      -4.995  28.312  52.542  0.00  0.00     0.182 C 
BRANCH   8   9
HETATM    9  O   UNK     0      -5.495  27.340  53.438  0.00  0.00    -0.351 OA
BRANCH   9  10
HETATM   10  C   UNK     0      -5.167  27.484  54.764  0.00  0.00     0.071 A 
HETATM   11  C   UNK     0      -5.516  28.654  55.430  0.00  0.00     0.076 A 
HETATM   12  C   UNK     0      -5.165  28.752  56.761  0.00  0.00     0.107 A 
HETATM   13  O   UNK     0      -5.416  29.812  57.577  0.00  0.00    -0.323 OA
HETATM   14  C   UNK     0      -4.500  27.738  57.411  0.00  0.00     0.105 A 
HETATM   15  C   UNK     0      -4.834  29.351  58.814  0.00  0.00     0.352 A 
HETATM   16  O   UNK     0      -4.251  28.036  58.715  0.00  0.00    -0.323 OA
HETATM   17  C   UNK     0      -4.148  26.570  56.766  0.00  0.00     0.042 A 
HETATM   18  C   UNK     0      -4.490  26.446  55.417  0.00  0.00     0.039 A 
ENDBRANCH   9  10
ENDBRANCH   8   9
ENDBRANCH   3   8
BRANCH   2  19
HETATM   19  C   UNK     0      -7.954  29.219  52.369  0.00  0.00    -0.053 A 
HETATM   20  C   UNK     0      -8.730  28.067  52.462  0.00  0.00     0.010 A 
HETATM   21  C   UNK     0      -9.663  27.939  53.489  0.00  0.00     0.043 A 
HETATM   22  C   UNK     0      -9.818  28.965  54.423  0.00  0.00     0.116 A 
HETATM   23  F   UNK     0     -10.715  28.842  55.409  0.00  0.00    -0.206 F 
HETATM   24  C   UNK     0      -9.039  30.118  54.327  0.00  0.00     0.043 A 
HETATM   25  C   UNK     0      -8.106  30.245  53.298  0.00  0.00     0.010 A 
ENDBRANCH   2  19
TORSDOF 4
ENDMDL
