MODEL 1
REMARK VINA RESULT:      -5.9      0.000      0.000
REMARK  4 active torsions:
REMARK  status: ('A' for Active; 'I' for Inactive)
REMARK    1  A    between atoms: O_2  and  C_11 
REMARK    2  A    between atoms: O_2  and  C_17 
REMARK    3  A    between atoms: C_6  and  C_12 
REMARK    4  A    between atoms: C_7  and  C_11 
ROOT
HETATM    1  N   UNK     0      14.451   1.838  21.753  0.00  0.00     0.083 N 
HETATM    2  C   UNK     0      12.001   1.830  20.140  0.00  0.00     0.028 C 
HETATM    3  C   UNK     0      12.662   3.148  20.621  0.00  0.00     0.046 C 
HETATM    4  C   UNK     0      12.392   0.668  21.072  0.00  0.00     0.040 C 
HETATM    5  C   UNK     0      14.173   2.941  20.834  0.00  0.00     0.276 C 
HETATM    6  C   UNK     0      13.905   0.580  21.251  0.00  0.00     0.270 C 
HETATM    7  H   UNK     0      14.028   2.046  22.658  0.00  0.00     0.315 HD
ENDROOT
BRANCH   3   8
HETATM    8  C   UNK     0      12.439   4.297  19.631  0.00  0.00     0.182 C 
BRANCH   8   9
HETATM    9  O   UNK     0      11.286   5.009  20.031  0.00  0.00    -0.351 OA
BRANCH   9  10
HETATM   10  C   UNK     0      10.542   5.602  19.040  0.00  0.00     0.071 A 
HETATM   11  C   UNK     0      11.191   6.268  18.005  0.00  0.00     0.076 A 
HETATM   12  C   UNK     0      10.401   6.847  17.033  0.00  0.00     0.107 A 
HETATM   13  O   UNK     0      10.847   7.537  15.949  0.00  0.00    -0.323 OA
HETATM   14  C   UNK     0       9.027   6.773  17.077  0.00  0.00     0.105 A 
HETATM   15  C   UNK     0       9.600   7.890  15.315  0.00  0.00     0.352 A 
HETATM   16  O   UNK     0       8.442   7.408  16.026  0.00  0.00    -0.323 OA
HETATM   17  C   UNK     0       8.368   6.117  18.096  0.00  0.00     0.042 A 
HETATM   18  C   UNK     0       9.144   5.522  19.094  0.00  0.00     0.039 A 
ENDBRANCH   9  10
ENDBRANCH   8   9
ENDBRANCH   3   8
BRANCH   2  19
HETATM   19  C   UNK     0      10.490   1.916  20.004  0.00  0.00    -0.053 A 
HETATM   20  C   UNK     0       9.700   2.073  21.139  0.00  0.00     0.010 A 
HETATM   21  C   UNK     0       8.313   2.151  21.015  0.00  0.00     0.043 A 
HETATM   22  C   UNK     0       7.721   2.073  19.753  0.00  0.00     0.116 A 
HETATM   23  F   UNK     0       6.389   2.148  19.634  0.00  0.00    -0.206 F 
HETATM   24  C   UNK     0       8.516   1.916  18.618  0.00  0.00     0.043 A 
HETATM   25  C   UNK     0       9.903   1.837  18.744  0.00  0.00     0.010 A 
ENDBRANCH   2  19
TORSDOF 4
ENDMDL
MODEL 2
REMARK VINA RESULT:      -5.6     29.535     31.620
REMARK  4 active torsions:
REMARK  status: ('A' for Active; 'I' for Inactive)
REMARK    1  A    between atoms: O_2  and  C_11 
REMARK    2  A    between atoms: O_2  and  C_17 
REMARK    3  A    between atoms: C_6  and  C_12 
REMARK    4  A    between atoms: C_7  and  C_11 
ROOT
HETATM    1  N   UNK     0      27.213  11.448  -7.717  0.00  0.00     0.083 N 
HETATM    2  C   UNK     0      24.455  12.258  -8.301  0.00  0.00     0.028 C 
HETATM    3  C   UNK     0      25.062  10.948  -8.867  0.00  0.00     0.046 C 
HETATM    4  C   UNK     0      25.574  13.268  -7.982  0.00  0.00     0.040 C 
HETATM    5  C   UNK     0      26.182  10.435  -7.942  0.00  0.00     0.276 C 
HETATM    6  C   UNK     0      26.652  12.646  -7.099  0.00  0.00     0.270 C 
HETATM    7  H   UNK     0      27.631  11.700  -8.613  0.00  0.00     0.315 HD
ENDROOT
BRANCH   3   8
HETATM    8  C   UNK     0      24.003   9.853  -9.041  0.00  0.00     0.182 C 
BRANCH   8   9
HETATM    9  O   UNK     0      23.288   9.732  -7.828  0.00  0.00    -0.351 OA
BRANCH   9  10
HETATM   10  C   UNK     0      21.936   9.501  -7.919  0.00  0.00     0.071 A 
HETATM   11  C   UNK     0      21.484   8.293  -8.442  0.00  0.00     0.076 A 
HETATM   12  C   UNK     0      20.119   8.108  -8.513  0.00  0.00     0.107 A 
HETATM   13  O   UNK     0      19.487   7.001  -8.991  0.00  0.00    -0.323 OA
HETATM   14  C   UNK     0      19.234   9.072  -8.086  0.00  0.00     0.105 A 
HETATM   15  C   UNK     0      18.105   7.376  -8.817  0.00  0.00     0.352 A 
HETATM   16  O   UNK     0      17.938   8.689  -8.243  0.00  0.00    -0.323 OA
HETATM   17  C   UNK     0      19.665  10.274  -7.565  0.00  0.00     0.042 A 
HETATM   18  C   UNK     0      21.044  10.488  -7.483  0.00  0.00     0.039 A 
ENDBRANCH   9  10
ENDBRANCH   8   9
ENDBRANCH   3   8
BRANCH   2  19
HETATM   19  C   UNK     0      23.411  12.892  -9.206  0.00  0.00    -0.053 A 
HETATM   20  C   UNK     0      23.578  12.856 -10.587  0.00  0.00     0.010 A 
HETATM   21  C   UNK     0      22.620  13.437 -11.417  0.00  0.00     0.043 A 
HETATM   22  C   UNK     0      21.497  14.052 -10.863  0.00  0.00     0.116 A 
HETATM   23  F   UNK     0      20.577  14.611 -11.660  0.00  0.00    -0.206 F 
HETATM   24  C   UNK     0      21.334  14.086  -9.478  0.00  0.00     0.043 A 
HETATM   25  C   UNK     0      22.293  13.504  -8.648  0.00  0.00     0.010 A 
ENDBRANCH   2  19
TORSDOF 4
ENDMDL
MODEL 3
REMARK VINA RESULT:      -5.6      1.883      2.793
REMARK  4 active torsions:
REMARK  status: ('A' for Active; 'I' for Inactive)
REMARK    1  A    between atoms: O_2  and  C_11 
REMARK    2  A    between atoms: O_2  and  C_17 
REMARK    3  A    between atoms: C_6  and  C_12 
REMARK    4  A    between atoms: C_7  and  C_11 
ROOT
HETATM    1  N   UNK     0      14.443   1.840  21.658  0.00  0.00     0.083 N 
HETATM    2  C   UNK     0      11.953   1.818  20.107  0.00  0.00     0.028 C 
HETATM    3  C   UNK     0      12.571   3.134  20.646  0.00  0.00     0.046 C 
HETATM    4  C   UNK     0      12.416   0.623  20.962  0.00  0.00     0.040 C 
HETATM    5  C   UNK     0      14.095   2.980  20.810  0.00  0.00     0.276 C 
HETATM    6  C   UNK     0      13.936   0.590  21.098  0.00  0.00     0.270 C 
HETATM    7  H   UNK     0      14.035   1.980  22.583  0.00  0.00     0.315 HD
ENDROOT
BRANCH   3   8
HETATM    8  C   UNK     0      12.275   4.326  19.728  0.00  0.00     0.182 C 
BRANCH   8   9
HETATM    9  O   UNK     0      11.592   5.307  20.482  0.00  0.00    -0.351 OA
BRANCH   9  10
HETATM   10  C   UNK     0      10.235   5.408  20.293  0.00  0.00     0.071 A 
HETATM   11  C   UNK     0       9.394   5.467  21.400  0.00  0.00     0.076 A 
HETATM   12  C   UNK     0       8.039   5.569  21.159  0.00  0.00     0.107 A 
HETATM   13  O   UNK     0       7.063   5.638  22.105  0.00  0.00    -0.323 OA
HETATM   14  C   UNK     0       7.532   5.612  19.880  0.00  0.00     0.105 A 
HETATM   15  C   UNK     0       5.885   5.730  21.278  0.00  0.00     0.352 A 
HETATM   16  O   UNK     0       6.176   5.713  19.866  0.00  0.00    -0.323 OA
HETATM   17  C   UNK     0       8.352   5.555  18.772  0.00  0.00     0.042 A 
HETATM   18  C   UNK     0       9.729   5.451  18.988  0.00  0.00     0.039 A 
ENDBRANCH   9  10
ENDBRANCH   8   9
ENDBRANCH   3   8
BRANCH   2  19
HETATM   19  C   UNK     0      10.437   1.846  20.013  0.00  0.00    -0.053 A 
HETATM   20  C   UNK     0       9.671   1.897  21.174  0.00  0.00     0.010 A 
HETATM   21  C   UNK     0       8.280   1.923  21.088  0.00  0.00     0.043 A 
HETATM   22  C   UNK     0       7.658   1.899  19.839  0.00  0.00     0.116 A 
HETATM   23  F   UNK     0       6.321   1.924  19.755  0.00  0.00    -0.206 F 
HETATM   24  C   UNK     0       8.429   1.849  18.677  0.00  0.00     0.043 A 
HETATM   25  C   UNK     0       9.821   1.822  18.764  0.00  0.00     0.010 A 
ENDBRANCH   2  19
TORSDOF 4
ENDMDL
