MODEL 1
REMARK VINA RESULT:      -8.0      0.000      0.000
REMARK  10 active torsions:
REMARK  status: ('A' for Active; 'I' for Inactive)
REMARK    1  A    between atoms: O_1  and  C_19 
REMARK    2  A    between atoms: O_2  and  C_20 
REMARK    3  A    between atoms: O_3  and  C_22 
REMARK    4  A    between atoms: N_4  and  C_5 
REMARK    5  A    between atoms: N_4  and  C_8 
REMARK    6  A    between atoms: C_5  and  C_6 
REMARK    7  A    between atoms: C_6  and  C_7 
REMARK    8  A    between atoms: C_7  and  C_11 
REMARK    9  A    between atoms: C_8  and  C_10 
REMARK   10  A    between atoms: C_10  and  C_12 
ROOT
HETATM    1  N   UNK     0      15.253  57.177  12.427  0.00  0.00     0.087 N 
HETATM    2  H   UNK     0      15.747  56.643  13.142  0.00  0.00     0.316 HD
ENDROOT
BRANCH   1   3
HETATM    3  C   UNK     0      15.398  58.609  12.690  0.00  0.00     0.216 C 
HETATM    4  C   UNK     0      16.598  58.841  13.608  0.00  0.00     0.042 C 
BRANCH   3   5
HETATM    5  C   UNK     0      14.117  59.183  13.323  0.00  0.00     0.040 C 
BRANCH   5   6
HETATM    6  C   UNK     0      12.945  59.379  12.350  0.00  0.00     0.040 C 
BRANCH   6   7
HETATM    7  C   UNK     0      12.451  60.802  12.268  0.00  0.00    -0.058 A 
HETATM    8  C   UNK     0      13.316  61.841  12.571  0.00  0.00     0.010 A 
HETATM    9  C   UNK     0      12.860  63.157  12.496  0.00  0.00     0.037 A 
HETATM   10  C   UNK     0      11.543  63.417  12.116  0.00  0.00     0.065 A 
HETATM   11  C   UNK     0      10.682  62.361  11.814  0.00  0.00     0.037 A 
HETATM   12  C   UNK     0      11.140  61.046  11.890  0.00  0.00     0.010 A 
BRANCH  10  13
HETATM   13  O   UNK     0      11.098  64.702  12.042  0.00  0.00    -0.361 OA
HETATM   14  H   UNK     0      11.027  65.063  12.942  0.00  0.00     0.217 HD
ENDBRANCH  10  13
ENDBRANCH   6   7
ENDBRANCH   5   6
ENDBRANCH   3   5
ENDBRANCH   1   3
BRANCH   1  15
HETATM   15  C   UNK     0      15.773  56.840  11.111  0.00  0.00     0.274 C 
BRANCH  15  16
HETATM   16  C   UNK     0      17.055  56.014  11.223  0.00  0.00     0.068 C 
BRANCH  16  17
HETATM   17  C   UNK     0      16.990  55.046  12.377  0.00  0.00    -0.054 A 
HETATM   18  C   UNK     0      17.971  55.084  13.356  0.00  0.00     0.046 A 
HETATM   19  C   UNK     0      17.909  54.187  14.423  0.00  0.00     0.099 A 
HETATM   20  C   UNK     0      16.869  53.262  14.498  0.00  0.00     0.098 A 
HETATM   21  C   UNK     0      15.888  53.234  13.505  0.00  0.00     0.040 A 
HETATM   22  C   UNK     0      15.949  54.131  12.440  0.00  0.00     0.010 A 
BRANCH  19  23
HETATM   23  O   UNK     0      18.873  54.226  15.386  0.00  0.00    -0.358 OA
HETATM   24  H   UNK     0      19.389  55.044  15.286  0.00  0.00     0.218 HD
ENDBRANCH  19  23
BRANCH  20  25
HETATM   25  O   UNK     0      16.798  52.381  15.535  0.00  0.00    -0.358 OA
HETATM   26  H   UNK     0      16.241  51.628  15.273  0.00  0.00     0.218 HD
ENDBRANCH  20  25
ENDBRANCH  16  17
ENDBRANCH  15  16
ENDBRANCH   1  15
TORSDOF 10
ENDMDL
MODEL 2
REMARK VINA RESULT:      -7.9      1.705      9.740
REMARK  10 active torsions:
REMARK  status: ('A' for Active; 'I' for Inactive)
REMARK    1  A    between atoms: O_1  and  C_19 
REMARK    2  A    between atoms: O_2  and  C_20 
REMARK    3  A    between atoms: O_3  and  C_22 
REMARK    4  A    between atoms: N_4  and  C_5 
REMARK    5  A    between atoms: N_4  and  C_8 
REMARK    6  A    between atoms: C_5  and  C_6 
REMARK    7  A    between atoms: C_6  and  C_7 
REMARK    8  A    between atoms: C_7  and  C_11 
REMARK    9  A    between atoms: C_8  and  C_10 
REMARK   10  A    between atoms: C_10  and  C_12 
ROOT
HETATM    1  N   UNK     0      13.114  59.882  11.808  0.00  0.00     0.087 N 
HETATM    2  H   UNK     0      13.886  60.306  11.294  0.00  0.00     0.316 HD
ENDROOT
BRANCH   1   3
HETATM    3  C   UNK     0      13.637  59.054  12.895  0.00  0.00     0.216 C 
HETATM    4  C   UNK     0      14.985  59.610  13.356  0.00  0.00     0.042 C 
BRANCH   3   5
HETATM    5  C   UNK     0      13.784  57.588  12.447  0.00  0.00     0.040 C 
BRANCH   5   6
HETATM    6  C   UNK     0      15.221  57.147  12.135  0.00  0.00     0.040 C 
BRANCH   6   7
HETATM    7  C   UNK     0      15.683  55.957  12.940  0.00  0.00    -0.058 A 
HETATM    8  C   UNK     0      17.016  55.857  13.304  0.00  0.00     0.010 A 
HETATM    9  C   UNK     0      17.444  54.757  14.047  0.00  0.00     0.037 A 
HETATM   10  C   UNK     0      16.530  53.770  14.418  0.00  0.00     0.065 A 
HETATM   11  C   UNK     0      15.190  53.883  14.045  0.00  0.00     0.037 A 
HETATM   12  C   UNK     0      14.764  54.984  13.302  0.00  0.00     0.010 A 
BRANCH  10  13
HETATM   13  O   UNK     0      16.947  52.696  15.145  0.00  0.00    -0.361 OA
HETATM   14  H   UNK     0      16.459  51.909  14.850  0.00  0.00     0.217 HD
ENDBRANCH  10  13
ENDBRANCH   6   7
ENDBRANCH   5   6
ENDBRANCH   3   5
ENDBRANCH   1   3
BRANCH   1  15
HETATM   15  C   UNK     0      12.237  60.919  12.327  0.00  0.00     0.274 C 
BRANCH  15  16
HETATM   16  C   UNK     0      13.031  62.171  12.702  0.00  0.00     0.068 C 
BRANCH  16  17
HETATM   17  C   UNK     0      12.364  63.423  12.191  0.00  0.00    -0.054 A 
HETATM   18  C   UNK     0      13.135  64.542  11.915  0.00  0.00     0.046 A 
HETATM   19  C   UNK     0      12.516  65.701  11.443  0.00  0.00     0.099 A 
HETATM   20  C   UNK     0      11.135  65.726  11.254  0.00  0.00     0.098 A 
HETATM   21  C   UNK     0      10.371  64.592  11.536  0.00  0.00     0.040 A 
HETATM   22  C   UNK     0      10.990  63.435  12.007  0.00  0.00     0.010 A 
BRANCH  19  23
HETATM   23  O   UNK     0      13.273  66.801  11.170  0.00  0.00    -0.358 OA
HETATM   24  H   UNK     0      12.700  67.499  10.812  0.00  0.00     0.218 HD
ENDBRANCH  19  23
BRANCH  20  25
HETATM   25  O   UNK     0      10.519  66.851  10.793  0.00  0.00    -0.358 OA
HETATM   26  H   UNK     0      10.400  67.472  11.532  0.00  0.00     0.218 HD
ENDBRANCH  20  25
ENDBRANCH  16  17
ENDBRANCH  15  16
ENDBRANCH   1  15
TORSDOF 10
ENDMDL
MODEL 3
REMARK VINA RESULT:      -7.8      2.957     10.598
REMARK  10 active torsions:
REMARK  status: ('A' for Active; 'I' for Inactive)
REMARK    1  A    between atoms: O_1  and  C_19 
REMARK    2  A    between atoms: O_2  and  C_20 
REMARK    3  A    between atoms: O_3  and  C_22 
REMARK    4  A    between atoms: N_4  and  C_5 
REMARK    5  A    between atoms: N_4  and  C_8 
REMARK    6  A    between atoms: C_5  and  C_6 
REMARK    7  A    between atoms: C_6  and  C_7 
REMARK    8  A    between atoms: C_7  and  C_11 
REMARK    9  A    between atoms: C_8  and  C_10 
REMARK   10  A    between atoms: C_10  and  C_12 
ROOT
HETATM    1  N   UNK     0      12.230  62.818  13.294  0.00  0.00     0.087 N 
HETATM    2  H   UNK     0      11.244  63.067  13.378  0.00  0.00     0.316 HD
ENDROOT
BRANCH   1   3
HETATM    3  C   UNK     0      12.370  61.615  12.473  0.00  0.00     0.216 C 
HETATM    4  C   UNK     0      10.985  61.047  12.160  0.00  0.00     0.042 C 
BRANCH   3   5
HETATM    5  C   UNK     0      13.235  60.561  13.187  0.00  0.00     0.040 C 
BRANCH   5   6
HETATM    6  C   UNK     0      13.427  59.248  12.413  0.00  0.00     0.040 C 
BRANCH   6   7
HETATM    7  C   UNK     0      14.711  58.528  12.741  0.00  0.00    -0.058 A 
HETATM    8  C   UNK     0      15.754  59.228  13.328  0.00  0.00     0.010 A 
HETATM    9  C   UNK     0      16.942  58.563  13.630  0.00  0.00     0.037 A 
HETATM   10  C   UNK     0      17.072  57.204  13.344  0.00  0.00     0.065 A 
HETATM   11  C   UNK     0      16.015  56.511  12.753  0.00  0.00     0.037 A 
HETATM   12  C   UNK     0      14.827  57.177  12.450  0.00  0.00     0.010 A 
BRANCH  10  13
HETATM   13  O   UNK     0      18.232  56.554  13.640  0.00  0.00    -0.361 OA
HETATM   14  H   UNK     0      18.417  55.907  12.939  0.00  0.00     0.217 HD
ENDBRANCH  10  13
ENDBRANCH   6   7
ENDBRANCH   5   6
ENDBRANCH   3   5
ENDBRANCH   1   3
BRANCH   1  15
HETATM   15  C   UNK     0      12.972  63.926  12.714  0.00  0.00     0.274 C 
BRANCH  15  16
HETATM   16  C   UNK     0      12.151  64.629  11.632  0.00  0.00     0.068 C 
BRANCH  16  17
HETATM   17  C   UNK     0      11.312  65.741  12.210  0.00  0.00    -0.054 A 
HETATM   18  C   UNK     0       9.978  65.848  11.848  0.00  0.00     0.046 A 
HETATM   19  C   UNK     0       9.203  66.877  12.383  0.00  0.00     0.099 A 
HETATM   20  C   UNK     0       9.771  67.788  13.272  0.00  0.00     0.098 A 
HETATM   21  C   UNK     0      11.116  67.669  13.628  0.00  0.00     0.040 A 
HETATM   22  C   UNK     0      11.890  66.640  13.094  0.00  0.00     0.010 A 
BRANCH  19  23
HETATM   23  O   UNK     0       7.891  66.982  12.027  0.00  0.00    -0.358 OA
HETATM   24  H   UNK     0       7.426  67.520  12.690  0.00  0.00     0.218 HD
ENDBRANCH  19  23
BRANCH  20  25
HETATM   25  O   UNK     0       9.025  68.798  13.801  0.00  0.00    -0.358 OA
HETATM   26  H   UNK     0       8.967  68.678  14.764  0.00  0.00     0.218 HD
ENDBRANCH  20  25
ENDBRANCH  16  17
ENDBRANCH  15  16
ENDBRANCH   1  15
TORSDOF 10
ENDMDL
