MODEL 1
REMARK VINA RESULT:      -7.8      0.000      0.000
REMARK  10 active torsions:
REMARK  status: ('A' for Active; 'I' for Inactive)
REMARK    1  A    between atoms: O_1  and  C_19 
REMARK    2  A    between atoms: O_2  and  C_20 
REMARK    3  A    between atoms: O_3  and  C_22 
REMARK    4  A    between atoms: N_4  and  C_5 
REMARK    5  A    between atoms: N_4  and  C_8 
REMARK    6  A    between atoms: C_5  and  C_6 
REMARK    7  A    between atoms: C_6  and  C_7 
REMARK    8  A    between atoms: C_7  and  C_11 
REMARK    9  A    between atoms: C_8  and  C_10 
REMARK   10  A    between atoms: C_10  and  C_12 
ROOT
HETATM    1  N   UNK     0      18.148  28.370  17.823  0.00  0.00     0.087 N 
HETATM    2  H   UNK     0      17.360  27.898  17.379  0.00  0.00     0.316 HD
ENDROOT
BRANCH   1   3
HETATM    3  C   UNK     0      17.945  28.416  19.271  0.00  0.00     0.216 C 
HETATM    4  C   UNK     0      19.157  27.806  19.976  0.00  0.00     0.042 C 
BRANCH   3   5
HETATM    5  C   UNK     0      16.659  27.670  19.670  0.00  0.00     0.040 C 
BRANCH   5   6
HETATM    6  C   UNK     0      15.668  28.490  20.510  0.00  0.00     0.040 C 
BRANCH   6   7
HETATM    7  C   UNK     0      14.396  28.844  19.781  0.00  0.00    -0.058 A 
HETATM    8  C   UNK     0      14.025  30.175  19.665  0.00  0.00     0.010 A 
HETATM    9  C   UNK     0      12.849  30.502  18.991  0.00  0.00     0.037 A 
HETATM   10  C   UNK     0      12.057  29.494  18.440  0.00  0.00     0.065 A 
HETATM   11  C   UNK     0      12.442  28.158  18.565  0.00  0.00     0.037 A 
HETATM   12  C   UNK     0      13.619  27.832  19.239  0.00  0.00     0.010 A 
BRANCH  10  13
HETATM   13  O   UNK     0      10.909  29.814  17.782  0.00  0.00    -0.361 OA
HETATM   14  H   UNK     0      10.556  30.642  18.150  0.00  0.00     0.217 HD
ENDBRANCH  10  13
ENDBRANCH   6   7
ENDBRANCH   5   6
ENDBRANCH   3   5
ENDBRANCH   1   3
BRANCH   1  15
HETATM   15  C   UNK     0      19.386  27.679  17.498  0.00  0.00     0.274 C 
BRANCH  15  16
HETATM   16  C   UNK     0      19.758  27.884  16.029  0.00  0.00     0.068 C 
BRANCH  16  17
HETATM   17  C   UNK     0      20.279  29.278  15.781  0.00  0.00    -0.054 A 
HETATM   18  C   UNK     0      19.572  30.131  14.948  0.00  0.00     0.046 A 
HETATM   19  C   UNK     0      20.055  31.420  14.718  0.00  0.00     0.099 A 
HETATM   20  C   UNK     0      21.240  31.839  15.323  0.00  0.00     0.098 A 
HETATM   21  C   UNK     0      21.942  30.969  16.159  0.00  0.00     0.040 A 
HETATM   22  C   UNK     0      21.458  29.682  16.389  0.00  0.00     0.010 A 
BRANCH  19  23
HETATM   23  O   UNK     0      19.360  32.260  13.900  0.00  0.00    -0.358 OA
HETATM   24  H   UNK     0      18.409  32.081  13.998  0.00  0.00     0.218 HD
ENDBRANCH  19  23
BRANCH  20  25
HETATM   25  O   UNK     0      21.722  33.094  15.107  0.00  0.00    -0.358 OA
HETATM   26  H   UNK     0      22.564  33.032  14.624  0.00  0.00     0.218 HD
ENDBRANCH  20  25
ENDBRANCH  16  17
ENDBRANCH  15  16
ENDBRANCH   1  15
TORSDOF 10
ENDMDL
MODEL 2
REMARK VINA RESULT:      -7.3      1.807      8.215
REMARK  10 active torsions:
REMARK  status: ('A' for Active; 'I' for Inactive)
REMARK    1  A    between atoms: O_1  and  C_19 
REMARK    2  A    between atoms: O_2  and  C_20 
REMARK    3  A    between atoms: O_3  and  C_22 
REMARK    4  A    between atoms: N_4  and  C_5 
REMARK    5  A    between atoms: N_4  and  C_8 
REMARK    6  A    between atoms: C_5  and  C_6 
REMARK    7  A    between atoms: C_6  and  C_7 
REMARK    8  A    between atoms: C_7  and  C_11 
REMARK    9  A    between atoms: C_8  and  C_10 
REMARK   10  A    between atoms: C_10  and  C_12 
ROOT
HETATM    1  N   UNK     0      18.813  28.501  20.280  0.00  0.00     0.087 N 
HETATM    2  H   UNK     0      19.017  28.190  21.230  0.00  0.00     0.316 HD
ENDROOT
BRANCH   1   3
HETATM    3  C   UNK     0      19.436  27.593  19.316  0.00  0.00     0.216 C 
HETATM    4  C   UNK     0      20.957  27.728  19.398  0.00  0.00     0.042 C 
BRANCH   3   5
HETATM    5  C   UNK     0      18.945  27.889  17.887  0.00  0.00     0.040 C 
BRANCH   5   6
HETATM    6  C   UNK     0      20.031  27.823  16.803  0.00  0.00     0.040 C 
BRANCH   6   7
HETATM    7  C   UNK     0      20.473  29.173  16.297  0.00  0.00    -0.058 A 
HETATM    8  C   UNK     0      21.710  29.671  16.677  0.00  0.00     0.010 A 
HETATM    9  C   UNK     0      22.118  30.921  16.210  0.00  0.00     0.037 A 
HETATM   10  C   UNK     0      21.284  31.657  15.368  0.00  0.00     0.065 A 
HETATM   11  C   UNK     0      20.041  31.144  14.994  0.00  0.00     0.037 A 
HETATM   12  C   UNK     0      19.634  29.894  15.462  0.00  0.00     0.010 A 
BRANCH  10  13
HETATM   13  O   UNK     0      21.683  32.876  14.912  0.00  0.00    -0.361 OA
HETATM   14  H   UNK     0      21.095  33.558  15.281  0.00  0.00     0.217 HD
ENDBRANCH  10  13
ENDBRANCH   6   7
ENDBRANCH   5   6
ENDBRANCH   3   5
ENDBRANCH   1   3
BRANCH   1  15
HETATM   15  C   UNK     0      17.374  28.559  20.077  0.00  0.00     0.274 C 
BRANCH  15  16
HETATM   16  C   UNK     0      16.729  29.582  21.013  0.00  0.00     0.068 C 
BRANCH  16  17
HETATM   17  C   UNK     0      15.251  29.332  21.172  0.00  0.00    -0.054 A 
HETATM   18  C   UNK     0      14.664  28.267  20.505  0.00  0.00     0.046 A 
HETATM   19  C   UNK     0      13.296  28.036  20.653  0.00  0.00     0.099 A 
HETATM   20  C   UNK     0      12.531  28.874  21.463  0.00  0.00     0.098 A 
HETATM   21  C   UNK     0      13.134  29.942  22.128  0.00  0.00     0.040 A 
HETATM   22  C   UNK     0      14.501  30.172  21.981  0.00  0.00     0.010 A 
BRANCH  19  23
HETATM   23  O   UNK     0      12.720  26.989  19.998  0.00  0.00    -0.358 OA
HETATM   24  H   UNK     0      13.408  26.342  19.767  0.00  0.00     0.218 HD
ENDBRANCH  19  23
BRANCH  20  25
HETATM   25  O   UNK     0      11.195  28.659  21.615  0.00  0.00    -0.358 OA
HETATM   26  H   UNK     0      10.707  29.410  21.235  0.00  0.00     0.218 HD
ENDBRANCH  20  25
ENDBRANCH  16  17
ENDBRANCH  15  16
ENDBRANCH   1  15
TORSDOF 10
ENDMDL
MODEL 3
REMARK VINA RESULT:      -7.2     16.645     19.090
REMARK  10 active torsions:
REMARK  status: ('A' for Active; 'I' for Inactive)
REMARK    1  A    between atoms: O_1  and  C_19 
REMARK    2  A    between atoms: O_2  and  C_20 
REMARK    3  A    between atoms: O_3  and  C_22 
REMARK    4  A    between atoms: N_4  and  C_5 
REMARK    5  A    between atoms: N_4  and  C_8 
REMARK    6  A    between atoms: C_5  and  C_6 
REMARK    7  A    between atoms: C_6  and  C_7 
REMARK    8  A    between atoms: C_7  and  C_11 
REMARK    9  A    between atoms: C_8  and  C_10 
REMARK   10  A    between atoms: C_10  and  C_12 
ROOT
HETATM    1  N   UNK     0      33.900  37.638  26.075  0.00  0.00     0.087 N 
HETATM    2  H   UNK     0      33.810  38.026  25.136  0.00  0.00     0.316 HD
ENDROOT
BRANCH   1   3
HETATM    3  C   UNK     0      33.813  38.711  27.066  0.00  0.00     0.216 C 
HETATM    4  C   UNK     0      33.424  38.123  28.422  0.00  0.00     0.042 C 
BRANCH   3   5
HETATM    5  C   UNK     0      32.794  39.779  26.630  0.00  0.00     0.040 C 
BRANCH   5   6
HETATM    6  C   UNK     0      32.865  40.176  25.148  0.00  0.00     0.040 C 
BRANCH   6   7
HETATM    7  C   UNK     0      31.745  39.612  24.310  0.00  0.00    -0.058 A 
HETATM    8  C   UNK     0      30.680  38.981  24.933  0.00  0.00     0.010 A 
HETATM    9  C   UNK     0      29.644  38.457  24.159  0.00  0.00     0.037 A 
HETATM   10  C   UNK     0      29.686  38.574  22.769  0.00  0.00     0.065 A 
HETATM   11  C   UNK     0      30.765  39.212  22.154  0.00  0.00     0.037 A 
HETATM   12  C   UNK     0      31.800  39.735  22.930  0.00  0.00     0.010 A 
BRANCH  10  13
HETATM   13  O   UNK     0      28.675  38.064  22.013  0.00  0.00    -0.361 OA
HETATM   14  H   UNK     0      27.859  38.555  22.208  0.00  0.00     0.217 HD
ENDBRANCH  10  13
ENDBRANCH   6   7
ENDBRANCH   5   6
ENDBRANCH   3   5
ENDBRANCH   1   3
BRANCH   1  15
HETATM   15  C   UNK     0      32.863  36.644  26.301  0.00  0.00     0.274 C 
BRANCH  15  16
HETATM   16  C   UNK     0      33.424  35.227  26.169  0.00  0.00     0.068 C 
BRANCH  16  17
HETATM   17  C   UNK     0      32.632  34.240  26.989  0.00  0.00    -0.054 A 
HETATM   18  C   UNK     0      31.726  33.401  26.358  0.00  0.00     0.046 A 
HETATM   19  C   UNK     0      30.993  32.488  27.118  0.00  0.00     0.099 A 
HETATM   20  C   UNK     0      31.174  32.427  28.499  0.00  0.00     0.098 A 
HETATM   21  C   UNK     0      32.089  33.277  29.121  0.00  0.00     0.040 A 
HETATM   22  C   UNK     0      32.822  34.189  28.362  0.00  0.00     0.010 A 
BRANCH  19  23
HETATM   23  O   UNK     0      30.104  31.663  26.498  0.00  0.00    -0.358 OA
HETATM   24  H   UNK     0      30.479  30.767  26.456  0.00  0.00     0.218 HD
ENDBRANCH  19  23
BRANCH  20  25
HETATM   25  O   UNK     0      30.465  31.540  29.252  0.00  0.00    -0.358 OA
HETATM   26  H   UNK     0      29.572  31.448  28.876  0.00  0.00     0.218 HD
ENDBRANCH  20  25
ENDBRANCH  16  17
ENDBRANCH  15  16
ENDBRANCH   1  15
TORSDOF 10
ENDMDL
