MODEL 1
REMARK VINA RESULT:      -7.1      0.000      0.000
REMARK  10 active torsions:
REMARK  status: ('A' for Active; 'I' for Inactive)
REMARK    1  A    between atoms: O_1  and  C_19 
REMARK    2  A    between atoms: O_2  and  C_20 
REMARK    3  A    between atoms: O_3  and  C_22 
REMARK    4  A    between atoms: N_4  and  C_5 
REMARK    5  A    between atoms: N_4  and  C_8 
REMARK    6  A    between atoms: C_5  and  C_6 
REMARK    7  A    between atoms: C_6  and  C_7 
REMARK    8  A    between atoms: C_7  and  C_11 
REMARK    9  A    between atoms: C_8  and  C_10 
REMARK   10  A    between atoms: C_10  and  C_12 
ROOT
HETATM    1  N   UNK     0       7.968  13.840   3.313  0.00  0.00     0.087 N 
HETATM    2  H   UNK     0       8.476  12.956   3.272  0.00  0.00     0.316 HD
ENDROOT
BRANCH   1   3
HETATM    3  C   UNK     0       7.845  14.277   4.703  0.00  0.00     0.216 C 
HETATM    4  C   UNK     0       8.193  15.762   4.804  0.00  0.00     0.042 C 
BRANCH   3   5
HETATM    5  C   UNK     0       8.759  13.446   5.623  0.00  0.00     0.040 C 
BRANCH   5   6
HETATM    6  C   UNK     0       9.537  12.324   4.921  0.00  0.00     0.040 C 
BRANCH   6   7
HETATM    7  C   UNK     0      11.016  12.590   4.798  0.00  0.00    -0.058 A 
HETATM    8  C   UNK     0      11.478  13.896   4.837  0.00  0.00     0.010 A 
HETATM    9  C   UNK     0      12.847  14.143   4.722  0.00  0.00     0.037 A 
HETATM   10  C   UNK     0      13.736  13.079   4.573  0.00  0.00     0.065 A 
HETATM   11  C   UNK     0      13.258  11.769   4.536  0.00  0.00     0.037 A 
HETATM   12  C   UNK     0      11.889  11.523   4.650  0.00  0.00     0.010 A 
BRANCH  10  13
HETATM   13  O   UNK     0      15.072  13.320   4.462  0.00  0.00    -0.361 OA
HETATM   14  H   UNK     0      15.202  14.230   4.144  0.00  0.00     0.217 HD
ENDBRANCH  10  13
ENDBRANCH   6   7
ENDBRANCH   5   6
ENDBRANCH   3   5
ENDBRANCH   1   3
BRANCH   1  15
HETATM   15  C   UNK     0       8.656  14.843   2.516  0.00  0.00     0.274 C 
BRANCH  15  16
HETATM   16  C   UNK     0       9.560  14.188   1.471  0.00  0.00     0.068 C 
BRANCH  16  17
HETATM   17  C   UNK     0      10.557  15.170   0.908  0.00  0.00    -0.054 A 
HETATM   18  C   UNK     0      11.694  15.481   1.637  0.00  0.00     0.046 A 
HETATM   19  C   UNK     0      12.615  16.389   1.116  0.00  0.00     0.099 A 
HETATM   20  C   UNK     0      12.387  16.977  -0.128  0.00  0.00     0.098 A 
HETATM   21  C   UNK     0      11.238  16.656  -0.851  0.00  0.00     0.040 A 
HETATM   22  C   UNK     0      10.318  15.747  -0.330  0.00  0.00     0.010 A 
BRANCH  19  23
HETATM   23  O   UNK     0      13.734  16.694   1.832  0.00  0.00    -0.358 OA
HETATM   24  H   UNK     0      13.755  17.653   1.993  0.00  0.00     0.218 HD
ENDBRANCH  19  23
BRANCH  20  25
HETATM   25  O   UNK     0      13.279  17.866  -0.648  0.00  0.00    -0.358 OA
HETATM   26  H   UNK     0      13.007  18.768  -0.404  0.00  0.00     0.218 HD
ENDBRANCH  20  25
ENDBRANCH  16  17
ENDBRANCH  15  16
ENDBRANCH   1  15
TORSDOF 10
ENDMDL
MODEL 2
REMARK VINA RESULT:      -6.9      1.414      2.212
REMARK  10 active torsions:
REMARK  status: ('A' for Active; 'I' for Inactive)
REMARK    1  A    between atoms: O_1  and  C_19 
REMARK    2  A    between atoms: O_2  and  C_20 
REMARK    3  A    between atoms: O_3  and  C_22 
REMARK    4  A    between atoms: N_4  and  C_5 
REMARK    5  A    between atoms: N_4  and  C_8 
REMARK    6  A    between atoms: C_5  and  C_6 
REMARK    7  A    between atoms: C_6  and  C_7 
REMARK    8  A    between atoms: C_7  and  C_11 
REMARK    9  A    between atoms: C_8  and  C_10 
REMARK   10  A    between atoms: C_10  and  C_12 
ROOT
HETATM    1  N   UNK     0       7.941  13.858   3.228  0.00  0.00     0.087 N 
HETATM    2  H   UNK     0       8.491  12.999   3.242  0.00  0.00     0.316 HD
ENDROOT
BRANCH   1   3
HETATM    3  C   UNK     0       7.590  14.244   4.595  0.00  0.00     0.216 C 
HETATM    4  C   UNK     0       8.130  15.645   4.884  0.00  0.00     0.042 C 
BRANCH   3   5
HETATM    5  C   UNK     0       8.148  13.232   5.612  0.00  0.00     0.040 C 
BRANCH   5   6
HETATM    6  C   UNK     0       9.632  13.416   5.962  0.00  0.00     0.040 C 
BRANCH   6   7
HETATM    7  C   UNK     0      10.555  12.484   5.217  0.00  0.00    -0.058 A 
HETATM    8  C   UNK     0      11.892  12.821   5.074  0.00  0.00     0.010 A 
HETATM    9  C   UNK     0      12.745  11.959   4.384  0.00  0.00     0.037 A 
HETATM   10  C   UNK     0      12.251  10.770   3.848  0.00  0.00     0.065 A 
HETATM   11  C   UNK     0      10.903  10.443   4.000  0.00  0.00     0.037 A 
HETATM   12  C   UNK     0      10.050  11.305   4.690  0.00  0.00     0.010 A 
BRANCH  10  13
HETATM   13  O   UNK     0      13.085   9.928   3.176  0.00  0.00    -0.361 OA
HETATM   14  H   UNK     0      12.701   9.736   2.304  0.00  0.00     0.217 HD
ENDBRANCH  10  13
ENDBRANCH   6   7
ENDBRANCH   5   6
ENDBRANCH   3   5
ENDBRANCH   1   3
BRANCH   1  15
HETATM   15  C   UNK     0       8.692  14.916   2.571  0.00  0.00     0.274 C 
BRANCH  15  16
HETATM   16  C   UNK     0      10.020  14.387   2.026  0.00  0.00     0.068 C 
BRANCH  16  17
HETATM   17  C   UNK     0      11.120  15.410   2.164  0.00  0.00    -0.054 A 
HETATM   18  C   UNK     0      11.738  15.903   1.025  0.00  0.00     0.046 A 
HETATM   19  C   UNK     0      12.756  16.849   1.153  0.00  0.00     0.099 A 
HETATM   20  C   UNK     0      13.144  17.289   2.418  0.00  0.00     0.098 A 
HETATM   21  C   UNK     0      12.513  16.784   3.556  0.00  0.00     0.040 A 
HETATM   22  C   UNK     0      11.495  15.839   3.427  0.00  0.00     0.010 A 
BRANCH  19  23
HETATM   23  O   UNK     0      13.363  17.334   0.034  0.00  0.00    -0.358 OA
HETATM   24  H   UNK     0      13.218  18.295  -0.014  0.00  0.00     0.218 HD
ENDBRANCH  19  23
BRANCH  20  25
HETATM   25  O   UNK     0      14.136  18.212   2.556  0.00  0.00    -0.358 OA
HETATM   26  H   UNK     0      14.217  18.452   3.495  0.00  0.00     0.218 HD
ENDBRANCH  20  25
ENDBRANCH  16  17
ENDBRANCH  15  16
ENDBRANCH   1  15
TORSDOF 10
ENDMDL
MODEL 3
REMARK VINA RESULT:      -6.9      1.130      1.681
REMARK  10 active torsions:
REMARK  status: ('A' for Active; 'I' for Inactive)
REMARK    1  A    between atoms: O_1  and  C_19 
REMARK    2  A    between atoms: O_2  and  C_20 
REMARK    3  A    between atoms: O_3  and  C_22 
REMARK    4  A    between atoms: N_4  and  C_5 
REMARK    5  A    between atoms: N_4  and  C_8 
REMARK    6  A    between atoms: C_5  and  C_6 
REMARK    7  A    between atoms: C_6  and  C_7 
REMARK    8  A    between atoms: C_7  and  C_11 
REMARK    9  A    between atoms: C_8  and  C_10 
REMARK   10  A    between atoms: C_10  and  C_12 
ROOT
HETATM    1  N   UNK     0       7.961  13.973   3.123  0.00  0.00     0.087 N 
HETATM    2  H   UNK     0       8.420  13.066   3.206  0.00  0.00     0.316 HD
ENDROOT
BRANCH   1   3
HETATM    3  C   UNK     0       7.543  14.440   4.445  0.00  0.00     0.216 C 
HETATM    4  C   UNK     0       8.280  15.736   4.785  0.00  0.00     0.042 C 
BRANCH   3   5
HETATM    5  C   UNK     0       7.813  13.369   5.517  0.00  0.00     0.040 C 
BRANCH   5   6
HETATM    6  C   UNK     0       9.238  13.371   6.090  0.00  0.00     0.040 C 
BRANCH   6   7
HETATM    7  C   UNK     0      10.210  12.519   5.313  0.00  0.00    -0.058 A 
HETATM    8  C   UNK     0       9.880  11.205   5.020  0.00  0.00     0.010 A 
HETATM    9  C   UNK     0      10.779  10.416   4.302  0.00  0.00     0.037 A 
HETATM   10  C   UNK     0      11.998  10.953   3.884  0.00  0.00     0.065 A 
HETATM   11  C   UNK     0      12.318  12.277   4.186  0.00  0.00     0.037 A 
HETATM   12  C   UNK     0      11.418  13.065   4.904  0.00  0.00     0.010 A 
BRANCH  10  13
HETATM   13  O   UNK     0      12.875  10.183   3.182  0.00  0.00    -0.361 OA
HETATM   14  H   UNK     0      13.399  10.757   2.598  0.00  0.00     0.217 HD
ENDBRANCH  10  13
ENDBRANCH   6   7
ENDBRANCH   5   6
ENDBRANCH   3   5
ENDBRANCH   1   3
BRANCH   1  15
HETATM   15  C   UNK     0       8.864  14.929   2.501  0.00  0.00     0.274 C 
BRANCH  15  16
HETATM   16  C   UNK     0       9.970  14.213   1.725  0.00  0.00     0.068 C 
BRANCH  16  17
HETATM   17  C   UNK     0      10.903  15.194   1.061  0.00  0.00    -0.054 A 
HETATM   18  C   UNK     0      12.023  15.640   1.746  0.00  0.00     0.046 A 
HETATM   19  C   UNK     0      12.886  16.548   1.131  0.00  0.00     0.099 A 
HETATM   20  C   UNK     0      12.618  16.999  -0.160  0.00  0.00     0.098 A 
HETATM   21  C   UNK     0      11.488  16.541  -0.839  0.00  0.00     0.040 A 
HETATM   22  C   UNK     0      10.626  15.634  -0.225  0.00  0.00     0.010 A 
BRANCH  19  23
HETATM   23  O   UNK     0      13.987  16.986   1.804  0.00  0.00    -0.358 OA
HETATM   24  H   UNK     0      14.077  16.479   2.629  0.00  0.00     0.218 HD
ENDBRANCH  19  23
BRANCH  20  25
HETATM   25  O   UNK     0      13.453  17.885  -0.772  0.00  0.00    -0.358 OA
HETATM   26  H   UNK     0      13.344  18.760  -0.360  0.00  0.00     0.218 HD
ENDBRANCH  20  25
ENDBRANCH  16  17
ENDBRANCH  15  16
ENDBRANCH   1  15
TORSDOF 10
ENDMDL
