MODEL 1
REMARK VINA RESULT:      -9.0      0.000      0.000
REMARK  10 active torsions:
REMARK  status: ('A' for Active; 'I' for Inactive)
REMARK    1  A    between atoms: O_1  and  C_19 
REMARK    2  A    between atoms: O_2  and  C_20 
REMARK    3  A    between atoms: O_3  and  C_22 
REMARK    4  A    between atoms: N_4  and  C_5 
REMARK    5  A    between atoms: N_4  and  C_8 
REMARK    6  A    between atoms: C_5  and  C_6 
REMARK    7  A    between atoms: C_6  and  C_7 
REMARK    8  A    between atoms: C_7  and  C_11 
REMARK    9  A    between atoms: C_8  and  C_10 
REMARK   10  A    between atoms: C_10  and  C_12 
ROOT
HETATM    1  N   UNK     0      53.987 -13.013  28.749  0.00  0.00     0.087 N 
HETATM    2  H   UNK     0      53.255 -13.466  29.295  0.00  0.00     0.316 HD
ENDROOT
BRANCH   1   3
HETATM    3  C   UNK     0      53.399 -11.992  27.881  0.00  0.00     0.216 C 
HETATM    4  C   UNK     0      54.140 -10.669  28.075  0.00  0.00     0.042 C 
BRANCH   3   5
HETATM    5  C   UNK     0      51.898 -11.817  28.179  0.00  0.00     0.040 C 
BRANCH   5   6
HETATM    6  C   UNK     0      51.526 -11.837  29.669  0.00  0.00     0.040 C 
BRANCH   6   7
HETATM    7  C   UNK     0      50.908 -13.135  30.126  0.00  0.00    -0.058 A 
HETATM    8  C   UNK     0      50.729 -13.364  31.481  0.00  0.00     0.010 A 
HETATM    9  C   UNK     0      50.158 -14.564  31.904  0.00  0.00     0.037 A 
HETATM   10  C   UNK     0      49.771 -15.521  30.965  0.00  0.00     0.065 A 
HETATM   11  C   UNK     0      49.957 -15.278  29.604  0.00  0.00     0.037 A 
HETATM   12  C   UNK     0      50.529 -14.077  29.182  0.00  0.00     0.010 A 
BRANCH  10  13
HETATM   13  O   UNK     0      49.213 -16.692  31.379  0.00  0.00    -0.361 OA
HETATM   14  H   UNK     0      49.102 -17.276  30.609  0.00  0.00     0.217 HD
ENDBRANCH  10  13
ENDBRANCH   6   7
ENDBRANCH   5   6
ENDBRANCH   3   5
ENDBRANCH   1   3
BRANCH   1  15
HETATM   15  C   UNK     0      54.975 -12.425  29.639  0.00  0.00     0.274 C 
BRANCH  15  16
HETATM   16  C   UNK     0      55.245 -13.337  30.837  0.00  0.00     0.068 C 
BRANCH  16  17
HETATM   17  C   UNK     0      55.089 -12.596  32.142  0.00  0.00    -0.054 A 
HETATM   18  C   UNK     0      54.074 -11.661  32.278  0.00  0.00     0.046 A 
HETATM   19  C   UNK     0      53.931 -10.977  33.485  0.00  0.00     0.099 A 
HETATM   20  C   UNK     0      54.805 -11.234  34.541  0.00  0.00     0.098 A 
HETATM   21  C   UNK     0      55.822 -12.178  34.390  0.00  0.00     0.040 A 
HETATM   22  C   UNK     0      55.964 -12.862  33.184  0.00  0.00     0.010 A 
BRANCH  19  23
HETATM   23  O   UNK     0      52.933 -10.058  33.620  0.00  0.00    -0.358 OA
HETATM   24  H   UNK     0      53.144  -9.280  33.076  0.00  0.00     0.218 HD
ENDBRANCH  19  23
BRANCH  20  25
HETATM   25  O   UNK     0      54.675 -10.572  35.724  0.00  0.00    -0.358 OA
HETATM   26  H   UNK     0      55.279 -10.967  36.376  0.00  0.00     0.218 HD
ENDBRANCH  20  25
ENDBRANCH  16  17
ENDBRANCH  15  16
ENDBRANCH   1  15
TORSDOF 10
ENDMDL
MODEL 2
REMARK VINA RESULT:      -9.0      2.042      4.064
REMARK  10 active torsions:
REMARK  status: ('A' for Active; 'I' for Inactive)
REMARK    1  A    between atoms: O_1  and  C_19 
REMARK    2  A    between atoms: O_2  and  C_20 
REMARK    3  A    between atoms: O_3  and  C_22 
REMARK    4  A    between atoms: N_4  and  C_5 
REMARK    5  A    between atoms: N_4  and  C_8 
REMARK    6  A    between atoms: C_5  and  C_6 
REMARK    7  A    between atoms: C_6  and  C_7 
REMARK    8  A    between atoms: C_7  and  C_11 
REMARK    9  A    between atoms: C_8  and  C_10 
REMARK   10  A    between atoms: C_10  and  C_12 
ROOT
HETATM    1  N   UNK     0      53.311 -14.449  29.867  0.00  0.00     0.087 N 
HETATM    2  H   UNK     0      53.297 -15.384  29.461  0.00  0.00     0.316 HD
ENDROOT
BRANCH   1   3
HETATM    3  C   UNK     0      52.083 -14.221  30.629  0.00  0.00     0.216 C 
HETATM    4  C   UNK     0      51.448 -15.564  30.987  0.00  0.00     0.042 C 
BRANCH   3   5
HETATM    5  C   UNK     0      51.093 -13.354  29.828  0.00  0.00     0.040 C 
BRANCH   5   6
HETATM    6  C   UNK     0      51.282 -11.838  29.989  0.00  0.00     0.040 C 
BRANCH   6   7
HETATM    7  C   UNK     0      52.124 -11.210  28.907  0.00  0.00    -0.058 A 
HETATM    8  C   UNK     0      52.846 -10.060  29.188  0.00  0.00     0.010 A 
HETATM    9  C   UNK     0      53.624  -9.478  28.187  0.00  0.00     0.037 A 
HETATM   10  C   UNK     0      53.671 -10.054  26.917  0.00  0.00     0.065 A 
HETATM   11  C   UNK     0      52.940 -11.212  26.648  0.00  0.00     0.037 A 
HETATM   12  C   UNK     0      52.162 -11.793  27.650  0.00  0.00     0.010 A 
BRANCH  10  13
HETATM   13  O   UNK     0      54.432  -9.486  25.941  0.00  0.00    -0.361 OA
HETATM   14  H   UNK     0      54.271  -9.955  25.104  0.00  0.00     0.217 HD
ENDBRANCH  10  13
ENDBRANCH   6   7
ENDBRANCH   5   6
ENDBRANCH   3   5
ENDBRANCH   1   3
BRANCH   1  15
HETATM   15  C   UNK     0      54.480 -14.296  30.718  0.00  0.00     0.274 C 
BRANCH  15  16
HETATM   16  C   UNK     0      54.955 -12.842  30.740  0.00  0.00     0.068 C 
BRANCH  16  17
HETATM   17  C   UNK     0      54.912 -12.268  32.134  0.00  0.00    -0.054 A 
HETATM   18  C   UNK     0      53.924 -11.353  32.463  0.00  0.00     0.046 A 
HETATM   19  C   UNK     0      53.884 -10.822  33.753  0.00  0.00     0.099 A 
HETATM   20  C   UNK     0      54.834 -11.211  34.697  0.00  0.00     0.098 A 
HETATM   21  C   UNK     0      55.823 -12.133  34.352  0.00  0.00     0.040 A 
HETATM   22  C   UNK     0      55.862 -12.664  33.063  0.00  0.00     0.010 A 
BRANCH  19  23
HETATM   23  O   UNK     0      52.913  -9.922  34.077  0.00  0.00    -0.358 OA
HETATM   24  H   UNK     0      52.125 -10.098  33.535  0.00  0.00     0.218 HD
ENDBRANCH  19  23
BRANCH  20  25
HETATM   25  O   UNK     0      54.806 -10.700  35.959  0.00  0.00    -0.358 OA
HETATM   26  H   UNK     0      54.067 -11.101  36.448  0.00  0.00     0.218 HD
ENDBRANCH  20  25
ENDBRANCH  16  17
ENDBRANCH  15  16
ENDBRANCH   1  15
TORSDOF 10
ENDMDL
MODEL 3
REMARK VINA RESULT:      -8.8      2.489      6.096
REMARK  10 active torsions:
REMARK  status: ('A' for Active; 'I' for Inactive)
REMARK    1  A    between atoms: O_1  and  C_19 
REMARK    2  A    between atoms: O_2  and  C_20 
REMARK    3  A    between atoms: O_3  and  C_22 
REMARK    4  A    between atoms: N_4  and  C_5 
REMARK    5  A    between atoms: N_4  and  C_8 
REMARK    6  A    between atoms: C_5  and  C_6 
REMARK    7  A    between atoms: C_6  and  C_7 
REMARK    8  A    between atoms: C_7  and  C_11 
REMARK    9  A    between atoms: C_8  and  C_10 
REMARK   10  A    between atoms: C_10  and  C_12 
ROOT
HETATM    1  N   UNK     0      52.546 -14.133  30.856  0.00  0.00     0.087 N 
HETATM    2  H   UNK     0      52.142 -14.774  31.538  0.00  0.00     0.316 HD
ENDROOT
BRANCH   1   3
HETATM    3  C   UNK     0      53.633 -14.795  30.135  0.00  0.00     0.216 C 
HETATM    4  C   UNK     0      53.610 -16.293  30.440  0.00  0.00     0.042 C 
BRANCH   3   5
HETATM    5  C   UNK     0      54.995 -14.189  30.519  0.00  0.00     0.040 C 
BRANCH   5   6
HETATM    6  C   UNK     0      55.014 -12.658  30.635  0.00  0.00     0.040 C 
BRANCH   6   7
HETATM    7  C   UNK     0      54.947 -12.151  32.054  0.00  0.00    -0.058 A 
HETATM    8  C   UNK     0      55.785 -12.698  33.013  0.00  0.00     0.010 A 
HETATM    9  C   UNK     0      55.722 -12.231  34.325  0.00  0.00     0.037 A 
HETATM   10  C   UNK     0      54.821 -11.220  34.663  0.00  0.00     0.065 A 
HETATM   11  C   UNK     0      53.983 -10.678  33.688  0.00  0.00     0.037 A 
HETATM   12  C   UNK     0      54.047 -11.146  32.375  0.00  0.00     0.010 A 
BRANCH  10  13
HETATM   13  O   UNK     0      54.761 -10.763  35.944  0.00  0.00    -0.361 OA
HETATM   14  H   UNK     0      55.212 -11.398  36.526  0.00  0.00     0.217 HD
ENDBRANCH  10  13
ENDBRANCH   6   7
ENDBRANCH   5   6
ENDBRANCH   3   5
ENDBRANCH   1   3
BRANCH   1  15
HETATM   15  C   UNK     0      51.517 -13.681  29.933  0.00  0.00     0.274 C 
BRANCH  15  16
HETATM   16  C   UNK     0      51.326 -12.166  30.023  0.00  0.00     0.068 C 
BRANCH  16  17
HETATM   17  C   UNK     0      52.057 -11.449  28.916  0.00  0.00    -0.054 A 
HETATM   18  C   UNK     0      52.250 -10.079  29.001  0.00  0.00     0.046 A 
HETATM   19  C   UNK     0      52.925  -9.417  27.975  0.00  0.00     0.099 A 
HETATM   20  C   UNK     0      53.399 -10.133  26.877  0.00  0.00     0.098 A 
HETATM   21  C   UNK     0      53.197 -11.512  26.803  0.00  0.00     0.040 A 
HETATM   22  C   UNK     0      52.523 -12.174  27.829  0.00  0.00     0.010 A 
BRANCH  19  23
HETATM   23  O   UNK     0      53.116  -8.070  28.059  0.00  0.00    -0.358 OA
HETATM   24  H   UNK     0      52.795  -7.758  28.923  0.00  0.00     0.218 HD
ENDBRANCH  19  23
BRANCH  20  25
HETATM   25  O   UNK     0      54.060  -9.498  25.869  0.00  0.00    -0.358 OA
HETATM   26  H   UNK     0      54.800  -8.991  26.245  0.00  0.00     0.218 HD
ENDBRANCH  20  25
ENDBRANCH  16  17
ENDBRANCH  15  16
ENDBRANCH   1  15
TORSDOF 10
ENDMDL
