MODEL 1
REMARK VINA RESULT:      -6.4      0.000      0.000
REMARK  10 active torsions:
REMARK  status: ('A' for Active; 'I' for Inactive)
REMARK    1  A    between atoms: O_1  and  C_19 
REMARK    2  A    between atoms: O_2  and  C_20 
REMARK    3  A    between atoms: O_3  and  C_22 
REMARK    4  A    between atoms: N_4  and  C_5 
REMARK    5  A    between atoms: N_4  and  C_8 
REMARK    6  A    between atoms: C_5  and  C_6 
REMARK    7  A    between atoms: C_6  and  C_7 
REMARK    8  A    between atoms: C_7  and  C_11 
REMARK    9  A    between atoms: C_8  and  C_10 
REMARK   10  A    between atoms: C_10  and  C_12 
ROOT
HETATM    1  N   UNK     0     -20.087  15.389  15.440  0.00  0.00     0.087 N 
HETATM    2  H   UNK     0     -19.921  14.405  15.229  0.00  0.00     0.316 HD
ENDROOT
BRANCH   1   3
HETATM    3  C   UNK     0     -21.307  15.525  16.237  0.00  0.00     0.216 C 
HETATM    4  C   UNK     0     -21.256  16.831  17.030  0.00  0.00     0.042 C 
BRANCH   3   5
HETATM    5  C   UNK     0     -21.480  14.325  17.186  0.00  0.00     0.040 C 
BRANCH   5   6
HETATM    6  C   UNK     0     -21.684  14.691  18.663  0.00  0.00     0.040 C 
BRANCH   6   7
HETATM    7  C   UNK     0     -21.241  13.617  19.625  0.00  0.00    -0.058 A 
HETATM    8  C   UNK     0     -20.431  13.956  20.698  0.00  0.00     0.010 A 
HETATM    9  C   UNK     0     -20.021  12.963  21.587  0.00  0.00     0.037 A 
HETATM   10  C   UNK     0     -20.427  11.643  21.394  0.00  0.00     0.065 A 
HETATM   11  C   UNK     0     -21.242  11.315  20.309  0.00  0.00     0.037 A 
HETATM   12  C   UNK     0     -21.652  12.309  19.420  0.00  0.00     0.010 A 
BRANCH  10  13
HETATM   13  O   UNK     0     -20.027  10.674  22.262  0.00  0.00    -0.361 OA
HETATM   14  H   UNK     0     -20.780  10.087  22.448  0.00  0.00     0.217 HD
ENDBRANCH  10  13
ENDBRANCH   6   7
ENDBRANCH   5   6
ENDBRANCH   3   5
ENDBRANCH   1   3
BRANCH   1  15
HETATM   15  C   UNK     0     -18.945  15.943  16.150  0.00  0.00     0.274 C 
BRANCH  15  16
HETATM   16  C   UNK     0     -17.704  15.070  15.956  0.00  0.00     0.068 C 
BRANCH  16  17
HETATM   17  C   UNK     0     -17.915  13.680  16.500  0.00  0.00    -0.054 A 
HETATM   18  C   UNK     0     -18.075  12.620  15.620  0.00  0.00     0.046 A 
HETATM   19  C   UNK     0     -18.271  11.334  16.124  0.00  0.00     0.099 A 
HETATM   20  C   UNK     0     -18.305  11.123  17.502  0.00  0.00     0.098 A 
HETATM   21  C   UNK     0     -18.142  12.198  18.377  0.00  0.00     0.040 A 
HETATM   22  C   UNK     0     -17.946  13.483  17.872  0.00  0.00     0.010 A 
BRANCH  19  23
HETATM   23  O   UNK     0     -18.428  10.292  15.259  0.00  0.00    -0.358 OA
HETATM   24  H   UNK     0     -18.850   9.553  15.728  0.00  0.00     0.218 HD
ENDBRANCH  19  23
BRANCH  20  25
HETATM   25  O   UNK     0     -18.495   9.872  18.007  0.00  0.00    -0.358 OA
HETATM   26  H   UNK     0     -19.387   9.566  17.768  0.00  0.00     0.218 HD
ENDBRANCH  20  25
ENDBRANCH  16  17
ENDBRANCH  15  16
ENDBRANCH   1  15
TORSDOF 10
ENDMDL
MODEL 2
REMARK VINA RESULT:      -6.3     30.001     32.094
REMARK  10 active torsions:
REMARK  status: ('A' for Active; 'I' for Inactive)
REMARK    1  A    between atoms: O_1  and  C_19 
REMARK    2  A    between atoms: O_2  and  C_20 
REMARK    3  A    between atoms: O_3  and  C_22 
REMARK    4  A    between atoms: N_4  and  C_5 
REMARK    5  A    between atoms: N_4  and  C_8 
REMARK    6  A    between atoms: C_5  and  C_6 
REMARK    7  A    between atoms: C_6  and  C_7 
REMARK    8  A    between atoms: C_7  and  C_11 
REMARK    9  A    between atoms: C_8  and  C_10 
REMARK   10  A    between atoms: C_10  and  C_12 
ROOT
HETATM    1  N   UNK     0     -28.325 -15.370  30.286  0.00  0.00     0.087 N 
HETATM    2  H   UNK     0     -28.585 -14.703  29.559  0.00  0.00     0.316 HD
ENDROOT
BRANCH   1   3
HETATM    3  C   UNK     0     -29.374 -16.379  30.432  0.00  0.00     0.216 C 
HETATM    4  C   UNK     0     -28.737 -17.761  30.571  0.00  0.00     0.042 C 
BRANCH   3   5
HETATM    5  C   UNK     0     -30.337 -16.347  29.231  0.00  0.00     0.040 C 
BRANCH   5   6
HETATM    6  C   UNK     0     -30.112 -17.456  28.192  0.00  0.00     0.040 C 
BRANCH   6   7
HETATM    7  C   UNK     0     -29.183 -17.064  27.071  0.00  0.00    -0.058 A 
HETATM    8  C   UNK     0     -29.489 -15.964  26.286  0.00  0.00     0.010 A 
HETATM    9  C   UNK     0     -28.629 -15.601  25.248  0.00  0.00     0.037 A 
HETATM   10  C   UNK     0     -27.472 -16.344  25.010  0.00  0.00     0.065 A 
HETATM   11  C   UNK     0     -27.176 -17.450  25.808  0.00  0.00     0.037 A 
HETATM   12  C   UNK     0     -28.037 -17.811  26.845  0.00  0.00     0.010 A 
BRANCH  10  13
HETATM   13  O   UNK     0     -26.633 -15.990  23.998  0.00  0.00    -0.361 OA
HETATM   14  H   UNK     0     -25.726 -16.243  24.239  0.00  0.00     0.217 HD
ENDBRANCH  10  13
ENDBRANCH   6   7
ENDBRANCH   5   6
ENDBRANCH   3   5
ENDBRANCH   1   3
BRANCH   1  15
HETATM   15  C   UNK     0     -27.054 -15.994  29.953  0.00  0.00     0.274 C 
BRANCH  15  16
HETATM   16  C   UNK     0     -26.213 -15.082  29.058  0.00  0.00     0.068 C 
BRANCH  16  17
HETATM   17  C   UNK     0     -24.807 -14.936  29.582  0.00  0.00    -0.054 A 
HETATM   18  C   UNK     0     -24.475 -15.495  30.807  0.00  0.00     0.046 A 
HETATM   19  C   UNK     0     -23.173 -15.360  31.291  0.00  0.00     0.099 A 
HETATM   20  C   UNK     0     -22.220 -14.667  30.546  0.00  0.00     0.098 A 
HETATM   21  C   UNK     0     -22.568 -14.109  29.315  0.00  0.00     0.040 A 
HETATM   22  C   UNK     0     -23.869 -14.245  28.831  0.00  0.00     0.010 A 
BRANCH  19  23
HETATM   23  O   UNK     0     -22.846 -15.910  32.494  0.00  0.00    -0.358 OA
HETATM   24  H   UNK     0     -21.894 -16.112  32.502  0.00  0.00     0.218 HD
ENDBRANCH  19  23
BRANCH  20  25
HETATM   25  O   UNK     0     -20.946 -14.528  31.008  0.00  0.00    -0.358 OA
HETATM   26  H   UNK     0     -20.682 -15.346  31.461  0.00  0.00     0.218 HD
ENDBRANCH  20  25
ENDBRANCH  16  17
ENDBRANCH  15  16
ENDBRANCH   1  15
TORSDOF 10
ENDMDL
MODEL 3
REMARK VINA RESULT:      -6.2      2.931      6.304
REMARK  10 active torsions:
REMARK  status: ('A' for Active; 'I' for Inactive)
REMARK    1  A    between atoms: O_1  and  C_19 
REMARK    2  A    between atoms: O_2  and  C_20 
REMARK    3  A    between atoms: O_3  and  C_22 
REMARK    4  A    between atoms: N_4  and  C_5 
REMARK    5  A    between atoms: N_4  and  C_8 
REMARK    6  A    between atoms: C_5  and  C_6 
REMARK    7  A    between atoms: C_6  and  C_7 
REMARK    8  A    between atoms: C_7  and  C_11 
REMARK    9  A    between atoms: C_8  and  C_10 
REMARK   10  A    between atoms: C_10  and  C_12 
ROOT
HETATM    1  N   UNK     0     -17.991  12.420  18.604  0.00  0.00     0.087 N 
HETATM    2  H   UNK     0     -17.111  12.096  19.004  0.00  0.00     0.316 HD
ENDROOT
BRANCH   1   3
HETATM    3  C   UNK     0     -18.267  11.697  17.361  0.00  0.00     0.216 C 
HETATM    4  C   UNK     0     -17.195  10.629  17.144  0.00  0.00     0.042 C 
BRANCH   3   5
HETATM    5  C   UNK     0     -18.315  12.664  16.164  0.00  0.00     0.040 C 
BRANCH   5   6
HETATM    6  C   UNK     0     -17.986  14.126  16.497  0.00  0.00     0.040 C 
BRANCH   6   7
HETATM    7  C   UNK     0     -18.979  15.117  15.945  0.00  0.00    -0.058 A 
HETATM    8  C   UNK     0     -20.333  14.921  16.168  0.00  0.00     0.010 A 
HETATM    9  C   UNK     0     -21.252  15.837  15.656  0.00  0.00     0.037 A 
HETATM   10  C   UNK     0     -20.805  16.940  14.928  0.00  0.00     0.065 A 
HETATM   11  C   UNK     0     -19.440  17.126  14.710  0.00  0.00     0.037 A 
HETATM   12  C   UNK     0     -18.521  16.209  15.223  0.00  0.00     0.010 A 
BRANCH  10  13
HETATM   13  O   UNK     0     -21.703  17.834  14.429  0.00  0.00    -0.361 OA
HETATM   14  H   UNK     0     -22.572  17.666  14.832  0.00  0.00     0.217 HD
ENDBRANCH  10  13
ENDBRANCH   6   7
ENDBRANCH   5   6
ENDBRANCH   3   5
ENDBRANCH   1   3
BRANCH   1  15
HETATM   15  C   UNK     0     -19.070  12.228  19.560  0.00  0.00     0.274 C 
BRANCH  15  16
HETATM   16  C   UNK     0     -18.519  12.006  20.970  0.00  0.00     0.068 C 
BRANCH  16  17
HETATM   17  C   UNK     0     -18.899  10.649  21.505  0.00  0.00    -0.054 A 
HETATM   18  C   UNK     0     -19.908   9.929  20.884  0.00  0.00     0.046 A 
HETATM   19  C   UNK     0     -20.259   8.673  21.380  0.00  0.00     0.099 A 
HETATM   20  C   UNK     0     -19.597   8.152  22.491  0.00  0.00     0.098 A 
HETATM   21  C   UNK     0     -18.583   8.887  23.106  0.00  0.00     0.040 A 
HETATM   22  C   UNK     0     -18.232  10.142  22.610  0.00  0.00     0.010 A 
BRANCH  19  23
HETATM   23  O   UNK     0     -21.251   7.966  20.769  0.00  0.00    -0.358 OA
HETATM   24  H   UNK     0     -21.799   7.538  21.449  0.00  0.00     0.218 HD
ENDBRANCH  19  23
BRANCH  20  25
HETATM   25  O   UNK     0     -19.931   6.927  22.985  0.00  0.00    -0.358 OA
HETATM   26  H   UNK     0     -20.530   7.043  23.742  0.00  0.00     0.218 HD
ENDBRANCH  20  25
ENDBRANCH  16  17
ENDBRANCH  15  16
ENDBRANCH   1  15
TORSDOF 10
ENDMDL
