MODEL 1
REMARK VINA RESULT:      -8.0      0.000      0.000
REMARK  10 active torsions:
REMARK  status: ('A' for Active; 'I' for Inactive)
REMARK    1  A    between atoms: O_1  and  C_19 
REMARK    2  A    between atoms: O_2  and  C_20 
REMARK    3  A    between atoms: O_3  and  C_22 
REMARK    4  A    between atoms: N_4  and  C_5 
REMARK    5  A    between atoms: N_4  and  C_8 
REMARK    6  A    between atoms: C_5  and  C_6 
REMARK    7  A    between atoms: C_6  and  C_7 
REMARK    8  A    between atoms: C_7  and  C_11 
REMARK    9  A    between atoms: C_8  and  C_10 
REMARK   10  A    between atoms: C_10  and  C_12 
ROOT
HETATM    1  N   UNK     0     -25.692 -14.809  25.166  0.00  0.00     0.087 N 
HETATM    2  H   UNK     0     -25.447 -15.149  24.236  0.00  0.00     0.316 HD
ENDROOT
BRANCH   1   3
HETATM    3  C   UNK     0     -26.211 -15.913  25.975  0.00  0.00     0.216 C 
HETATM    4  C   UNK     0     -27.300 -16.649  25.196  0.00  0.00     0.042 C 
BRANCH   3   5
HETATM    5  C   UNK     0     -26.764 -15.397  27.316  0.00  0.00     0.040 C 
BRANCH   5   6
HETATM    6  C   UNK     0     -26.690 -16.400  28.477  0.00  0.00     0.040 C 
BRANCH   6   7
HETATM    7  C   UNK     0     -25.906 -15.903  29.665  0.00  0.00    -0.058 A 
HETATM    8  C   UNK     0     -26.154 -16.441  30.918  0.00  0.00     0.010 A 
HETATM    9  C   UNK     0     -25.429 -15.980  32.018  0.00  0.00     0.037 A 
HETATM   10  C   UNK     0     -24.463 -14.988  31.849  0.00  0.00     0.065 A 
HETATM   11  C   UNK     0     -24.224 -14.454  30.582  0.00  0.00     0.037 A 
HETATM   12  C   UNK     0     -24.949 -14.916  29.483  0.00  0.00     0.010 A 
BRANCH  10  13
HETATM   13  O   UNK     0     -23.756 -14.539  32.923  0.00  0.00    -0.361 OA
HETATM   14  H   UNK     0     -23.457 -13.631  32.745  0.00  0.00     0.217 HD
ENDBRANCH  10  13
ENDBRANCH   6   7
ENDBRANCH   5   6
ENDBRANCH   3   5
ENDBRANCH   1   3
BRANCH   1  15
HETATM   15  C   UNK     0     -24.527 -14.211  25.798  0.00  0.00     0.274 C 
BRANCH  15  16
HETATM   16  C   UNK     0     -24.233 -12.830  25.209  0.00  0.00     0.068 C 
BRANCH  16  17
HETATM   17  C   UNK     0     -22.761 -12.508  25.263  0.00  0.00    -0.054 A 
HETATM   18  C   UNK     0     -22.000 -12.973  26.324  0.00  0.00     0.046 A 
HETATM   19  C   UNK     0     -20.638 -12.674  26.373  0.00  0.00     0.099 A 
HETATM   20  C   UNK     0     -20.054 -11.913  25.361  0.00  0.00     0.098 A 
HETATM   21  C   UNK     0     -20.832 -11.451  24.299  0.00  0.00     0.040 A 
HETATM   22  C   UNK     0     -22.193 -11.751  24.250  0.00  0.00     0.010 A 
BRANCH  19  23
HETATM   23  O   UNK     0     -19.889 -13.132  27.415  0.00  0.00    -0.358 OA
HETATM   24  H   UNK     0     -18.947 -13.046  27.190  0.00  0.00     0.218 HD
ENDBRANCH  19  23
BRANCH  20  25
HETATM   25  O   UNK     0     -18.725 -11.615  25.397  0.00  0.00    -0.358 OA
HETATM   26  H   UNK     0     -18.330 -12.021  26.188  0.00  0.00     0.218 HD
ENDBRANCH  20  25
ENDBRANCH  16  17
ENDBRANCH  15  16
ENDBRANCH   1  15
TORSDOF 10
ENDMDL
MODEL 2
REMARK VINA RESULT:      -7.8      3.288      7.476
REMARK  10 active torsions:
REMARK  status: ('A' for Active; 'I' for Inactive)
REMARK    1  A    between atoms: O_1  and  C_19 
REMARK    2  A    between atoms: O_2  and  C_20 
REMARK    3  A    between atoms: O_3  and  C_22 
REMARK    4  A    between atoms: N_4  and  C_5 
REMARK    5  A    between atoms: N_4  and  C_8 
REMARK    6  A    between atoms: C_5  and  C_6 
REMARK    7  A    between atoms: C_6  and  C_7 
REMARK    8  A    between atoms: C_7  and  C_11 
REMARK    9  A    between atoms: C_8  and  C_10 
REMARK   10  A    between atoms: C_10  and  C_12 
ROOT
HETATM    1  N   UNK     0     -22.026 -15.452  30.973  0.00  0.00     0.087 N 
HETATM    2  H   UNK     0     -22.128 -16.466  30.999  0.00  0.00     0.316 HD
ENDROOT
BRANCH   1   3
HETATM    3  C   UNK     0     -21.296 -15.058  29.767  0.00  0.00     0.216 C 
HETATM    4  C   UNK     0     -19.917 -14.524  30.157  0.00  0.00     0.042 C 
BRANCH   3   5
HETATM    5  C   UNK     0     -22.080 -13.996  28.974  0.00  0.00     0.040 C 
BRANCH   5   6
HETATM    6  C   UNK     0     -21.354 -13.444  27.738  0.00  0.00     0.040 C 
BRANCH   6   7
HETATM    7  C   UNK     0     -22.281 -13.000  26.633  0.00  0.00    -0.058 A 
HETATM    8  C   UNK     0     -23.498 -13.642  26.466  0.00  0.00     0.010 A 
HETATM    9  C   UNK     0     -24.354 -13.232  25.444  0.00  0.00     0.037 A 
HETATM   10  C   UNK     0     -23.983 -12.183  24.603  0.00  0.00     0.065 A 
HETATM   11  C   UNK     0     -22.755 -11.546  24.782  0.00  0.00     0.037 A 
HETATM   12  C   UNK     0     -21.899 -11.957  25.804  0.00  0.00     0.010 A 
BRANCH  10  13
HETATM   13  O   UNK     0     -24.820 -11.783  23.606  0.00  0.00    -0.361 OA
HETATM   14  H   UNK     0     -24.493 -10.944  23.239  0.00  0.00     0.217 HD
ENDBRANCH  10  13
ENDBRANCH   6   7
ENDBRANCH   5   6
ENDBRANCH   3   5
ENDBRANCH   1   3
BRANCH   1  15
HETATM   15  C   UNK     0     -23.335 -14.821  31.011  0.00  0.00     0.274 C 
BRANCH  15  16
HETATM   16  C   UNK     0     -24.436 -15.858  31.241  0.00  0.00     0.068 C 
BRANCH  16  17
HETATM   17  C   UNK     0     -25.587 -15.663  30.285  0.00  0.00    -0.054 A 
HETATM   18  C   UNK     0     -26.698 -16.487  30.380  0.00  0.00     0.046 A 
HETATM   19  C   UNK     0     -27.762 -16.307  29.495  0.00  0.00     0.099 A 
HETATM   20  C   UNK     0     -27.701 -15.306  28.527  0.00  0.00     0.098 A 
HETATM   21  C   UNK     0     -26.577 -14.483  28.443  0.00  0.00     0.040 A 
HETATM   22  C   UNK     0     -25.514 -14.664  29.327  0.00  0.00     0.010 A 
BRANCH  19  23
HETATM   23  O   UNK     0     -28.855 -17.116  29.588  0.00  0.00    -0.358 OA
HETATM   24  H   UNK     0     -29.081 -17.236  30.526  0.00  0.00     0.218 HD
ENDBRANCH  19  23
BRANCH  20  25
HETATM   25  O   UNK     0     -28.733 -15.119  27.657  0.00  0.00    -0.358 OA
HETATM   26  H   UNK     0     -28.516 -14.383  27.061  0.00  0.00     0.218 HD
ENDBRANCH  20  25
ENDBRANCH  16  17
ENDBRANCH  15  16
ENDBRANCH   1  15
TORSDOF 10
ENDMDL
MODEL 3
REMARK VINA RESULT:      -7.7      3.183      8.552
REMARK  10 active torsions:
REMARK  status: ('A' for Active; 'I' for Inactive)
REMARK    1  A    between atoms: O_1  and  C_19 
REMARK    2  A    between atoms: O_2  and  C_20 
REMARK    3  A    between atoms: O_3  and  C_22 
REMARK    4  A    between atoms: N_4  and  C_5 
REMARK    5  A    between atoms: N_4  and  C_8 
REMARK    6  A    between atoms: C_5  and  C_6 
REMARK    7  A    between atoms: C_6  and  C_7 
REMARK    8  A    between atoms: C_7  and  C_11 
REMARK    9  A    between atoms: C_8  and  C_10 
REMARK   10  A    between atoms: C_10  and  C_12 
ROOT
HETATM    1  N   UNK     0     -22.752 -14.728  31.213  0.00  0.00     0.087 N 
HETATM    2  H   UNK     0     -22.387 -15.439  31.847  0.00  0.00     0.316 HD
ENDROOT
BRANCH   1   3
HETATM    3  C   UNK     0     -22.164 -14.901  29.884  0.00  0.00     0.216 C 
HETATM    4  C   UNK     0     -20.640 -14.933  30.001  0.00  0.00     0.042 C 
BRANCH   3   5
HETATM    5  C   UNK     0     -22.607 -13.770  28.937  0.00  0.00     0.040 C 
BRANCH   5   6
HETATM    6  C   UNK     0     -21.478 -13.140  28.108  0.00  0.00     0.040 C 
BRANCH   6   7
HETATM    7  C   UNK     0     -21.857 -12.859  26.675  0.00  0.00    -0.058 A 
HETATM    8  C   UNK     0     -21.051 -12.033  25.908  0.00  0.00     0.010 A 
HETATM    9  C   UNK     0     -21.401 -11.772  24.583  0.00  0.00     0.037 A 
HETATM   10  C   UNK     0     -22.553 -12.343  24.041  0.00  0.00     0.065 A 
HETATM   11  C   UNK     0     -23.356 -13.172  24.825  0.00  0.00     0.037 A 
HETATM   12  C   UNK     0     -23.005 -13.432  26.150  0.00  0.00     0.010 A 
BRANCH  10  13
HETATM   13  O   UNK     0     -22.894 -12.088  22.748  0.00  0.00    -0.361 OA
HETATM   14  H   UNK     0     -22.831 -11.131  22.588  0.00  0.00     0.217 HD
ENDBRANCH  10  13
ENDBRANCH   6   7
ENDBRANCH   5   6
ENDBRANCH   3   5
ENDBRANCH   1   3
BRANCH   1  15
HETATM   15  C   UNK     0     -24.202 -14.819  31.149  0.00  0.00     0.274 C 
BRANCH  15  16
HETATM   16  C   UNK     0     -24.729 -15.866  32.132  0.00  0.00     0.068 C 
BRANCH  16  17
HETATM   17  C   UNK     0     -24.062 -15.745  33.479  0.00  0.00    -0.054 A 
HETATM   18  C   UNK     0     -22.887 -16.439  33.723  0.00  0.00     0.046 A 
HETATM   19  C   UNK     0     -22.270 -16.327  34.969  0.00  0.00     0.099 A 
HETATM   20  C   UNK     0     -22.837 -15.523  35.958  0.00  0.00     0.098 A 
HETATM   21  C   UNK     0     -24.021 -14.830  35.699  0.00  0.00     0.040 A 
HETATM   22  C   UNK     0     -24.636 -14.942  34.453  0.00  0.00     0.010 A 
BRANCH  19  23
HETATM   23  O   UNK     0     -21.114 -17.008  35.209  0.00  0.00    -0.358 OA
HETATM   24  H   UNK     0     -20.722 -17.274  34.360  0.00  0.00     0.218 HD
ENDBRANCH  19  23
BRANCH  20  25
HETATM   25  O   UNK     0     -22.245 -15.405  37.179  0.00  0.00    -0.358 OA
HETATM   26  H   UNK     0     -22.712 -14.724  37.693  0.00  0.00     0.218 HD
ENDBRANCH  20  25
ENDBRANCH  16  17
ENDBRANCH  15  16
ENDBRANCH   1  15
TORSDOF 10
ENDMDL
