MODEL 1
REMARK VINA RESULT:      -8.2      0.000      0.000
REMARK  10 active torsions:
REMARK  status: ('A' for Active; 'I' for Inactive)
REMARK    1  A    between atoms: O_1  and  C_19 
REMARK    2  A    between atoms: O_2  and  C_20 
REMARK    3  A    between atoms: O_3  and  C_22 
REMARK    4  A    between atoms: N_4  and  C_5 
REMARK    5  A    between atoms: N_4  and  C_8 
REMARK    6  A    between atoms: C_5  and  C_6 
REMARK    7  A    between atoms: C_6  and  C_7 
REMARK    8  A    between atoms: C_7  and  C_11 
REMARK    9  A    between atoms: C_8  and  C_10 
REMARK   10  A    between atoms: C_10  and  C_12 
ROOT
HETATM    1  N   UNK     0     -36.538  51.596  14.535  0.00  0.00     0.087 N 
HETATM    2  H   UNK     0     -37.099  52.071  13.827  0.00  0.00     0.316 HD
ENDROOT
BRANCH   1   3
HETATM    3  C   UNK     0     -36.499  52.399  15.757  0.00  0.00     0.216 C 
HETATM    4  C   UNK     0     -36.941  53.829  15.444  0.00  0.00     0.042 C 
BRANCH   3   5
HETATM    5  C   UNK     0     -35.087  52.395  16.372  0.00  0.00     0.040 C 
BRANCH   5   6
HETATM    6  C   UNK     0     -33.992  53.004  15.484  0.00  0.00     0.040 C 
BRANCH   6   7
HETATM    7  C   UNK     0     -32.694  52.238  15.503  0.00  0.00    -0.058 A 
HETATM    8  C   UNK     0     -32.092  51.948  16.717  0.00  0.00     0.010 A 
HETATM    9  C   UNK     0     -30.890  51.239  16.735  0.00  0.00     0.037 A 
HETATM   10  C   UNK     0     -30.306  50.828  15.537  0.00  0.00     0.065 A 
HETATM   11  C   UNK     0     -30.922  51.126  14.321  0.00  0.00     0.037 A 
HETATM   12  C   UNK     0     -32.124  51.835  14.304  0.00  0.00     0.010 A 
BRANCH  10  13
HETATM   13  O   UNK     0     -29.134  50.135  15.555  0.00  0.00    -0.361 OA
HETATM   14  H   UNK     0     -28.599  50.403  14.788  0.00  0.00     0.217 HD
ENDBRANCH  10  13
ENDBRANCH   6   7
ENDBRANCH   5   6
ENDBRANCH   3   5
ENDBRANCH   1   3
BRANCH   1  15
HETATM   15  C   UNK     0     -37.092  50.278  14.802  0.00  0.00     0.274 C 
BRANCH  15  16
HETATM   16  C   UNK     0     -38.395  50.382  15.596  0.00  0.00     0.068 C 
BRANCH  16  17
HETATM   17  C   UNK     0     -39.601  50.265  14.698  0.00  0.00    -0.054 A 
HETATM   18  C   UNK     0     -39.571  50.844  13.438  0.00  0.00     0.046 A 
HETATM   19  C   UNK     0     -40.687  50.735  12.608  0.00  0.00     0.099 A 
HETATM   20  C   UNK     0     -41.819  50.051  13.047  0.00  0.00     0.098 A 
HETATM   21  C   UNK     0     -41.836  49.473  14.318  0.00  0.00     0.040 A 
HETATM   22  C   UNK     0     -40.720  49.581  15.147  0.00  0.00     0.010 A 
BRANCH  19  23
HETATM   23  O   UNK     0     -40.658  51.304  11.369  0.00  0.00    -0.358 OA
HETATM   24  H   UNK     0     -41.290  52.042  11.345  0.00  0.00     0.218 HD
ENDBRANCH  19  23
BRANCH  20  25
HETATM   25  O   UNK     0     -42.915  49.937  12.246  0.00  0.00    -0.358 OA
HETATM   26  H   UNK     0     -43.572  49.369  12.685  0.00  0.00     0.218 HD
ENDBRANCH  20  25
ENDBRANCH  16  17
ENDBRANCH  15  16
ENDBRANCH   1  15
TORSDOF 10
ENDMDL
MODEL 2
REMARK VINA RESULT:      -8.0      2.888      7.897
REMARK  10 active torsions:
REMARK  status: ('A' for Active; 'I' for Inactive)
REMARK    1  A    between atoms: O_1  and  C_19 
REMARK    2  A    between atoms: O_2  and  C_20 
REMARK    3  A    between atoms: O_3  and  C_22 
REMARK    4  A    between atoms: N_4  and  C_5 
REMARK    5  A    between atoms: N_4  and  C_8 
REMARK    6  A    between atoms: C_5  and  C_6 
REMARK    7  A    between atoms: C_6  and  C_7 
REMARK    8  A    between atoms: C_7  and  C_11 
REMARK    9  A    between atoms: C_8  and  C_10 
REMARK   10  A    between atoms: C_10  and  C_12 
ROOT
HETATM    1  N   UNK     0     -37.845  47.930  17.872  0.00  0.00     0.087 N 
HETATM    2  H   UNK     0     -37.209  47.424  18.489  0.00  0.00     0.316 HD
ENDROOT
BRANCH   1   3
HETATM    3  C   UNK     0     -39.204  47.880  18.410  0.00  0.00     0.216 C 
HETATM    4  C   UNK     0     -39.624  46.422  18.601  0.00  0.00     0.042 C 
BRANCH   3   5
HETATM    5  C   UNK     0     -40.191  48.607  17.479  0.00  0.00     0.040 C 
BRANCH   5   6
HETATM    6  C   UNK     0     -40.732  47.759  16.318  0.00  0.00     0.040 C 
BRANCH   6   7
HETATM    7  C   UNK     0     -40.905  48.524  15.031  0.00  0.00    -0.058 A 
HETATM    8  C   UNK     0     -41.774  48.043  14.064  0.00  0.00     0.010 A 
HETATM    9  C   UNK     0     -41.933  48.751  12.872  0.00  0.00     0.037 A 
HETATM   10  C   UNK     0     -41.223  49.933  12.663  0.00  0.00     0.065 A 
HETATM   11  C   UNK     0     -40.351  50.406  13.645  0.00  0.00     0.037 A 
HETATM   12  C   UNK     0     -40.192  49.698  14.836  0.00  0.00     0.010 A 
BRANCH  10  13
HETATM   13  O   UNK     0     -41.380  50.624  11.500  0.00  0.00    -0.361 OA
HETATM   14  H   UNK     0     -40.554  51.098  11.303  0.00  0.00     0.217 HD
ENDBRANCH  10  13
ENDBRANCH   6   7
ENDBRANCH   5   6
ENDBRANCH   3   5
ENDBRANCH   1   3
BRANCH   1  15
HETATM   15  C   UNK     0     -37.400  49.307  17.724  0.00  0.00     0.274 C 
BRANCH  15  16
HETATM   16  C   UNK     0     -36.775  49.536  16.347  0.00  0.00     0.068 C 
BRANCH  16  17
HETATM   17  C   UNK     0     -36.638  51.006  16.040  0.00  0.00    -0.054 A 
HETATM   18  C   UNK     0     -35.387  51.528  15.751  0.00  0.00     0.046 A 
HETATM   19  C   UNK     0     -35.261  52.889  15.467  0.00  0.00     0.099 A 
HETATM   20  C   UNK     0     -36.388  53.710  15.477  0.00  0.00     0.098 A 
HETATM   21  C   UNK     0     -37.641  53.171  15.770  0.00  0.00     0.040 A 
HETATM   22  C   UNK     0     -37.767  51.812  16.053  0.00  0.00     0.010 A 
BRANCH  19  23
HETATM   23  O   UNK     0     -34.031  53.402  15.182  0.00  0.00    -0.358 OA
HETATM   24  H   UNK     0     -33.921  54.242  15.659  0.00  0.00     0.218 HD
ENDBRANCH  19  23
BRANCH  20  25
HETATM   25  O   UNK     0     -36.278  55.040  15.202  0.00  0.00    -0.358 OA
HETATM   26  H   UNK     0     -37.168  55.414  15.085  0.00  0.00     0.218 HD
ENDBRANCH  20  25
ENDBRANCH  16  17
ENDBRANCH  15  16
ENDBRANCH   1  15
TORSDOF 10
ENDMDL
MODEL 3
REMARK VINA RESULT:      -8.0      1.077      9.005
REMARK  10 active torsions:
REMARK  status: ('A' for Active; 'I' for Inactive)
REMARK    1  A    between atoms: O_1  and  C_19 
REMARK    2  A    between atoms: O_2  and  C_20 
REMARK    3  A    between atoms: O_3  and  C_22 
REMARK    4  A    between atoms: N_4  and  C_5 
REMARK    5  A    between atoms: N_4  and  C_8 
REMARK    6  A    between atoms: C_5  and  C_6 
REMARK    7  A    between atoms: C_6  and  C_7 
REMARK    8  A    between atoms: C_7  and  C_11 
REMARK    9  A    between atoms: C_8  and  C_10 
REMARK   10  A    between atoms: C_10  and  C_12 
ROOT
HETATM    1  N   UNK     0     -35.466  53.136  15.326  0.00  0.00     0.087 N 
HETATM    2  H   UNK     0     -34.911  53.279  14.482  0.00  0.00     0.316 HD
ENDROOT
BRANCH   1   3
HETATM    3  C   UNK     0     -36.863  52.890  14.965  0.00  0.00     0.216 C 
HETATM    4  C   UNK     0     -37.777  53.442  16.058  0.00  0.00     0.042 C 
BRANCH   3   5
HETATM    5  C   UNK     0     -37.119  51.386  14.757  0.00  0.00     0.040 C 
BRANCH   5   6
HETATM    6  C   UNK     0     -38.333  50.825  15.514  0.00  0.00     0.040 C 
BRANCH   6   7
HETATM    7  C   UNK     0     -39.476  50.417  14.618  0.00  0.00    -0.058 A 
HETATM    8  C   UNK     0     -39.662  51.073  13.411  0.00  0.00     0.010 A 
HETATM    9  C   UNK     0     -40.719  50.696  12.583  0.00  0.00     0.037 A 
HETATM   10  C   UNK     0     -41.577  49.667  12.972  0.00  0.00     0.065 A 
HETATM   11  C   UNK     0     -41.379  49.016  14.190  0.00  0.00     0.037 A 
HETATM   12  C   UNK     0     -40.321  49.394  15.018  0.00  0.00     0.010 A 
BRANCH  10  13
HETATM   13  O   UNK     0     -42.609  49.300  12.163  0.00  0.00    -0.361 OA
HETATM   14  H   UNK     0     -43.385  49.099  12.714  0.00  0.00     0.217 HD
ENDBRANCH  10  13
ENDBRANCH   6   7
ENDBRANCH   5   6
ENDBRANCH   3   5
ENDBRANCH   1   3
BRANCH   1  15
HETATM   15  C   UNK     0     -34.928  52.021  16.089  0.00  0.00     0.274 C 
BRANCH  15  16
HETATM   16  C   UNK     0     -33.700  52.450  16.894  0.00  0.00     0.068 C 
BRANCH  16  17
HETATM   17  C   UNK     0     -32.429  52.266  16.105  0.00  0.00    -0.054 A 
HETATM   18  C   UNK     0     -31.484  51.349  16.538  0.00  0.00     0.046 A 
HETATM   19  C   UNK     0     -30.308  51.179  15.807  0.00  0.00     0.099 A 
HETATM   20  C   UNK     0     -30.090  51.930  14.652  0.00  0.00     0.098 A 
HETATM   21  C   UNK     0     -31.050  52.850  14.227  0.00  0.00     0.040 A 
HETATM   22  C   UNK     0     -32.226  53.019  14.958  0.00  0.00     0.010 A 
BRANCH  19  23
HETATM   23  O   UNK     0     -29.379  50.277  16.232  0.00  0.00    -0.358 OA
HETATM   24  H   UNK     0     -28.657  50.752  16.678  0.00  0.00     0.218 HD
ENDBRANCH  19  23
BRANCH  20  25
HETATM   25  O   UNK     0     -28.946  51.774  13.930  0.00  0.00    -0.358 OA
HETATM   26  H   UNK     0     -28.483  52.628  13.880  0.00  0.00     0.218 HD
ENDBRANCH  20  25
ENDBRANCH  16  17
ENDBRANCH  15  16
ENDBRANCH   1  15
TORSDOF 10
ENDMDL
