MODEL 1
REMARK VINA RESULT:      -6.5      0.000      0.000
REMARK  10 active torsions:
REMARK  status: ('A' for Active; 'I' for Inactive)
REMARK    1  A    between atoms: O_1  and  C_19 
REMARK    2  A    between atoms: O_2  and  C_20 
REMARK    3  A    between atoms: O_3  and  C_22 
REMARK    4  A    between atoms: N_4  and  C_5 
REMARK    5  A    between atoms: N_4  and  C_8 
REMARK    6  A    between atoms: C_5  and  C_6 
REMARK    7  A    between atoms: C_6  and  C_7 
REMARK    8  A    between atoms: C_7  and  C_11 
REMARK    9  A    between atoms: C_8  and  C_10 
REMARK   10  A    between atoms: C_10  and  C_12 
ROOT
HETATM    1  N   UNK     0     -35.088 -57.017   8.322  0.00  0.00     0.087 N 
HETATM    2  H   UNK     0     -35.623 -57.233   7.481  0.00  0.00     0.316 HD
ENDROOT
BRANCH   1   3
HETATM    3  C   UNK     0     -33.994 -57.977   8.473  0.00  0.00     0.216 C 
HETATM    4  C   UNK     0     -34.570 -59.377   8.686  0.00  0.00     0.042 C 
BRANCH   3   5
HETATM    5  C   UNK     0     -33.080 -57.586   9.649  0.00  0.00     0.040 C 
BRANCH   5   6
HETATM    6  C   UNK     0     -32.124 -58.691  10.122  0.00  0.00     0.040 C 
BRANCH   6   7
HETATM    7  C   UNK     0     -30.741 -58.598   9.528  0.00  0.00    -0.058 A 
HETATM    8  C   UNK     0     -30.063 -59.760   9.194  0.00  0.00     0.010 A 
HETATM    9  C   UNK     0     -28.783 -59.674   8.645  0.00  0.00     0.037 A 
HETATM   10  C   UNK     0     -28.197 -58.425   8.436  0.00  0.00     0.065 A 
HETATM   11  C   UNK     0     -28.890 -57.263   8.778  0.00  0.00     0.037 A 
HETATM   12  C   UNK     0     -30.170 -57.351   9.326  0.00  0.00     0.010 A 
BRANCH  10  13
HETATM   13  O   UNK     0     -26.949 -58.342   7.900  0.00  0.00    -0.361 OA
HETATM   14  H   UNK     0     -26.454 -57.644   8.363  0.00  0.00     0.217 HD
ENDBRANCH  10  13
ENDBRANCH   6   7
ENDBRANCH   5   6
ENDBRANCH   3   5
ENDBRANCH   1   3
BRANCH   1  15
HETATM   15  C   UNK     0     -34.573 -55.658   8.245  0.00  0.00     0.274 C 
BRANCH  15  16
HETATM   16  C   UNK     0     -34.654 -55.122   6.815  0.00  0.00     0.068 C 
BRANCH  16  17
HETATM   17  C   UNK     0     -33.292 -55.058   6.171  0.00  0.00    -0.054 A 
HETATM   18  C   UNK     0     -33.193 -54.833   4.806  0.00  0.00     0.046 A 
HETATM   19  C   UNK     0     -31.933 -54.775   4.211  0.00  0.00     0.099 A 
HETATM   20  C   UNK     0     -30.787 -54.944   4.987  0.00  0.00     0.098 A 
HETATM   21  C   UNK     0     -30.900 -55.171   6.359  0.00  0.00     0.040 A 
HETATM   22  C   UNK     0     -32.160 -55.228   6.954  0.00  0.00     0.010 A 
BRANCH  19  23
HETATM   23  O   UNK     0     -31.835 -54.553   2.870  0.00  0.00    -0.358 OA
HETATM   24  H   UNK     0     -31.005 -54.941   2.544  0.00  0.00     0.218 HD
ENDBRANCH  19  23
BRANCH  20  25
HETATM   25  O   UNK     0     -29.550 -54.890   4.418  0.00  0.00    -0.358 OA
HETATM   26  H   UNK     0     -29.648 -54.756   3.459  0.00  0.00     0.218 HD
ENDBRANCH  20  25
ENDBRANCH  16  17
ENDBRANCH  15  16
ENDBRANCH   1  15
TORSDOF 10
ENDMDL
MODEL 2
REMARK VINA RESULT:      -6.5      1.967      5.285
REMARK  10 active torsions:
REMARK  status: ('A' for Active; 'I' for Inactive)
REMARK    1  A    between atoms: O_1  and  C_19 
REMARK    2  A    between atoms: O_2  and  C_20 
REMARK    3  A    between atoms: O_3  and  C_22 
REMARK    4  A    between atoms: N_4  and  C_5 
REMARK    5  A    between atoms: N_4  and  C_8 
REMARK    6  A    between atoms: C_5  and  C_6 
REMARK    7  A    between atoms: C_6  and  C_7 
REMARK    8  A    between atoms: C_7  and  C_11 
REMARK    9  A    between atoms: C_8  and  C_10 
REMARK   10  A    between atoms: C_10  and  C_12 
ROOT
HETATM    1  N   UNK     0     -34.963 -57.957   7.301  0.00  0.00     0.087 N 
HETATM    2  H   UNK     0     -34.863 -57.224   8.003  0.00  0.00     0.316 HD
ENDROOT
BRANCH   1   3
HETATM    3  C   UNK     0     -34.943 -57.368   5.962  0.00  0.00     0.216 C 
HETATM    4  C   UNK     0     -33.731 -57.892   5.192  0.00  0.00     0.042 C 
BRANCH   3   5
HETATM    5  C   UNK     0     -34.908 -55.831   6.039  0.00  0.00     0.040 C 
BRANCH   5   6
HETATM    6  C   UNK     0     -34.175 -55.260   7.262  0.00  0.00     0.040 C 
BRANCH   6   7
HETATM    7  C   UNK     0     -32.674 -55.225   7.114  0.00  0.00    -0.058 A 
HETATM    8  C   UNK     0     -31.891 -56.034   7.923  0.00  0.00     0.010 A 
HETATM    9  C   UNK     0     -30.504 -56.002   7.786  0.00  0.00     0.037 A 
HETATM   10  C   UNK     0     -29.916 -55.162   6.840  0.00  0.00     0.065 A 
HETATM   11  C   UNK     0     -30.715 -54.353   6.032  0.00  0.00     0.037 A 
HETATM   12  C   UNK     0     -32.103 -54.386   6.170  0.00  0.00     0.010 A 
BRANCH  10  13
HETATM   13  O   UNK     0     -28.561 -55.132   6.707  0.00  0.00    -0.361 OA
HETATM   14  H   UNK     0     -28.172 -54.784   7.528  0.00  0.00     0.217 HD
ENDBRANCH  10  13
ENDBRANCH   6   7
ENDBRANCH   5   6
ENDBRANCH   3   5
ENDBRANCH   1   3
BRANCH   1  15
HETATM   15  C   UNK     0     -33.896 -58.934   7.450  0.00  0.00     0.274 C 
BRANCH  15  16
HETATM   16  C   UNK     0     -33.791 -59.414   8.898  0.00  0.00     0.068 C 
BRANCH  16  17
HETATM   17  C   UNK     0     -32.398 -59.225   9.443  0.00  0.00    -0.054 A 
HETATM   18  C   UNK     0     -32.163 -58.236  10.386  0.00  0.00     0.046 A 
HETATM   19  C   UNK     0     -30.874 -58.062  10.890  0.00  0.00     0.099 A 
HETATM   20  C   UNK     0     -29.835 -58.877  10.444  0.00  0.00     0.098 A 
HETATM   21  C   UNK     0     -30.085 -59.868   9.494  0.00  0.00     0.040 A 
HETATM   22  C   UNK     0     -31.373 -60.043   8.991  0.00  0.00     0.010 A 
BRANCH  19  23
HETATM   23  O   UNK     0     -30.643 -57.090  11.818  0.00  0.00    -0.358 OA
HETATM   24  H   UNK     0     -30.828 -56.222  11.420  0.00  0.00     0.218 HD
ENDBRANCH  19  23
BRANCH  20  25
HETATM   25  O   UNK     0     -28.571 -58.716  10.928  0.00  0.00    -0.358 OA
HETATM   26  H   UNK     0     -28.285 -59.545  11.348  0.00  0.00     0.218 HD
ENDBRANCH  20  25
ENDBRANCH  16  17
ENDBRANCH  15  16
ENDBRANCH   1  15
TORSDOF 10
ENDMDL
MODEL 3
REMARK VINA RESULT:      -6.5      1.263      1.927
REMARK  10 active torsions:
REMARK  status: ('A' for Active; 'I' for Inactive)
REMARK    1  A    between atoms: O_1  and  C_19 
REMARK    2  A    between atoms: O_2  and  C_20 
REMARK    3  A    between atoms: O_3  and  C_22 
REMARK    4  A    between atoms: N_4  and  C_5 
REMARK    5  A    between atoms: N_4  and  C_8 
REMARK    6  A    between atoms: C_5  and  C_6 
REMARK    7  A    between atoms: C_6  and  C_7 
REMARK    8  A    between atoms: C_7  and  C_11 
REMARK    9  A    between atoms: C_8  and  C_10 
REMARK   10  A    between atoms: C_10  and  C_12 
ROOT
HETATM    1  N   UNK     0     -35.810 -57.072   8.179  0.00  0.00     0.087 N 
HETATM    2  H   UNK     0     -36.806 -57.269   8.080  0.00  0.00     0.316 HD
ENDROOT
BRANCH   1   3
HETATM    3  C   UNK     0     -35.047 -58.316   8.084  0.00  0.00     0.216 C 
HETATM    4  C   UNK     0     -35.964 -59.502   8.380  0.00  0.00     0.042 C 
BRANCH   3   5
HETATM    5  C   UNK     0     -33.852 -58.304   9.055  0.00  0.00     0.040 C 
BRANCH   5   6
HETATM    6  C   UNK     0     -32.796 -59.389   8.798  0.00  0.00     0.040 C 
BRANCH   6   7
HETATM    7  C   UNK     0     -31.403 -58.998   9.222  0.00  0.00    -0.058 A 
HETATM    8  C   UNK     0     -30.312 -59.579   8.594  0.00  0.00     0.010 A 
HETATM    9  C   UNK     0     -29.023 -59.218   8.986  0.00  0.00     0.037 A 
HETATM   10  C   UNK     0     -28.841 -58.278  10.001  0.00  0.00     0.065 A 
HETATM   11  C   UNK     0     -29.947 -57.700  10.624  0.00  0.00     0.037 A 
HETATM   12  C   UNK     0     -31.236 -58.062  10.231  0.00  0.00     0.010 A 
BRANCH  10  13
HETATM   13  O   UNK     0     -27.582 -57.925  10.382  0.00  0.00    -0.361 OA
HETATM   14  H   UNK     0     -27.559 -57.842  11.351  0.00  0.00     0.217 HD
ENDBRANCH  10  13
ENDBRANCH   6   7
ENDBRANCH   5   6
ENDBRANCH   3   5
ENDBRANCH   1   3
BRANCH   1  15
HETATM   15  C   UNK     0     -35.388 -56.129   7.156  0.00  0.00     0.274 C 
BRANCH  15  16
HETATM   16  C   UNK     0     -34.381 -55.124   7.719  0.00  0.00     0.068 C 
BRANCH  16  17
HETATM   17  C   UNK     0     -33.108 -55.104   6.911  0.00  0.00    -0.054 A 
HETATM   18  C   UNK     0     -31.920 -55.508   7.501  0.00  0.00     0.046 A 
HETATM   19  C   UNK     0     -30.743 -55.490   6.752  0.00  0.00     0.099 A 
HETATM   20  C   UNK     0     -30.767 -55.067   5.424  0.00  0.00     0.098 A 
HETATM   21  C   UNK     0     -31.970 -54.663   4.843  0.00  0.00     0.040 A 
HETATM   22  C   UNK     0     -33.147 -54.682   5.591  0.00  0.00     0.010 A 
BRANCH  19  23
HETATM   23  O   UNK     0     -29.575 -55.888   7.332  0.00  0.00    -0.358 OA
HETATM   24  H   UNK     0     -29.041 -55.102   7.538  0.00  0.00     0.218 HD
ENDBRANCH  19  23
BRANCH  20  25
HETATM   25  O   UNK     0     -29.625 -55.044   4.683  0.00  0.00    -0.358 OA
HETATM   26  H   UNK     0     -29.859 -55.036   3.739  0.00  0.00     0.218 HD
ENDBRANCH  20  25
ENDBRANCH  16  17
ENDBRANCH  15  16
ENDBRANCH   1  15
TORSDOF 10
ENDMDL
