MODEL 1
REMARK VINA RESULT:      -8.5      0.000      0.000
REMARK  10 active torsions:
REMARK  status: ('A' for Active; 'I' for Inactive)
REMARK    1  A    between atoms: O_1  and  C_19 
REMARK    2  A    between atoms: O_2  and  C_20 
REMARK    3  A    between atoms: O_3  and  C_22 
REMARK    4  A    between atoms: N_4  and  C_5 
REMARK    5  A    between atoms: N_4  and  C_8 
REMARK    6  A    between atoms: C_5  and  C_6 
REMARK    7  A    between atoms: C_6  and  C_7 
REMARK    8  A    between atoms: C_7  and  C_11 
REMARK    9  A    between atoms: C_8  and  C_10 
REMARK   10  A    between atoms: C_10  and  C_12 
ROOT
HETATM    1  N   UNK     0      -6.079  19.219 -28.711  0.00  0.00     0.087 N 
HETATM    2  H   UNK     0      -6.484  19.649 -29.542  0.00  0.00     0.316 HD
ENDROOT
BRANCH   1   3
HETATM    3  C   UNK     0      -5.045  20.092 -28.155  0.00  0.00     0.216 C 
HETATM    4  C   UNK     0      -3.825  20.090 -29.077  0.00  0.00     0.042 C 
BRANCH   3   5
HETATM    5  C   UNK     0      -4.649  19.640 -26.737  0.00  0.00     0.040 C 
BRANCH   5   6
HETATM    6  C   UNK     0      -3.679  18.450 -26.683  0.00  0.00     0.040 C 
BRANCH   6   7
HETATM    7  C   UNK     0      -2.736  18.483 -25.507  0.00  0.00    -0.058 A 
HETATM    8  C   UNK     0      -3.229  18.250 -24.232  0.00  0.00     0.010 A 
HETATM    9  C   UNK     0      -2.357  18.282 -23.144  0.00  0.00     0.037 A 
HETATM   10  C   UNK     0      -1.002  18.544 -23.344  0.00  0.00     0.065 A 
HETATM   11  C   UNK     0      -0.519  18.778 -24.632  0.00  0.00     0.037 A 
HETATM   12  C   UNK     0      -1.392  18.746 -25.720  0.00  0.00     0.010 A 
BRANCH  10  13
HETATM   13  O   UNK     0      -0.151  18.574 -22.282  0.00  0.00    -0.361 OA
HETATM   14  H   UNK     0       0.139  17.667 -22.086  0.00  0.00     0.217 HD
ENDBRANCH  10  13
ENDBRANCH   6   7
ENDBRANCH   5   6
ENDBRANCH   3   5
ENDBRANCH   1   3
BRANCH   1  15
HETATM   15  C   UNK     0      -7.120  18.964 -27.728  0.00  0.00     0.274 C 
BRANCH  15  16
HETATM   16  C   UNK     0      -7.956  17.744 -28.120  0.00  0.00     0.068 C 
BRANCH  16  17
HETATM   17  C   UNK     0      -7.408  16.479 -27.508  0.00  0.00    -0.054 A 
HETATM   18  C   UNK     0      -6.706  16.547 -26.314  0.00  0.00     0.046 A 
HETATM   19  C   UNK     0      -6.199  15.377 -25.750  0.00  0.00     0.099 A 
HETATM   20  C   UNK     0      -6.399  14.152 -26.386  0.00  0.00     0.098 A 
HETATM   21  C   UNK     0      -7.108  14.098 -27.587  0.00  0.00     0.040 A 
HETATM   22  C   UNK     0      -7.615  15.268 -28.151  0.00  0.00     0.010 A 
BRANCH  19  23
HETATM   23  O   UNK     0      -5.510  15.443 -24.576  0.00  0.00    -0.358 OA
HETATM   24  H   UNK     0      -6.104  15.198 -23.846  0.00  0.00     0.218 HD
ENDBRANCH  19  23
BRANCH  20  25
HETATM   25  O   UNK     0      -5.910  13.002 -25.844  0.00  0.00    -0.358 OA
HETATM   26  H   UNK     0      -6.556  12.650 -25.208  0.00  0.00     0.218 HD
ENDBRANCH  20  25
ENDBRANCH  16  17
ENDBRANCH  15  16
ENDBRANCH   1  15
TORSDOF 10
ENDMDL
MODEL 2
REMARK VINA RESULT:      -8.4      0.831      1.856
REMARK  10 active torsions:
REMARK  status: ('A' for Active; 'I' for Inactive)
REMARK    1  A    between atoms: O_1  and  C_19 
REMARK    2  A    between atoms: O_2  and  C_20 
REMARK    3  A    between atoms: O_3  and  C_22 
REMARK    4  A    between atoms: N_4  and  C_5 
REMARK    5  A    between atoms: N_4  and  C_8 
REMARK    6  A    between atoms: C_5  and  C_6 
REMARK    7  A    between atoms: C_6  and  C_7 
REMARK    8  A    between atoms: C_7  and  C_11 
REMARK    9  A    between atoms: C_8  and  C_10 
REMARK   10  A    between atoms: C_10  and  C_12 
ROOT
HETATM    1  N   UNK     0      -7.037  20.024 -27.737  0.00  0.00     0.087 N 
HETATM    2  H   UNK     0      -7.569  20.819 -27.383  0.00  0.00     0.316 HD
ENDROOT
BRANCH   1   3
HETATM    3  C   UNK     0      -5.604  20.305 -27.643  0.00  0.00     0.216 C 
HETATM    4  C   UNK     0      -4.920  19.915 -28.953  0.00  0.00     0.042 C 
BRANCH   3   5
HETATM    5  C   UNK     0      -4.973  19.548 -26.460  0.00  0.00     0.040 C 
BRANCH   5   6
HETATM    6  C   UNK     0      -3.635  18.860 -26.770  0.00  0.00     0.040 C 
BRANCH   6   7
HETATM    7  C   UNK     0      -2.716  18.746 -25.580  0.00  0.00    -0.058 A 
HETATM    8  C   UNK     0      -1.354  18.938 -25.750  0.00  0.00     0.010 A 
HETATM    9  C   UNK     0      -0.504  18.832 -24.649  0.00  0.00     0.037 A 
HETATM   10  C   UNK     0      -1.028  18.537 -23.390  0.00  0.00     0.065 A 
HETATM   11  C   UNK     0      -2.401  18.347 -23.232  0.00  0.00     0.037 A 
HETATM   12  C   UNK     0      -3.250  18.453 -24.334  0.00  0.00     0.010 A 
BRANCH  10  13
HETATM   13  O   UNK     0      -0.198  18.434 -22.315  0.00  0.00    -0.361 OA
HETATM   14  H   UNK     0       0.407  19.196 -22.311  0.00  0.00     0.217 HD
ENDBRANCH  10  13
ENDBRANCH   6   7
ENDBRANCH   5   6
ENDBRANCH   3   5
ENDBRANCH   1   3
BRANCH   1  15
HETATM   15  C   UNK     0      -7.377  18.826 -26.985  0.00  0.00     0.274 C 
BRANCH  15  16
HETATM   16  C   UNK     0      -7.689  17.660 -27.924  0.00  0.00     0.068 C 
BRANCH  16  17
HETATM   17  C   UNK     0      -7.166  16.356 -27.378  0.00  0.00    -0.054 A 
HETATM   18  C   UNK     0      -7.542  15.165 -27.981  0.00  0.00     0.046 A 
HETATM   19  C   UNK     0      -7.057  13.958 -27.475  0.00  0.00     0.099 A 
HETATM   20  C   UNK     0      -6.204  13.957 -26.372  0.00  0.00     0.098 A 
HETATM   21  C   UNK     0      -5.833  15.163 -25.775  0.00  0.00     0.040 A 
HETATM   22  C   UNK     0      -6.317  16.368 -26.281  0.00  0.00     0.010 A 
BRANCH  19  23
HETATM   23  O   UNK     0      -7.426  12.787 -28.067  0.00  0.00    -0.358 OA
HETATM   24  H   UNK     0      -7.705  12.159 -27.380  0.00  0.00     0.218 HD
ENDBRANCH  19  23
BRANCH  20  25
HETATM   25  O   UNK     0      -5.724  12.785 -25.869  0.00  0.00    -0.358 OA
HETATM   26  H   UNK     0      -5.265  12.965 -25.030  0.00  0.00     0.218 HD
ENDBRANCH  20  25
ENDBRANCH  16  17
ENDBRANCH  15  16
ENDBRANCH   1  15
TORSDOF 10
ENDMDL
MODEL 3
REMARK VINA RESULT:      -8.2      2.516      3.201
REMARK  10 active torsions:
REMARK  status: ('A' for Active; 'I' for Inactive)
REMARK    1  A    between atoms: O_1  and  C_19 
REMARK    2  A    between atoms: O_2  and  C_20 
REMARK    3  A    between atoms: O_3  and  C_22 
REMARK    4  A    between atoms: N_4  and  C_5 
REMARK    5  A    between atoms: N_4  and  C_8 
REMARK    6  A    between atoms: C_5  and  C_6 
REMARK    7  A    between atoms: C_6  and  C_7 
REMARK    8  A    between atoms: C_7  and  C_11 
REMARK    9  A    between atoms: C_8  and  C_10 
REMARK   10  A    between atoms: C_10  and  C_12 
ROOT
HETATM    1  N   UNK     0      -4.191  21.172 -29.513  0.00  0.00     0.087 N 
HETATM    2  H   UNK     0      -3.542  21.902 -29.805  0.00  0.00     0.316 HD
ENDROOT
BRANCH   1   3
HETATM    3  C   UNK     0      -3.526  20.259 -28.583  0.00  0.00     0.216 C 
HETATM    4  C   UNK     0      -3.834  18.815 -28.977  0.00  0.00     0.042 C 
BRANCH   3   5
HETATM    5  C   UNK     0      -3.973  20.529 -27.135  0.00  0.00     0.040 C 
BRANCH   5   6
HETATM    6  C   UNK     0      -4.195  19.273 -26.280  0.00  0.00     0.040 C 
BRANCH   6   7
HETATM    7  C   UNK     0      -3.126  19.046 -25.240  0.00  0.00    -0.058 A 
HETATM    8  C   UNK     0      -3.456  18.413 -24.052  0.00  0.00     0.010 A 
HETATM    9  C   UNK     0      -2.469  18.204 -23.089  0.00  0.00     0.037 A 
HETATM   10  C   UNK     0      -1.162  18.630 -23.328  0.00  0.00     0.065 A 
HETATM   11  C   UNK     0      -0.843  19.266 -24.528  0.00  0.00     0.037 A 
HETATM   12  C   UNK     0      -1.832  19.475 -25.490  0.00  0.00     0.010 A 
BRANCH  10  13
HETATM   13  O   UNK     0      -0.198  18.425 -22.388  0.00  0.00    -0.361 OA
HETATM   14  H   UNK     0      -0.278  17.517 -22.048  0.00  0.00     0.217 HD
ENDBRANCH  10  13
ENDBRANCH   6   7
ENDBRANCH   5   6
ENDBRANCH   3   5
ENDBRANCH   1   3
BRANCH   1  15
HETATM   15  C   UNK     0      -5.365  21.771 -28.897  0.00  0.00     0.274 C 
BRANCH  15  16
HETATM   16  C   UNK     0      -6.650  21.236 -29.530  0.00  0.00     0.068 C 
BRANCH  16  17
HETATM   17  C   UNK     0      -7.337  20.239 -28.631  0.00  0.00    -0.054 A 
HETATM   18  C   UNK     0      -7.879  20.667 -27.429  0.00  0.00     0.046 A 
HETATM   19  C   UNK     0      -8.515  19.744 -26.597  0.00  0.00     0.099 A 
HETATM   20  C   UNK     0      -8.598  18.405 -26.977  0.00  0.00     0.098 A 
HETATM   21  C   UNK     0      -8.047  17.988 -28.190  0.00  0.00     0.040 A 
HETATM   22  C   UNK     0      -7.413  18.911 -29.021  0.00  0.00     0.010 A 
BRANCH  19  23
HETATM   23  O   UNK     0      -9.049  20.164 -25.416  0.00  0.00    -0.358 OA
HETATM   24  H   UNK     0      -9.020  21.135 -25.383  0.00  0.00     0.218 HD
ENDBRANCH  19  23
BRANCH  20  25
HETATM   25  O   UNK     0      -9.216  17.494 -26.174  0.00  0.00    -0.358 OA
HETATM   26  H   UNK     0      -8.631  17.283 -25.426  0.00  0.00     0.218 HD
ENDBRANCH  20  25
ENDBRANCH  16  17
ENDBRANCH  15  16
ENDBRANCH   1  15
TORSDOF 10
ENDMDL
