MODEL 1
REMARK VINA RESULT:      -8.1      0.000      0.000
REMARK  10 active torsions:
REMARK  status: ('A' for Active; 'I' for Inactive)
REMARK    1  A    between atoms: O_1  and  C_19 
REMARK    2  A    between atoms: O_2  and  C_20 
REMARK    3  A    between atoms: O_3  and  C_22 
REMARK    4  A    between atoms: N_4  and  C_5 
REMARK    5  A    between atoms: N_4  and  C_8 
REMARK    6  A    between atoms: C_5  and  C_6 
REMARK    7  A    between atoms: C_6  and  C_7 
REMARK    8  A    between atoms: C_7  and  C_11 
REMARK    9  A    between atoms: C_8  and  C_10 
REMARK   10  A    between atoms: C_10  and  C_12 
ROOT
HETATM    1  N   UNK     0       5.891   7.807  17.289  0.00  0.00     0.087 N 
HETATM    2  H   UNK     0       6.620   8.039  16.614  0.00  0.00     0.316 HD
ENDROOT
BRANCH   1   3
HETATM    3  C   UNK     0       5.337   9.034  17.862  0.00  0.00     0.216 C 
HETATM    4  C   UNK     0       5.847  10.241  17.075  0.00  0.00     0.042 C 
BRANCH   3   5
HETATM    5  C   UNK     0       5.713   9.164  19.349  0.00  0.00     0.040 C 
BRANCH   5   6
HETATM    6  C   UNK     0       6.205   7.867  20.009  0.00  0.00     0.040 C 
BRANCH   6   7
HETATM    7  C   UNK     0       5.412   7.461  21.226  0.00  0.00    -0.058 A 
HETATM    8  C   UNK     0       6.041   7.396  22.459  0.00  0.00     0.010 A 
HETATM    9  C   UNK     0       5.308   7.020  23.584  0.00  0.00     0.037 A 
HETATM   10  C   UNK     0       3.952   6.716  23.462  0.00  0.00     0.065 A 
HETATM   11  C   UNK     0       3.330   6.785  22.215  0.00  0.00     0.037 A 
HETATM   12  C   UNK     0       4.065   7.161  21.090  0.00  0.00     0.010 A 
BRANCH  10  13
HETATM   13  O   UNK     0       3.236   6.350  24.561  0.00  0.00    -0.361 OA
HETATM   14  H   UNK     0       2.407   5.932  24.271  0.00  0.00     0.217 HD
ENDBRANCH  10  13
ENDBRANCH   6   7
ENDBRANCH   5   6
ENDBRANCH   3   5
ENDBRANCH   1   3
BRANCH   1  15
HETATM   15  C   UNK     0       4.849   7.025  16.643  0.00  0.00     0.274 C 
BRANCH  15  16
HETATM   16  C   UNK     0       4.410   5.859  17.530  0.00  0.00     0.068 C 
BRANCH  16  17
HETATM   17  C   UNK     0       2.974   6.007  17.966  0.00  0.00    -0.054 A 
HETATM   18  C   UNK     0       2.285   7.171  17.659  0.00  0.00     0.046 A 
HETATM   19  C   UNK     0       0.956   7.307  18.062  0.00  0.00     0.099 A 
HETATM   20  C   UNK     0       0.333   6.279  18.770  0.00  0.00     0.098 A 
HETATM   21  C   UNK     0       1.039   5.114  19.073  0.00  0.00     0.040 A 
HETATM   22  C   UNK     0       2.366   4.977  18.668  0.00  0.00     0.010 A 
BRANCH  19  23
HETATM   23  O   UNK     0       0.278   8.450  17.760  0.00  0.00    -0.358 OA
HETATM   24  H   UNK     0       0.517   8.731  16.860  0.00  0.00     0.218 HD
ENDBRANCH  19  23
BRANCH  20  25
HETATM   25  O   UNK     0      -0.963   6.400  19.170  0.00  0.00    -0.358 OA
HETATM   26  H   UNK     0      -1.387   7.113  18.661  0.00  0.00     0.218 HD
ENDBRANCH  20  25
ENDBRANCH  16  17
ENDBRANCH  15  16
ENDBRANCH   1  15
TORSDOF 10
ENDMDL
MODEL 2
REMARK VINA RESULT:      -8.0      0.896      1.479
REMARK  10 active torsions:
REMARK  status: ('A' for Active; 'I' for Inactive)
REMARK    1  A    between atoms: O_1  and  C_19 
REMARK    2  A    between atoms: O_2  and  C_20 
REMARK    3  A    between atoms: O_3  and  C_22 
REMARK    4  A    between atoms: N_4  and  C_5 
REMARK    5  A    between atoms: N_4  and  C_8 
REMARK    6  A    between atoms: C_5  and  C_6 
REMARK    7  A    between atoms: C_6  and  C_7 
REMARK    8  A    between atoms: C_7  and  C_11 
REMARK    9  A    between atoms: C_8  and  C_10 
REMARK   10  A    between atoms: C_10  and  C_12 
ROOT
HETATM    1  N   UNK     0       5.405   8.242  17.509  0.00  0.00     0.087 N 
HETATM    2  H   UNK     0       4.979   8.196  18.434  0.00  0.00     0.316 HD
ENDROOT
BRANCH   1   3
HETATM    3  C   UNK     0       6.862   8.170  17.630  0.00  0.00     0.216 C 
HETATM    4  C   UNK     0       7.444   7.490  16.391  0.00  0.00     0.042 C 
BRANCH   3   5
HETATM    5  C   UNK     0       7.269   7.407  18.904  0.00  0.00     0.040 C 
BRANCH   5   6
HETATM    6  C   UNK     0       7.257   8.244  20.192  0.00  0.00     0.040 C 
BRANCH   6   7
HETATM    7  C   UNK     0       6.257   7.772  21.217  0.00  0.00    -0.058 A 
HETATM    8  C   UNK     0       4.933   7.595  20.846  0.00  0.00     0.010 A 
HETATM    9  C   UNK     0       4.008   7.159  21.794  0.00  0.00     0.037 A 
HETATM   10  C   UNK     0       4.418   6.904  23.103  0.00  0.00     0.065 A 
HETATM   11  C   UNK     0       5.754   7.086  23.464  0.00  0.00     0.037 A 
HETATM   12  C   UNK     0       6.679   7.522  22.514  0.00  0.00     0.010 A 
BRANCH  10  13
HETATM   13  O   UNK     0       3.515   6.478  24.028  0.00  0.00    -0.361 OA
HETATM   14  H   UNK     0       2.917   7.213  24.246  0.00  0.00     0.217 HD
ENDBRANCH  10  13
ENDBRANCH   6   7
ENDBRANCH   5   6
ENDBRANCH   3   5
ENDBRANCH   1   3
BRANCH   1  15
HETATM   15  C   UNK     0       4.904   7.159  16.678  0.00  0.00     0.274 C 
BRANCH  15  16
HETATM   16  C   UNK     0       4.468   5.969  17.534  0.00  0.00     0.068 C 
BRANCH  16  17
HETATM   17  C   UNK     0       3.028   6.093  17.962  0.00  0.00    -0.054 A 
HETATM   18  C   UNK     0       2.324   7.249  17.660  0.00  0.00     0.046 A 
HETATM   19  C   UNK     0       0.992   7.364  18.058  0.00  0.00     0.099 A 
HETATM   20  C   UNK     0       0.380   6.322  18.753  0.00  0.00     0.098 A 
HETATM   21  C   UNK     0       1.099   5.164  19.050  0.00  0.00     0.040 A 
HETATM   22  C   UNK     0       2.431   5.049  18.652  0.00  0.00     0.010 A 
BRANCH  19  23
HETATM   23  O   UNK     0       0.300   8.500  17.761  0.00  0.00    -0.358 OA
HETATM   24  H   UNK     0       0.799   9.269  18.084  0.00  0.00     0.218 HD
ENDBRANCH  19  23
BRANCH  20  25
HETATM   25  O   UNK     0      -0.921   6.421  19.146  0.00  0.00    -0.358 OA
HETATM   26  H   UNK     0      -0.975   7.010  19.919  0.00  0.00     0.218 HD
ENDBRANCH  20  25
ENDBRANCH  16  17
ENDBRANCH  15  16
ENDBRANCH   1  15
TORSDOF 10
ENDMDL
MODEL 3
REMARK VINA RESULT:      -8.0      1.442      5.137
REMARK  10 active torsions:
REMARK  status: ('A' for Active; 'I' for Inactive)
REMARK    1  A    between atoms: O_1  and  C_19 
REMARK    2  A    between atoms: O_2  and  C_20 
REMARK    3  A    between atoms: O_3  and  C_22 
REMARK    4  A    between atoms: N_4  and  C_5 
REMARK    5  A    between atoms: N_4  and  C_8 
REMARK    6  A    between atoms: C_5  and  C_6 
REMARK    7  A    between atoms: C_6  and  C_7 
REMARK    8  A    between atoms: C_7  and  C_11 
REMARK    9  A    between atoms: C_8  and  C_10 
REMARK   10  A    between atoms: C_10  and  C_12 
ROOT
HETATM    1  N   UNK     0       7.173   6.383  17.588  0.00  0.00     0.087 N 
HETATM    2  H   UNK     0       6.601   5.903  18.284  0.00  0.00     0.316 HD
ENDROOT
BRANCH   1   3
HETATM    3  C   UNK     0       6.470   6.415  16.306  0.00  0.00     0.216 C 
HETATM    4  C   UNK     0       6.727   7.755  15.616  0.00  0.00     0.042 C 
BRANCH   3   5
HETATM    5  C   UNK     0       4.959   6.192  16.501  0.00  0.00     0.040 C 
BRANCH   5   6
HETATM    6  C   UNK     0       4.555   5.671  17.889  0.00  0.00     0.040 C 
BRANCH   6   7
HETATM    7  C   UNK     0       3.098   5.876  18.217  0.00  0.00    -0.058 A 
HETATM    8  C   UNK     0       2.473   7.053  17.836  0.00  0.00     0.010 A 
HETATM    9  C   UNK     0       1.125   7.244  18.141  0.00  0.00     0.037 A 
HETATM   10  C   UNK     0       0.418   6.252  18.822  0.00  0.00     0.065 A 
HETATM   11  C   UNK     0       1.059   5.072  19.200  0.00  0.00     0.037 A 
HETATM   12  C   UNK     0       2.407   4.883  18.895  0.00  0.00     0.010 A 
BRANCH  10  13
HETATM   13  O   UNK     0      -0.898   6.437  19.118  0.00  0.00    -0.361 OA
HETATM   14  H   UNK     0      -1.187   5.732  19.723  0.00  0.00     0.217 HD
ENDBRANCH  10  13
ENDBRANCH   6   7
ENDBRANCH   5   6
ENDBRANCH   3   5
ENDBRANCH   1   3
BRANCH   1  15
HETATM   15  C   UNK     0       7.476   7.731  18.043  0.00  0.00     0.274 C 
BRANCH  15  16
HETATM   16  C   UNK     0       7.893   7.732  19.515  0.00  0.00     0.068 C 
BRANCH  16  17
HETATM   17  C   UNK     0       6.697   7.841  20.428  0.00  0.00    -0.054 A 
HETATM   18  C   UNK     0       6.804   7.418  21.744  0.00  0.00     0.046 A 
HETATM   19  C   UNK     0       5.698   7.519  22.588  0.00  0.00     0.099 A 
HETATM   20  C   UNK     0       4.498   8.039  22.105  0.00  0.00     0.098 A 
HETATM   21  C   UNK     0       4.404   8.461  20.778  0.00  0.00     0.040 A 
HETATM   22  C   UNK     0       5.510   8.361  19.935  0.00  0.00     0.010 A 
BRANCH  19  23
HETATM   23  O   UNK     0       5.803   7.104  23.882  0.00  0.00    -0.358 OA
HETATM   24  H   UNK     0       4.918   7.098  24.285  0.00  0.00     0.218 HD
ENDBRANCH  19  23
BRANCH  20  25
HETATM   25  O   UNK     0       3.410   8.143  22.919  0.00  0.00    -0.358 OA
HETATM   26  H   UNK     0       3.029   7.258  23.053  0.00  0.00     0.218 HD
ENDBRANCH  20  25
ENDBRANCH  16  17
ENDBRANCH  15  16
ENDBRANCH   1  15
TORSDOF 10
ENDMDL
