MODEL 1
REMARK VINA RESULT:      -8.2      0.000      0.000
REMARK  10 active torsions:
REMARK  status: ('A' for Active; 'I' for Inactive)
REMARK    1  A    between atoms: O_1  and  C_19 
REMARK    2  A    between atoms: O_2  and  C_20 
REMARK    3  A    between atoms: O_3  and  C_22 
REMARK    4  A    between atoms: N_4  and  C_5 
REMARK    5  A    between atoms: N_4  and  C_8 
REMARK    6  A    between atoms: C_5  and  C_6 
REMARK    7  A    between atoms: C_6  and  C_7 
REMARK    8  A    between atoms: C_7  and  C_11 
REMARK    9  A    between atoms: C_8  and  C_10 
REMARK   10  A    between atoms: C_10  and  C_12 
ROOT
HETATM    1  N   UNK     0      32.699  16.740  -1.239  0.00  0.00     0.087 N 
HETATM    2  H   UNK     0      33.540  16.425  -1.722  0.00  0.00     0.316 HD
ENDROOT
BRANCH   1   3
HETATM    3  C   UNK     0      31.671  15.702  -1.306  0.00  0.00     0.216 C 
HETATM    4  C   UNK     0      30.728  15.991  -2.474  0.00  0.00     0.042 C 
BRANCH   3   5
HETATM    5  C   UNK     0      30.883  15.623   0.015  0.00  0.00     0.040 C 
BRANCH   5   6
HETATM    6  C   UNK     0      29.515  16.320  -0.004  0.00  0.00     0.040 C 
BRANCH   6   7
HETATM    7  C   UNK     0      28.501  15.701   0.926  0.00  0.00    -0.058 A 
HETATM    8  C   UNK     0      28.821  15.530   2.264  0.00  0.00     0.010 A 
HETATM    9  C   UNK     0      27.884  14.957   3.124  0.00  0.00     0.037 A 
HETATM   10  C   UNK     0      26.638  14.564   2.635  0.00  0.00     0.065 A 
HETATM   11  C   UNK     0      26.329  14.742   1.286  0.00  0.00     0.037 A 
HETATM   12  C   UNK     0      27.267  15.315   0.427  0.00  0.00     0.010 A 
BRANCH  10  13
HETATM   13  O   UNK     0      25.723  14.005   3.476  0.00  0.00    -0.361 OA
HETATM   14  H   UNK     0      25.125  13.440   2.958  0.00  0.00     0.217 HD
ENDBRANCH  10  13
ENDBRANCH   6   7
ENDBRANCH   5   6
ENDBRANCH   3   5
ENDBRANCH   1   3
BRANCH   1  15
HETATM   15  C   UNK     0      33.015  17.064   0.143  0.00  0.00     0.274 C 
BRANCH  15  16
HETATM   16  C   UNK     0      33.216  18.570   0.320  0.00  0.00     0.068 C 
BRANCH  16  17
HETATM   17  C   UNK     0      32.646  19.054   1.630  0.00  0.00    -0.054 A 
HETATM   18  C   UNK     0      33.460  19.745   2.514  0.00  0.00     0.046 A 
HETATM   19  C   UNK     0      32.932  20.192   3.726  0.00  0.00     0.099 A 
HETATM   20  C   UNK     0      31.597  19.942   4.039  0.00  0.00     0.098 A 
HETATM   21  C   UNK     0      30.788  19.245   3.139  0.00  0.00     0.040 A 
HETATM   22  C   UNK     0      31.316  18.799   1.929  0.00  0.00     0.010 A 
BRANCH  19  23
HETATM   23  O   UNK     0      33.732  20.872   4.595  0.00  0.00    -0.358 OA
HETATM   24  H   UNK     0      34.180  21.591   4.117  0.00  0.00     0.218 HD
ENDBRANCH  19  23
BRANCH  20  25
HETATM   25  O   UNK     0      31.069  20.373   5.218  0.00  0.00    -0.358 OA
HETATM   26  H   UNK     0      31.034  19.627   5.842  0.00  0.00     0.218 HD
ENDBRANCH  20  25
ENDBRANCH  16  17
ENDBRANCH  15  16
ENDBRANCH   1  15
TORSDOF 10
ENDMDL
MODEL 2
REMARK VINA RESULT:      -8.1      1.453      6.498
REMARK  10 active torsions:
REMARK  status: ('A' for Active; 'I' for Inactive)
REMARK    1  A    between atoms: O_1  and  C_19 
REMARK    2  A    between atoms: O_2  and  C_20 
REMARK    3  A    between atoms: O_3  and  C_22 
REMARK    4  A    between atoms: N_4  and  C_5 
REMARK    5  A    between atoms: N_4  and  C_8 
REMARK    6  A    between atoms: C_5  and  C_6 
REMARK    7  A    between atoms: C_6  and  C_7 
REMARK    8  A    between atoms: C_7  and  C_11 
REMARK    9  A    between atoms: C_8  and  C_10 
REMARK   10  A    between atoms: C_10  and  C_12 
ROOT
HETATM    1  N   UNK     0      28.993  16.477  -1.090  0.00  0.00     0.087 N 
HETATM    2  H   UNK     0      28.585  17.155  -0.445  0.00  0.00     0.316 HD
ENDROOT
BRANCH   1   3
HETATM    3  C   UNK     0      30.427  16.348  -0.831  0.00  0.00     0.216 C 
HETATM    4  C   UNK     0      30.862  14.903  -1.076  0.00  0.00     0.042 C 
BRANCH   3   5
HETATM    5  C   UNK     0      30.766  16.776   0.609  0.00  0.00     0.040 C 
BRANCH   5   6
HETATM    6  C   UNK     0      30.274  18.177   1.002  0.00  0.00     0.040 C 
BRANCH   6   7
HETATM    7  C   UNK     0      31.180  18.892   1.973  0.00  0.00    -0.058 A 
HETATM    8  C   UNK     0      30.705  19.217   3.234  0.00  0.00     0.010 A 
HETATM    9  C   UNK     0      31.542  19.880   4.132  0.00  0.00     0.037 A 
HETATM   10  C   UNK     0      32.846  20.207   3.757  0.00  0.00     0.065 A 
HETATM   11  C   UNK     0      33.312  19.873   2.485  0.00  0.00     0.037 A 
HETATM   12  C   UNK     0      32.473  19.211   1.588  0.00  0.00     0.010 A 
BRANCH  10  13
HETATM   13  O   UNK     0      33.664  20.852   4.634  0.00  0.00    -0.361 OA
HETATM   14  H   UNK     0      34.035  21.638   4.198  0.00  0.00     0.217 HD
ENDBRANCH  10  13
ENDBRANCH   6   7
ENDBRANCH   5   6
ENDBRANCH   3   5
ENDBRANCH   1   3
BRANCH   1  15
HETATM   15  C   UNK     0      28.326  15.193  -0.944  0.00  0.00     0.274 C 
BRANCH  15  16
HETATM   16  C   UNK     0      26.937  15.364  -0.329  0.00  0.00     0.068 C 
BRANCH  16  17
HETATM   17  C   UNK     0      26.898  14.869   1.095  0.00  0.00    -0.054 A 
HETATM   18  C   UNK     0      27.635  15.529   2.067  0.00  0.00     0.046 A 
HETATM   19  C   UNK     0      27.599  15.071   3.384  0.00  0.00     0.099 A 
HETATM   20  C   UNK     0      26.828  13.957   3.713  0.00  0.00     0.098 A 
HETATM   21  C   UNK     0      26.092  13.301   2.726  0.00  0.00     0.040 A 
HETATM   22  C   UNK     0      26.127  13.760   1.410  0.00  0.00     0.010 A 
BRANCH  19  23
HETATM   23  O   UNK     0      28.322  15.720   4.339  0.00  0.00    -0.358 OA
HETATM   24  H   UNK     0      27.876  15.619   5.197  0.00  0.00     0.218 HD
ENDBRANCH  19  23
BRANCH  20  25
HETATM   25  O   UNK     0      26.785  13.499   4.996  0.00  0.00    -0.358 OA
HETATM   26  H   UNK     0      25.979  13.834   5.425  0.00  0.00     0.218 HD
ENDBRANCH  20  25
ENDBRANCH  16  17
ENDBRANCH  15  16
ENDBRANCH   1  15
TORSDOF 10
ENDMDL
MODEL 3
REMARK VINA RESULT:      -7.8      1.205      5.917
REMARK  10 active torsions:
REMARK  status: ('A' for Active; 'I' for Inactive)
REMARK    1  A    between atoms: O_1  and  C_19 
REMARK    2  A    between atoms: O_2  and  C_20 
REMARK    3  A    between atoms: O_3  and  C_22 
REMARK    4  A    between atoms: N_4  and  C_5 
REMARK    5  A    between atoms: N_4  and  C_8 
REMARK    6  A    between atoms: C_5  and  C_6 
REMARK    7  A    between atoms: C_6  and  C_7 
REMARK    8  A    between atoms: C_7  and  C_11 
REMARK    9  A    between atoms: C_8  and  C_10 
REMARK   10  A    between atoms: C_10  and  C_12 
ROOT
HETATM    1  N   UNK     0      32.332  16.029  -2.034  0.00  0.00     0.087 N 
HETATM    2  H   UNK     0      32.003  16.857  -2.530  0.00  0.00     0.316 HD
ENDROOT
BRANCH   1   3
HETATM    3  C   UNK     0      33.033  16.428  -0.813  0.00  0.00     0.216 C 
HETATM    4  C   UNK     0      32.836  15.359   0.261  0.00  0.00     0.042 C 
BRANCH   3   5
HETATM    5  C   UNK     0      32.528  17.794  -0.312  0.00  0.00     0.040 C 
BRANCH   5   6
HETATM    6  C   UNK     0      33.465  18.510   0.671  0.00  0.00     0.040 C 
BRANCH   6   7
HETATM    7  C   UNK     0      32.766  19.067   1.886  0.00  0.00    -0.058 A 
HETATM    8  C   UNK     0      33.466  19.884   2.760  0.00  0.00     0.010 A 
HETATM    9  C   UNK     0      32.820  20.399   3.884  0.00  0.00     0.037 A 
HETATM   10  C   UNK     0      31.479  20.090   4.119  0.00  0.00     0.065 A 
HETATM   11  C   UNK     0      30.786  19.266   3.232  0.00  0.00     0.037 A 
HETATM   12  C   UNK     0      31.434  18.752   2.108  0.00  0.00     0.010 A 
BRANCH  10  13
HETATM   13  O   UNK     0      30.849  20.593   5.216  0.00  0.00    -0.361 OA
HETATM   14  H   UNK     0      30.028  20.092   5.364  0.00  0.00     0.217 HD
ENDBRANCH  10  13
ENDBRANCH   6   7
ENDBRANCH   5   6
ENDBRANCH   3   5
ENDBRANCH   1   3
BRANCH   1  15
HETATM   15  C   UNK     0      31.208  15.161  -1.721  0.00  0.00     0.274 C 
BRANCH  15  16
HETATM   16  C   UNK     0      29.879  15.851  -2.032  0.00  0.00     0.068 C 
BRANCH  16  17
HETATM   17  C   UNK     0      28.885  15.666  -0.913  0.00  0.00    -0.054 A 
HETATM   18  C   UNK     0      29.284  15.884   0.397  0.00  0.00     0.046 A 
HETATM   19  C   UNK     0      28.363  15.713   1.431  0.00  0.00     0.099 A 
HETATM   20  C   UNK     0      27.056  15.323   1.143  0.00  0.00     0.098 A 
HETATM   21  C   UNK     0      26.668  15.106  -0.180  0.00  0.00     0.040 A 
HETATM   22  C   UNK     0      27.587  15.279  -1.213  0.00  0.00     0.010 A 
BRANCH  19  23
HETATM   23  O   UNK     0      28.755  15.928   2.718  0.00  0.00    -0.358 OA
HETATM   24  H   UNK     0      28.074  16.454   3.172  0.00  0.00     0.218 HD
ENDBRANCH  19  23
BRANCH  20  25
HETATM   25  O   UNK     0      26.148  15.152   2.144  0.00  0.00    -0.358 OA
HETATM   26  H   UNK     0      26.117  14.211   2.387  0.00  0.00     0.218 HD
ENDBRANCH  20  25
ENDBRANCH  16  17
ENDBRANCH  15  16
ENDBRANCH   1  15
TORSDOF 10
ENDMDL
