MODEL 1
REMARK VINA RESULT:      -7.0      0.000      0.000
REMARK  10 active torsions:
REMARK  status: ('A' for Active; 'I' for Inactive)
REMARK    1  A    between atoms: O_1  and  C_19 
REMARK    2  A    between atoms: O_2  and  C_20 
REMARK    3  A    between atoms: O_3  and  C_22 
REMARK    4  A    between atoms: N_4  and  C_5 
REMARK    5  A    between atoms: N_4  and  C_8 
REMARK    6  A    between atoms: C_5  and  C_6 
REMARK    7  A    between atoms: C_6  and  C_7 
REMARK    8  A    between atoms: C_7  and  C_11 
REMARK    9  A    between atoms: C_8  and  C_10 
REMARK   10  A    between atoms: C_10  and  C_12 
ROOT
HETATM    1  N   UNK     0      16.120  58.728  24.969  0.00  0.00     0.087 N 
HETATM    2  H   UNK     0      15.123  58.942  24.939  0.00  0.00     0.316 HD
ENDROOT
BRANCH   1   3
HETATM    3  C   UNK     0      16.812  59.705  25.810  0.00  0.00     0.216 C 
HETATM    4  C   UNK     0      15.795  60.432  26.690  0.00  0.00     0.042 C 
BRANCH   3   5
HETATM    5  C   UNK     0      17.596  60.713  24.950  0.00  0.00     0.040 C 
BRANCH   5   6
HETATM    6  C   UNK     0      17.950  60.222  23.538  0.00  0.00     0.040 C 
BRANCH   6   7
HETATM    7  C   UNK     0      19.258  59.474  23.462  0.00  0.00    -0.058 A 
HETATM    8  C   UNK     0      20.222  59.687  24.435  0.00  0.00     0.010 A 
HETATM    9  C   UNK     0      21.432  58.996  24.364  0.00  0.00     0.037 A 
HETATM   10  C   UNK     0      21.661  58.098  23.321  0.00  0.00     0.065 A 
HETATM   11  C   UNK     0      20.682  57.893  22.348  0.00  0.00     0.037 A 
HETATM   12  C   UNK     0      19.473  58.585  22.420  0.00  0.00     0.010 A 
BRANCH  10  13
HETATM   13  O   UNK     0      22.842  57.423  23.253  0.00  0.00    -0.361 OA
HETATM   14  H   UNK     0      23.512  57.911  23.761  0.00  0.00     0.217 HD
ENDBRANCH  10  13
ENDBRANCH   6   7
ENDBRANCH   5   6
ENDBRANCH   3   5
ENDBRANCH   1   3
BRANCH   1  15
HETATM   15  C   UNK     0      16.321  57.380  25.475  0.00  0.00     0.274 C 
BRANCH  15  16
HETATM   16  C   UNK     0      17.719  57.222  26.075  0.00  0.00     0.068 C 
BRANCH  16  17
HETATM   17  C   UNK     0      18.562  56.266  25.271  0.00  0.00    -0.054 A 
HETATM   18  C   UNK     0      18.078  55.778  24.066  0.00  0.00     0.046 A 
HETATM   19  C   UNK     0      18.859  54.893  23.323  0.00  0.00     0.099 A 
HETATM   20  C   UNK     0      20.113  54.505  23.793  0.00  0.00     0.098 A 
HETATM   21  C   UNK     0      20.588  55.003  25.007  0.00  0.00     0.040 A 
HETATM   22  C   UNK     0      19.808  55.889  25.749  0.00  0.00     0.010 A 
BRANCH  19  23
HETATM   23  O   UNK     0      18.384  54.413  22.138  0.00  0.00    -0.358 OA
HETATM   24  H   UNK     0      17.621  54.950  21.863  0.00  0.00     0.218 HD
ENDBRANCH  19  23
BRANCH  20  25
HETATM   25  O   UNK     0      20.885  53.641  23.076  0.00  0.00    -0.358 OA
HETATM   26  H   UNK     0      20.386  52.819  22.927  0.00  0.00     0.218 HD
ENDBRANCH  20  25
ENDBRANCH  16  17
ENDBRANCH  15  16
ENDBRANCH   1  15
TORSDOF 10
ENDMDL
MODEL 2
REMARK VINA RESULT:      -6.7      1.086      3.851
REMARK  10 active torsions:
REMARK  status: ('A' for Active; 'I' for Inactive)
REMARK    1  A    between atoms: O_1  and  C_19 
REMARK    2  A    between atoms: O_2  and  C_20 
REMARK    3  A    between atoms: O_3  and  C_22 
REMARK    4  A    between atoms: N_4  and  C_5 
REMARK    5  A    between atoms: N_4  and  C_8 
REMARK    6  A    between atoms: C_5  and  C_6 
REMARK    7  A    between atoms: C_6  and  C_7 
REMARK    8  A    between atoms: C_7  and  C_11 
REMARK    9  A    between atoms: C_8  and  C_10 
REMARK   10  A    between atoms: C_10  and  C_12 
ROOT
HETATM    1  N   UNK     0      16.941  59.534  26.068  0.00  0.00     0.087 N 
HETATM    2  H   UNK     0      16.601  58.914  25.333  0.00  0.00     0.316 HD
ENDROOT
BRANCH   1   3
HETATM    3  C   UNK     0      17.401  58.744  27.211  0.00  0.00     0.216 C 
HETATM    4  C   UNK     0      18.834  59.143  27.563  0.00  0.00     0.042 C 
BRANCH   3   5
HETATM    5  C   UNK     0      17.322  57.238  26.904  0.00  0.00     0.040 C 
BRANCH   5   6
HETATM    6  C   UNK     0      17.069  56.889  25.430  0.00  0.00     0.040 C 
BRANCH   6   7
HETATM    7  C   UNK     0      18.131  56.010  24.818  0.00  0.00    -0.058 A 
HETATM    8  C   UNK     0      17.858  55.328  23.643  0.00  0.00     0.010 A 
HETATM    9  C   UNK     0      18.840  54.514  23.078  0.00  0.00     0.037 A 
HETATM   10  C   UNK     0      20.085  54.394  23.696  0.00  0.00     0.065 A 
HETATM   11  C   UNK     0      20.347  55.085  24.879  0.00  0.00     0.037 A 
HETATM   12  C   UNK     0      19.364  55.899  25.443  0.00  0.00     0.010 A 
BRANCH  10  13
HETATM   13  O   UNK     0      21.044  53.600  23.144  0.00  0.00    -0.361 OA
HETATM   14  H   UNK     0      20.814  53.430  22.214  0.00  0.00     0.217 HD
ENDBRANCH  10  13
ENDBRANCH   6   7
ENDBRANCH   5   6
ENDBRANCH   3   5
ENDBRANCH   1   3
BRANCH   1  15
HETATM   15  C   UNK     0      18.015  60.368  25.553  0.00  0.00     0.274 C 
BRANCH  15  16
HETATM   16  C   UNK     0      18.198  60.160  24.049  0.00  0.00     0.068 C 
BRANCH  16  17
HETATM   17  C   UNK     0      19.478  59.423  23.744  0.00  0.00    -0.054 A 
HETATM   18  C   UNK     0      19.512  58.524  22.689  0.00  0.00     0.046 A 
HETATM   19  C   UNK     0      20.697  57.843  22.408  0.00  0.00     0.099 A 
HETATM   20  C   UNK     0      21.832  58.067  23.186  0.00  0.00     0.098 A 
HETATM   21  C   UNK     0      21.783  58.975  24.245  0.00  0.00     0.040 A 
HETATM   22  C   UNK     0      20.600  59.656  24.525  0.00  0.00     0.010 A 
BRANCH  19  23
HETATM   23  O   UNK     0      20.731  56.959  21.371  0.00  0.00    -0.358 OA
HETATM   24  H   UNK     0      20.252  56.153  21.626  0.00  0.00     0.218 HD
ENDBRANCH  19  23
BRANCH  20  25
HETATM   25  O   UNK     0      22.994  57.408  22.922  0.00  0.00    -0.358 OA
HETATM   26  H   UNK     0      23.276  56.930  23.720  0.00  0.00     0.218 HD
ENDBRANCH  20  25
ENDBRANCH  16  17
ENDBRANCH  15  16
ENDBRANCH   1  15
TORSDOF 10
ENDMDL
MODEL 3
REMARK VINA RESULT:      -6.6      1.916      3.419
REMARK  10 active torsions:
REMARK  status: ('A' for Active; 'I' for Inactive)
REMARK    1  A    between atoms: O_1  and  C_19 
REMARK    2  A    between atoms: O_2  and  C_20 
REMARK    3  A    between atoms: O_3  and  C_22 
REMARK    4  A    between atoms: N_4  and  C_5 
REMARK    5  A    between atoms: N_4  and  C_8 
REMARK    6  A    between atoms: C_5  and  C_6 
REMARK    7  A    between atoms: C_6  and  C_7 
REMARK    8  A    between atoms: C_7  and  C_11 
REMARK    9  A    between atoms: C_8  and  C_10 
REMARK   10  A    between atoms: C_10  and  C_12 
ROOT
HETATM    1  N   UNK     0      18.284  59.759  25.194  0.00  0.00     0.087 N 
HETATM    2  H   UNK     0      18.816  59.381  25.978  0.00  0.00     0.316 HD
ENDROOT
BRANCH   1   3
HETATM    3  C   UNK     0      19.163  59.936  24.037  0.00  0.00     0.216 C 
HETATM    4  C   UNK     0      18.490  59.357  22.793  0.00  0.00     0.042 C 
BRANCH   3   5
HETATM    5  C   UNK     0      20.526  59.261  24.276  0.00  0.00     0.040 C 
BRANCH   5   6
HETATM    6  C   UNK     0      20.825  58.063  23.362  0.00  0.00     0.040 C 
BRANCH   6   7
HETATM    7  C   UNK     0      20.607  56.724  24.020  0.00  0.00    -0.058 A 
HETATM    8  C   UNK     0      20.518  56.650  25.401  0.00  0.00     0.010 A 
HETATM    9  C   UNK     0      20.318  55.411  26.010  0.00  0.00     0.037 A 
HETATM   10  C   UNK     0      20.207  54.261  25.229  0.00  0.00     0.065 A 
HETATM   11  C   UNK     0      20.299  54.349  23.839  0.00  0.00     0.037 A 
HETATM   12  C   UNK     0      20.500  55.588  23.231  0.00  0.00     0.010 A 
BRANCH  10  13
HETATM   13  O   UNK     0      20.011  53.051  25.823  0.00  0.00    -0.361 OA
HETATM   14  H   UNK     0      20.361  53.086  26.729  0.00  0.00     0.217 HD
ENDBRANCH  10  13
ENDBRANCH   6   7
ENDBRANCH   5   6
ENDBRANCH   3   5
ENDBRANCH   1   3
BRANCH   1  15
HETATM   15  C   UNK     0      17.180  58.869  24.871  0.00  0.00     0.274 C 
BRANCH  15  16
HETATM   16  C   UNK     0      16.983  57.820  25.966  0.00  0.00     0.068 C 
BRANCH  16  17
HETATM   17  C   UNK     0      16.844  56.435  25.387  0.00  0.00    -0.054 A 
HETATM   18  C   UNK     0      16.927  56.259  24.014  0.00  0.00     0.046 A 
HETATM   19  C   UNK     0      16.798  54.977  23.479  0.00  0.00     0.099 A 
HETATM   20  C   UNK     0      16.587  53.887  24.322  0.00  0.00     0.098 A 
HETATM   21  C   UNK     0      16.506  54.079  25.702  0.00  0.00     0.040 A 
HETATM   22  C   UNK     0      16.636  55.360  26.237  0.00  0.00     0.010 A 
BRANCH  19  23
HETATM   23  O   UNK     0      16.879  54.804  22.129  0.00  0.00    -0.358 OA
HETATM   24  H   UNK     0      15.986  54.657  21.774  0.00  0.00     0.218 HD
ENDBRANCH  19  23
BRANCH  20  25
HETATM   25  O   UNK     0      16.459  52.631  23.812  0.00  0.00    -0.358 OA
HETATM   26  H   UNK     0      15.737  52.172  24.275  0.00  0.00     0.218 HD
ENDBRANCH  20  25
ENDBRANCH  16  17
ENDBRANCH  15  16
ENDBRANCH   1  15
TORSDOF 10
ENDMDL
