MODEL 1
REMARK VINA RESULT:      -8.1      0.000      0.000
REMARK  10 active torsions:
REMARK  status: ('A' for Active; 'I' for Inactive)
REMARK    1  A    between atoms: O_1  and  C_19 
REMARK    2  A    between atoms: O_2  and  C_20 
REMARK    3  A    between atoms: O_3  and  C_22 
REMARK    4  A    between atoms: N_4  and  C_5 
REMARK    5  A    between atoms: N_4  and  C_8 
REMARK    6  A    between atoms: C_5  and  C_6 
REMARK    7  A    between atoms: C_6  and  C_7 
REMARK    8  A    between atoms: C_7  and  C_11 
REMARK    9  A    between atoms: C_8  and  C_10 
REMARK   10  A    between atoms: C_10  and  C_12 
ROOT
HETATM    1  N   UNK     0      29.735  34.040  48.399  0.00  0.00     0.087 N 
HETATM    2  H   UNK     0      29.030  33.409  48.017  0.00  0.00     0.316 HD
ENDROOT
BRANCH   1   3
HETATM    3  C   UNK     0      29.438  34.325  49.803  0.00  0.00     0.216 C 
HETATM    4  C   UNK     0      28.490  35.521  49.892  0.00  0.00     0.042 C 
BRANCH   3   5
HETATM    5  C   UNK     0      30.731  34.603  50.592  0.00  0.00     0.040 C 
BRANCH   5   6
HETATM    6  C   UNK     0      31.075  36.089  50.769  0.00  0.00     0.040 C 
BRANCH   6   7
HETATM    7  C   UNK     0      32.055  36.360  51.883  0.00  0.00    -0.058 A 
HETATM    8  C   UNK     0      33.392  36.043  51.706  0.00  0.00     0.010 A 
HETATM    9  C   UNK     0      34.298  36.293  52.737  0.00  0.00     0.037 A 
HETATM   10  C   UNK     0      33.855  36.859  53.932  0.00  0.00     0.065 A 
HETATM   11  C   UNK     0      32.505  37.174  54.098  0.00  0.00     0.037 A 
HETATM   12  C   UNK     0      31.600  36.923  53.066  0.00  0.00     0.010 A 
BRANCH  10  13
HETATM   13  O   UNK     0      34.740  37.104  54.938  0.00  0.00    -0.361 OA
HETATM   14  H   UNK     0      34.350  37.752  55.549  0.00  0.00     0.217 HD
ENDBRANCH  10  13
ENDBRANCH   6   7
ENDBRANCH   5   6
ENDBRANCH   3   5
ENDBRANCH   1   3
BRANCH   1  15
HETATM   15  C   UNK     0      31.056  33.447  48.262  0.00  0.00     0.274 C 
BRANCH  15  16
HETATM   16  C   UNK     0      31.769  33.980  47.018  0.00  0.00     0.068 C 
BRANCH  16  17
HETATM   17  C   UNK     0      33.268  33.899  47.164  0.00  0.00    -0.054 A 
HETATM   18  C   UNK     0      33.840  34.054  48.417  0.00  0.00     0.046 A 
HETATM   19  C   UNK     0      35.227  33.980  48.551  0.00  0.00     0.099 A 
HETATM   20  C   UNK     0      36.025  33.753  47.430  0.00  0.00     0.098 A 
HETATM   21  C   UNK     0      35.435  33.600  46.174  0.00  0.00     0.040 A 
HETATM   22  C   UNK     0      34.050  33.673  46.041  0.00  0.00     0.010 A 
BRANCH  19  23
HETATM   23  O   UNK     0      35.790  34.131  49.783  0.00  0.00    -0.358 OA
HETATM   24  H   UNK     0      36.032  35.064  49.908  0.00  0.00     0.218 HD
ENDBRANCH  19  23
BRANCH  20  25
HETATM   25  O   UNK     0      37.380  33.679  47.547  0.00  0.00    -0.358 OA
HETATM   26  H   UNK     0      37.789  34.200  46.835  0.00  0.00     0.218 HD
ENDBRANCH  20  25
ENDBRANCH  16  17
ENDBRANCH  15  16
ENDBRANCH   1  15
TORSDOF 10
ENDMDL
MODEL 2
REMARK VINA RESULT:      -7.8     20.108     21.712
REMARK  10 active torsions:
REMARK  status: ('A' for Active; 'I' for Inactive)
REMARK    1  A    between atoms: O_1  and  C_19 
REMARK    2  A    between atoms: O_2  and  C_20 
REMARK    3  A    between atoms: O_3  and  C_22 
REMARK    4  A    between atoms: N_4  and  C_5 
REMARK    5  A    between atoms: N_4  and  C_8 
REMARK    6  A    between atoms: C_5  and  C_6 
REMARK    7  A    between atoms: C_6  and  C_7 
REMARK    8  A    between atoms: C_7  and  C_11 
REMARK    9  A    between atoms: C_8  and  C_10 
REMARK   10  A    between atoms: C_10  and  C_12 
ROOT
HETATM    1  N   UNK     0      22.688  27.800  31.476  0.00  0.00     0.087 N 
HETATM    2  H   UNK     0      22.491  28.758  31.188  0.00  0.00     0.316 HD
ENDROOT
BRANCH   1   3
HETATM    3  C   UNK     0      21.828  26.874  30.739  0.00  0.00     0.216 C 
HETATM    4  C   UNK     0      21.540  27.442  29.349  0.00  0.00     0.042 C 
BRANCH   3   5
HETATM    5  C   UNK     0      20.513  26.621  31.500  0.00  0.00     0.040 C 
BRANCH   5   6
HETATM    6  C   UNK     0      20.680  25.997  32.893  0.00  0.00     0.040 C 
BRANCH   6   7
HETATM    7  C   UNK     0      20.003  26.772  33.995  0.00  0.00    -0.058 A 
HETATM    8  C   UNK     0      20.649  27.862  34.558  0.00  0.00     0.010 A 
HETATM    9  C   UNK     0      20.022  28.578  35.578  0.00  0.00     0.037 A 
HETATM   10  C   UNK     0      18.756  28.196  36.021  0.00  0.00     0.065 A 
HETATM   11  C   UNK     0      18.117  27.097  35.446  0.00  0.00     0.037 A 
HETATM   12  C   UNK     0      18.744  26.381  34.426  0.00  0.00     0.010 A 
BRANCH  10  13
HETATM   13  O   UNK     0      18.144  28.896  37.016  0.00  0.00    -0.361 OA
HETATM   14  H   UNK     0      18.480  29.809  37.010  0.00  0.00     0.217 HD
ENDBRANCH  10  13
ENDBRANCH   6   7
ENDBRANCH   5   6
ENDBRANCH   3   5
ENDBRANCH   1   3
BRANCH   1  15
HETATM   15  C   UNK     0      24.091  27.493  31.246  0.00  0.00     0.274 C 
BRANCH  15  16
HETATM   16  C   UNK     0      24.861  27.431  32.566  0.00  0.00     0.068 C 
BRANCH  16  17
HETATM   17  C   UNK     0      24.454  26.234  33.388  0.00  0.00    -0.054 A 
HETATM   18  C   UNK     0      23.885  26.427  34.638  0.00  0.00     0.046 A 
HETATM   19  C   UNK     0      23.508  25.320  35.398  0.00  0.00     0.099 A 
HETATM   20  C   UNK     0      23.707  24.033  34.901  0.00  0.00     0.098 A 
HETATM   21  C   UNK     0      24.281  23.852  33.641  0.00  0.00     0.040 A 
HETATM   22  C   UNK     0      24.656  24.959  32.881  0.00  0.00     0.010 A 
BRANCH  19  23
HETATM   23  O   UNK     0      22.948  25.509  36.626  0.00  0.00    -0.358 OA
HETATM   24  H   UNK     0      22.035  25.177  36.612  0.00  0.00     0.218 HD
ENDBRANCH  19  23
BRANCH  20  25
HETATM   25  O   UNK     0      23.344  22.943  35.633  0.00  0.00    -0.358 OA
HETATM   26  H   UNK     0      23.251  23.204  36.566  0.00  0.00     0.218 HD
ENDBRANCH  20  25
ENDBRANCH  16  17
ENDBRANCH  15  16
ENDBRANCH   1  15
TORSDOF 10
ENDMDL
MODEL 3
REMARK VINA RESULT:      -7.6     19.242     21.715
REMARK  10 active torsions:
REMARK  status: ('A' for Active; 'I' for Inactive)
REMARK    1  A    between atoms: O_1  and  C_19 
REMARK    2  A    between atoms: O_2  and  C_20 
REMARK    3  A    between atoms: O_3  and  C_22 
REMARK    4  A    between atoms: N_4  and  C_5 
REMARK    5  A    between atoms: N_4  and  C_8 
REMARK    6  A    between atoms: C_5  and  C_6 
REMARK    7  A    between atoms: C_6  and  C_7 
REMARK    8  A    between atoms: C_7  and  C_11 
REMARK    9  A    between atoms: C_8  and  C_10 
REMARK   10  A    between atoms: C_10  and  C_12 
ROOT
HETATM    1  N   UNK     0      21.111  26.233  32.227  0.00  0.00     0.087 N 
HETATM    2  H   UNK     0      21.179  25.231  32.046  0.00  0.00     0.316 HD
ENDROOT
BRANCH   1   3
HETATM    3  C   UNK     0      21.541  26.980  31.045  0.00  0.00     0.216 C 
HETATM    4  C   UNK     0      20.684  26.577  29.846  0.00  0.00     0.042 C 
BRANCH   3   5
HETATM    5  C   UNK     0      23.032  26.730  30.750  0.00  0.00     0.040 C 
BRANCH   5   6
HETATM    6  C   UNK     0      24.009  27.508  31.643  0.00  0.00     0.040 C 
BRANCH   6   7
HETATM    7  C   UNK     0      24.709  26.654  32.670  0.00  0.00    -0.058 A 
HETATM    8  C   UNK     0      25.486  27.261  33.645  0.00  0.00     0.010 A 
HETATM    9  C   UNK     0      26.134  26.471  34.595  0.00  0.00     0.037 A 
HETATM   10  C   UNK     0      25.996  25.084  34.558  0.00  0.00     0.065 A 
HETATM   11  C   UNK     0      25.212  24.485  33.572  0.00  0.00     0.037 A 
HETATM   12  C   UNK     0      24.564  25.276  32.622  0.00  0.00     0.010 A 
BRANCH  10  13
HETATM   13  O   UNK     0      26.629  24.313  35.486  0.00  0.00    -0.361 OA
HETATM   14  H   UNK     0      26.779  24.845  36.286  0.00  0.00     0.217 HD
ENDBRANCH  10  13
ENDBRANCH   6   7
ENDBRANCH   5   6
ENDBRANCH   3   5
ENDBRANCH   1   3
BRANCH   1  15
HETATM   15  C   UNK     0      19.745  26.579  32.586  0.00  0.00     0.274 C 
BRANCH  15  16
HETATM   16  C   UNK     0      19.373  25.998  33.951  0.00  0.00     0.068 C 
BRANCH  16  17
HETATM   17  C   UNK     0      19.297  27.072  35.007  0.00  0.00    -0.054 A 
HETATM   18  C   UNK     0      20.460  27.702  35.424  0.00  0.00     0.046 A 
HETATM   19  C   UNK     0      20.389  28.696  36.401  0.00  0.00     0.099 A 
HETATM   20  C   UNK     0      19.156  29.047  36.950  0.00  0.00     0.098 A 
HETATM   21  C   UNK     0      17.993  28.405  36.521  0.00  0.00     0.040 A 
HETATM   22  C   UNK     0      18.065  27.412  35.544  0.00  0.00     0.010 A 
BRANCH  19  23
HETATM   23  O   UNK     0      21.532  29.315  36.810  0.00  0.00    -0.358 OA
HETATM   24  H   UNK     0      21.327  30.239  37.036  0.00  0.00     0.218 HD
ENDBRANCH  19  23
BRANCH  20  25
HETATM   25  O   UNK     0      19.073  30.015  37.904  0.00  0.00    -0.358 OA
HETATM   26  H   UNK     0      19.659  30.752  37.660  0.00  0.00     0.218 HD
ENDBRANCH  20  25
ENDBRANCH  16  17
ENDBRANCH  15  16
ENDBRANCH   1  15
TORSDOF 10
ENDMDL
