MODEL 1
REMARK VINA RESULT:      -7.0      0.000      0.000
REMARK  10 active torsions:
REMARK  status: ('A' for Active; 'I' for Inactive)
REMARK    1  A    between atoms: O_1  and  C_19 
REMARK    2  A    between atoms: O_2  and  C_20 
REMARK    3  A    between atoms: O_3  and  C_22 
REMARK    4  A    between atoms: N_4  and  C_5 
REMARK    5  A    between atoms: N_4  and  C_8 
REMARK    6  A    between atoms: C_5  and  C_6 
REMARK    7  A    between atoms: C_6  and  C_7 
REMARK    8  A    between atoms: C_7  and  C_11 
REMARK    9  A    between atoms: C_8  and  C_10 
REMARK   10  A    between atoms: C_10  and  C_12 
ROOT
HETATM    1  N   UNK     0     -20.176 -44.962  22.293  0.00  0.00     0.087 N 
HETATM    2  H   UNK     0     -19.973 -44.990  21.294  0.00  0.00     0.316 HD
ENDROOT
BRANCH   1   3
HETATM    3  C   UNK     0     -18.928 -44.858  23.050  0.00  0.00     0.216 C 
HETATM    4  C   UNK     0     -17.833 -45.656  22.342  0.00  0.00     0.042 C 
BRANCH   3   5
HETATM    5  C   UNK     0     -19.116 -45.364  24.492  0.00  0.00     0.040 C 
BRANCH   5   6
HETATM    6  C   UNK     0     -19.962 -46.639  24.626  0.00  0.00     0.040 C 
BRANCH   6   7
HETATM    7  C   UNK     0     -20.925 -46.614  25.786  0.00  0.00    -0.058 A 
HETATM    8  C   UNK     0     -21.989 -45.727  25.769  0.00  0.00     0.010 A 
HETATM    9  C   UNK     0     -22.879 -45.703  26.843  0.00  0.00     0.037 A 
HETATM   10  C   UNK     0     -22.695 -46.569  27.920  0.00  0.00     0.065 A 
HETATM   11  C   UNK     0     -21.619 -47.458  27.925  0.00  0.00     0.037 A 
HETATM   12  C   UNK     0     -20.729 -47.481  26.851  0.00  0.00     0.010 A 
BRANCH  10  13
HETATM   13  O   UNK     0     -23.564 -46.546  28.968  0.00  0.00    -0.361 OA
HETATM   14  H   UNK     0     -23.882 -45.636  29.093  0.00  0.00     0.217 HD
ENDBRANCH  10  13
ENDBRANCH   6   7
ENDBRANCH   5   6
ENDBRANCH   3   5
ENDBRANCH   1   3
BRANCH   1  15
HETATM   15  C   UNK     0     -21.053 -43.840  22.589  0.00  0.00     0.274 C 
BRANCH  15  16
HETATM   16  C   UNK     0     -20.307 -42.512  22.454  0.00  0.00     0.068 C 
BRANCH  16  17
HETATM   17  C   UNK     0     -20.723 -41.534  23.524  0.00  0.00    -0.054 A 
HETATM   18  C   UNK     0     -21.095 -42.007  24.773  0.00  0.00     0.046 A 
HETATM   19  C   UNK     0     -21.480 -41.101  25.762  0.00  0.00     0.099 A 
HETATM   20  C   UNK     0     -21.490 -39.734  25.490  0.00  0.00     0.098 A 
HETATM   21  C   UNK     0     -21.113 -39.271  24.228  0.00  0.00     0.040 A 
HETATM   22  C   UNK     0     -20.727 -40.176  23.240  0.00  0.00     0.010 A 
BRANCH  19  23
HETATM   23  O   UNK     0     -21.845 -41.566  26.990  0.00  0.00    -0.358 OA
HETATM   24  H   UNK     0     -21.288 -42.329  27.219  0.00  0.00     0.218 HD
ENDBRANCH  19  23
BRANCH  20  25
HETATM   25  O   UNK     0     -21.864 -38.839  26.447  0.00  0.00    -0.358 OA
HETATM   26  H   UNK     0     -21.239 -38.891  27.191  0.00  0.00     0.218 HD
ENDBRANCH  20  25
ENDBRANCH  16  17
ENDBRANCH  15  16
ENDBRANCH   1  15
TORSDOF 10
ENDMDL
MODEL 2
REMARK VINA RESULT:      -6.9     39.997     42.526
REMARK  10 active torsions:
REMARK  status: ('A' for Active; 'I' for Inactive)
REMARK    1  A    between atoms: O_1  and  C_19 
REMARK    2  A    between atoms: O_2  and  C_20 
REMARK    3  A    between atoms: O_3  and  C_22 
REMARK    4  A    between atoms: N_4  and  C_5 
REMARK    5  A    between atoms: N_4  and  C_8 
REMARK    6  A    between atoms: C_5  and  C_6 
REMARK    7  A    between atoms: C_6  and  C_7 
REMARK    8  A    between atoms: C_7  and  C_11 
REMARK    9  A    between atoms: C_8  and  C_10 
REMARK   10  A    between atoms: C_10  and  C_12 
ROOT
HETATM    1  N   UNK     0     -27.369   0.486  18.563  0.00  0.00     0.087 N 
HETATM    2  H   UNK     0     -28.192   1.017  18.275  0.00  0.00     0.316 HD
ENDROOT
BRANCH   1   3
HETATM    3  C   UNK     0     -26.194   0.955  17.829  0.00  0.00     0.216 C 
HETATM    4  C   UNK     0     -26.431   0.789  16.327  0.00  0.00     0.042 C 
BRANCH   3   5
HETATM    5  C   UNK     0     -24.933   0.187  18.263  0.00  0.00     0.040 C 
BRANCH   5   6
HETATM    6  C   UNK     0     -24.321  -0.718  17.183  0.00  0.00     0.040 C 
BRANCH   6   7
HETATM    7  C   UNK     0     -24.084  -2.137  17.637  0.00  0.00    -0.058 A 
HETATM    8  C   UNK     0     -23.512  -3.045  16.760  0.00  0.00     0.010 A 
HETATM    9  C   UNK     0     -23.295  -4.358  17.179  0.00  0.00     0.037 A 
HETATM   10  C   UNK     0     -23.651  -4.745  18.472  0.00  0.00     0.065 A 
HETATM   11  C   UNK     0     -24.226  -3.820  19.344  0.00  0.00     0.037 A 
HETATM   12  C   UNK     0     -24.444  -2.508  18.924  0.00  0.00     0.010 A 
BRANCH  10  13
HETATM   13  O   UNK     0     -23.437  -6.026  18.881  0.00  0.00    -0.361 OA
HETATM   14  H   UNK     0     -22.499  -6.245  18.751  0.00  0.00     0.217 HD
ENDBRANCH  10  13
ENDBRANCH   6   7
ENDBRANCH   5   6
ENDBRANCH   3   5
ENDBRANCH   1   3
BRANCH   1  15
HETATM   15  C   UNK     0     -27.169   0.624  19.997  0.00  0.00     0.274 C 
BRANCH  15  16
HETATM   16  C   UNK     0     -28.276  -0.087  20.776  0.00  0.00     0.068 C 
BRANCH  16  17
HETATM   17  C   UNK     0     -27.824  -1.438  21.271  0.00  0.00    -0.054 A 
HETATM   18  C   UNK     0     -28.684  -2.521  21.178  0.00  0.00     0.046 A 
HETATM   19  C   UNK     0     -28.265  -3.770  21.636  0.00  0.00     0.099 A 
HETATM   20  C   UNK     0     -26.992  -3.921  22.184  0.00  0.00     0.098 A 
HETATM   21  C   UNK     0     -26.136  -2.822  22.273  0.00  0.00     0.040 A 
HETATM   22  C   UNK     0     -26.555  -1.574  21.813  0.00  0.00     0.010 A 
BRANCH  19  23
HETATM   23  O   UNK     0     -29.110  -4.836  21.544  0.00  0.00    -0.358 OA
HETATM   24  H   UNK     0     -29.559  -4.810  20.682  0.00  0.00     0.218 HD
ENDBRANCH  19  23
BRANCH  20  25
HETATM   25  O   UNK     0     -26.571  -5.135  22.636  0.00  0.00    -0.358 OA
HETATM   26  H   UNK     0     -26.061  -5.010  23.455  0.00  0.00     0.218 HD
ENDBRANCH  20  25
ENDBRANCH  16  17
ENDBRANCH  15  16
ENDBRANCH   1  15
TORSDOF 10
ENDMDL
MODEL 3
REMARK VINA RESULT:      -6.9     40.237     42.500
REMARK  10 active torsions:
REMARK  status: ('A' for Active; 'I' for Inactive)
REMARK    1  A    between atoms: O_1  and  C_19 
REMARK    2  A    between atoms: O_2  and  C_20 
REMARK    3  A    between atoms: O_3  and  C_22 
REMARK    4  A    between atoms: N_4  and  C_5 
REMARK    5  A    between atoms: N_4  and  C_8 
REMARK    6  A    between atoms: C_5  and  C_6 
REMARK    7  A    between atoms: C_6  and  C_7 
REMARK    8  A    between atoms: C_7  and  C_11 
REMARK    9  A    between atoms: C_8  and  C_10 
REMARK   10  A    between atoms: C_10  and  C_12 
ROOT
HETATM    1  N   UNK     0     -27.705   0.481  19.058  0.00  0.00     0.087 N 
HETATM    2  H   UNK     0     -28.481   1.136  19.150  0.00  0.00     0.316 HD
ENDROOT
BRANCH   1   3
HETATM    3  C   UNK     0     -26.616   1.104  18.305  0.00  0.00     0.216 C 
HETATM    4  C   UNK     0     -26.920   1.027  16.809  0.00  0.00     0.042 C 
BRANCH   3   5
HETATM    5  C   UNK     0     -25.272   0.422  18.618  0.00  0.00     0.040 C 
BRANCH   5   6
HETATM    6  C   UNK     0     -24.636  -0.328  17.437  0.00  0.00     0.040 C 
BRANCH   6   7
HETATM    7  C   UNK     0     -24.271  -1.758  17.748  0.00  0.00    -0.058 A 
HETATM    8  C   UNK     0     -24.457  -2.245  19.032  0.00  0.00     0.010 A 
HETATM    9  C   UNK     0     -24.119  -3.567  19.319  0.00  0.00     0.037 A 
HETATM   10  C   UNK     0     -23.599  -4.387  18.317  0.00  0.00     0.065 A 
HETATM   11  C   UNK     0     -23.416  -3.884  17.028  0.00  0.00     0.037 A 
HETATM   12  C   UNK     0     -23.755  -2.561  16.742  0.00  0.00     0.010 A 
BRANCH  10  13
HETATM   13  O   UNK     0     -23.269  -5.678  18.598  0.00  0.00    -0.361 OA
HETATM   14  H   UNK     0     -24.001  -6.256  18.323  0.00  0.00     0.217 HD
ENDBRANCH  10  13
ENDBRANCH   6   7
ENDBRANCH   5   6
ENDBRANCH   3   5
ENDBRANCH   1   3
BRANCH   1  15
HETATM   15  C   UNK     0     -27.249   0.067  20.375  0.00  0.00     0.274 C 
BRANCH  15  16
HETATM   16  C   UNK     0     -28.074  -1.111  20.896  0.00  0.00     0.068 C 
BRANCH  16  17
HETATM   17  C   UNK     0     -27.249  -2.022  21.769  0.00  0.00    -0.054 A 
HETATM   18  C   UNK     0     -27.164  -3.371  21.458  0.00  0.00     0.046 A 
HETATM   19  C   UNK     0     -26.400  -4.213  22.266  0.00  0.00     0.099 A 
HETATM   20  C   UNK     0     -25.732  -3.698  23.376  0.00  0.00     0.098 A 
HETATM   21  C   UNK     0     -25.826  -2.338  23.678  0.00  0.00     0.040 A 
HETATM   22  C   UNK     0     -26.589  -1.496  22.869  0.00  0.00     0.010 A 
BRANCH  19  23
HETATM   23  O   UNK     0     -26.315  -5.539  21.960  0.00  0.00    -0.358 OA
HETATM   24  H   UNK     0     -25.625  -5.947  22.510  0.00  0.00     0.218 HD
ENDBRANCH  19  23
BRANCH  20  25
HETATM   25  O   UNK     0     -24.983  -4.510  24.173  0.00  0.00    -0.358 OA
HETATM   26  H   UNK     0     -25.009  -4.171  25.085  0.00  0.00     0.218 HD
ENDBRANCH  20  25
ENDBRANCH  16  17
ENDBRANCH  15  16
ENDBRANCH   1  15
TORSDOF 10
ENDMDL
