MODEL 1
REMARK VINA RESULT:      -8.4      0.000      0.000
REMARK  10 active torsions:
REMARK  status: ('A' for Active; 'I' for Inactive)
REMARK    1  A    between atoms: O_1  and  C_19 
REMARK    2  A    between atoms: O_2  and  C_20 
REMARK    3  A    between atoms: O_3  and  C_22 
REMARK    4  A    between atoms: N_4  and  C_5 
REMARK    5  A    between atoms: N_4  and  C_8 
REMARK    6  A    between atoms: C_5  and  C_6 
REMARK    7  A    between atoms: C_6  and  C_7 
REMARK    8  A    between atoms: C_7  and  C_11 
REMARK    9  A    between atoms: C_8  and  C_10 
REMARK   10  A    between atoms: C_10  and  C_12 
ROOT
HETATM    1  N   UNK     0     166.011  -4.420 339.585  0.00  0.00     0.087 N 
HETATM    2  H   UNK     0     166.020  -4.490 338.567  0.00  0.00     0.316 HD
ENDROOT
BRANCH   1   3
HETATM    3  C   UNK     0     164.803  -3.720 340.023  0.00  0.00     0.216 C 
HETATM    4  C   UNK     0     165.077  -2.217 340.084  0.00  0.00     0.042 C 
BRANCH   3   5
HETATM    5  C   UNK     0     164.336  -4.238 341.395  0.00  0.00     0.040 C 
BRANCH   5   6
HETATM    6  C   UNK     0     164.570  -3.273 342.567  0.00  0.00     0.040 C 
BRANCH   6   7
HETATM    7  C   UNK     0     165.807  -3.581 343.373  0.00  0.00    -0.058 A 
HETATM    8  C   UNK     0     167.049  -3.213 342.882  0.00  0.00     0.010 A 
HETATM    9  C   UNK     0     168.193  -3.498 343.628  0.00  0.00     0.037 A 
HETATM   10  C   UNK     0     168.079  -4.148 344.858  0.00  0.00     0.065 A 
HETATM   11  C   UNK     0     166.822  -4.513 345.340  0.00  0.00     0.037 A 
HETATM   12  C   UNK     0     165.679  -4.227 344.593  0.00  0.00     0.010 A 
BRANCH  10  13
HETATM   13  O   UNK     0     169.196  -4.425 345.586  0.00  0.00    -0.361 OA
HETATM   14  H   UNK     0     169.245  -3.807 346.335  0.00  0.00     0.217 HD
ENDBRANCH  10  13
ENDBRANCH   6   7
ENDBRANCH   5   6
ENDBRANCH   3   5
ENDBRANCH   1   3
BRANCH   1  15
HETATM   15  C   UNK     0     166.079  -5.748 340.173  0.00  0.00     0.274 C 
BRANCH  15  16
HETATM   16  C   UNK     0     167.488  -6.050 340.684  0.00  0.00     0.068 C 
BRANCH  16  17
HETATM   17  C   UNK     0     167.454  -6.837 341.970  0.00  0.00    -0.054 A 
HETATM   18  C   UNK     0     168.644  -7.170 342.597  0.00  0.00     0.046 A 
HETATM   19  C   UNK     0     168.611  -7.898 343.787  0.00  0.00     0.099 A 
HETATM   20  C   UNK     0     167.389  -8.286 344.333  0.00  0.00     0.098 A 
HETATM   21  C   UNK     0     166.198  -7.944 343.691  0.00  0.00     0.040 A 
HETATM   22  C   UNK     0     166.231  -7.215 342.503  0.00  0.00     0.010 A 
BRANCH  19  23
HETATM   23  O   UNK     0     169.782  -8.225 344.404  0.00  0.00    -0.358 OA
HETATM   24  H   UNK     0     170.386  -7.464 344.361  0.00  0.00     0.218 HD
ENDBRANCH  19  23
BRANCH  20  25
HETATM   25  O   UNK     0     167.343  -8.997 345.494  0.00  0.00    -0.358 OA
HETATM   26  H   UNK     0     166.421  -9.248 345.677  0.00  0.00     0.218 HD
ENDBRANCH  20  25
ENDBRANCH  16  17
ENDBRANCH  15  16
ENDBRANCH   1  15
TORSDOF 10
ENDMDL
MODEL 2
REMARK VINA RESULT:      -8.3      1.079      4.025
REMARK  10 active torsions:
REMARK  status: ('A' for Active; 'I' for Inactive)
REMARK    1  A    between atoms: O_1  and  C_19 
REMARK    2  A    between atoms: O_2  and  C_20 
REMARK    3  A    between atoms: O_3  and  C_22 
REMARK    4  A    between atoms: N_4  and  C_5 
REMARK    5  A    between atoms: N_4  and  C_8 
REMARK    6  A    between atoms: C_5  and  C_6 
REMARK    7  A    between atoms: C_6  and  C_7 
REMARK    8  A    between atoms: C_7  and  C_11 
REMARK    9  A    between atoms: C_8  and  C_10 
REMARK   10  A    between atoms: C_10  and  C_12 
ROOT
HETATM    1  N   UNK     0     163.836  -4.001 340.766  0.00  0.00     0.087 N 
HETATM    2  H   UNK     0     162.974  -3.581 340.418  0.00  0.00     0.316 HD
ENDROOT
BRANCH   1   3
HETATM    3  C   UNK     0     164.989  -3.376 340.118  0.00  0.00     0.216 C 
HETATM    4  C   UNK     0     164.515  -2.546 338.924  0.00  0.00     0.042 C 
BRANCH   3   5
HETATM    5  C   UNK     0     166.007  -4.438 339.665  0.00  0.00     0.040 C 
BRANCH   5   6
HETATM    6  C   UNK     0     165.706  -5.868 340.137  0.00  0.00     0.040 C 
BRANCH   6   7
HETATM    7  C   UNK     0     166.609  -6.348 341.246  0.00  0.00    -0.058 A 
HETATM    8  C   UNK     0     166.057  -6.708 342.465  0.00  0.00     0.010 A 
HETATM    9  C   UNK     0     166.892  -7.151 343.491  0.00  0.00     0.037 A 
HETATM   10  C   UNK     0     168.270  -7.230 343.284  0.00  0.00     0.065 A 
HETATM   11  C   UNK     0     168.812  -6.864 342.051  0.00  0.00     0.037 A 
HETATM   12  C   UNK     0     167.976  -6.421 341.026  0.00  0.00     0.010 A 
BRANCH  10  13
HETATM   13  O   UNK     0     169.085  -7.663 344.285  0.00  0.00    -0.361 OA
HETATM   14  H   UNK     0     169.423  -6.892 344.771  0.00  0.00     0.217 HD
ENDBRANCH  10  13
ENDBRANCH   6   7
ENDBRANCH   5   6
ENDBRANCH   3   5
ENDBRANCH   1   3
BRANCH   1  15
HETATM   15  C   UNK     0     163.912  -3.850 342.210  0.00  0.00     0.274 C 
BRANCH  15  16
HETATM   16  C   UNK     0     164.799  -2.663 342.590  0.00  0.00     0.068 C 
BRANCH  16  17
HETATM   17  C   UNK     0     165.994  -3.101 343.399  0.00  0.00    -0.054 A 
HETATM   18  C   UNK     0     165.827  -3.441 344.733  0.00  0.00     0.046 A 
HETATM   19  C   UNK     0     166.933  -3.846 345.480  0.00  0.00     0.099 A 
HETATM   20  C   UNK     0     168.192  -3.906 344.885  0.00  0.00     0.098 A 
HETATM   21  C   UNK     0     168.346  -3.562 343.542  0.00  0.00     0.040 A 
HETATM   22  C   UNK     0     167.241  -3.157 342.795  0.00  0.00     0.010 A 
BRANCH  19  23
HETATM   23  O   UNK     0     166.769  -4.181 346.791  0.00  0.00    -0.358 OA
HETATM   24  H   UNK     0     166.217  -4.979 346.848  0.00  0.00     0.218 HD
ENDBRANCH  19  23
BRANCH  20  25
HETATM   25  O   UNK     0     169.280  -4.300 345.604  0.00  0.00    -0.358 OA
HETATM   26  H   UNK     0     169.494  -3.613 346.259  0.00  0.00     0.218 HD
ENDBRANCH  20  25
ENDBRANCH  16  17
ENDBRANCH  15  16
ENDBRANCH   1  15
TORSDOF 10
ENDMDL
MODEL 3
REMARK VINA RESULT:      -8.2      2.695      4.943
REMARK  10 active torsions:
REMARK  status: ('A' for Active; 'I' for Inactive)
REMARK    1  A    between atoms: O_1  and  C_19 
REMARK    2  A    between atoms: O_2  and  C_20 
REMARK    3  A    between atoms: O_3  and  C_22 
REMARK    4  A    between atoms: N_4  and  C_5 
REMARK    5  A    between atoms: N_4  and  C_8 
REMARK    6  A    between atoms: C_5  and  C_6 
REMARK    7  A    between atoms: C_6  and  C_7 
REMARK    8  A    between atoms: C_7  and  C_11 
REMARK    9  A    between atoms: C_8  and  C_10 
REMARK   10  A    between atoms: C_10  and  C_12 
ROOT
HETATM    1  N   UNK     0     167.301  -7.888 340.346  0.00  0.00     0.087 N 
HETATM    2  H   UNK     0     168.054  -7.236 340.565  0.00  0.00     0.316 HD
ENDROOT
BRANCH   1   3
HETATM    3  C   UNK     0     167.084  -8.792 341.476  0.00  0.00     0.216 C 
HETATM    4  C   UNK     0     165.591  -8.856 341.799  0.00  0.00     0.042 C 
BRANCH   3   5
HETATM    5  C   UNK     0     167.883  -8.333 342.709  0.00  0.00     0.040 C 
BRANCH   5   6
HETATM    6  C   UNK     0     168.635  -7.005 342.535  0.00  0.00     0.040 C 
BRANCH   6   7
HETATM    7  C   UNK     0     167.960  -5.830 343.198  0.00  0.00    -0.058 A 
HETATM    8  C   UNK     0     167.062  -6.053 344.229  0.00  0.00     0.010 A 
HETATM    9  C   UNK     0     166.437  -4.967 344.841  0.00  0.00     0.037 A 
HETATM   10  C   UNK     0     166.720  -3.669 344.415  0.00  0.00     0.065 A 
HETATM   11  C   UNK     0     167.626  -3.458 343.375  0.00  0.00     0.037 A 
HETATM   12  C   UNK     0     168.251  -4.545 342.763  0.00  0.00     0.010 A 
BRANCH  10  13
HETATM   13  O   UNK     0     166.111  -2.608 345.013  0.00  0.00    -0.361 OA
HETATM   14  H   UNK     0     165.167  -2.814 345.131  0.00  0.00     0.217 HD
ENDBRANCH  10  13
ENDBRANCH   6   7
ENDBRANCH   5   6
ENDBRANCH   3   5
ENDBRANCH   1   3
BRANCH   1  15
HETATM   15  C   UNK     0     166.085  -7.152 340.036  0.00  0.00     0.274 C 
BRANCH  15  16
HETATM   16  C   UNK     0     166.391  -5.678 339.764  0.00  0.00     0.068 C 
BRANCH  16  17
HETATM   17  C   UNK     0     165.493  -4.770 340.567  0.00  0.00    -0.054 A 
HETATM   18  C   UNK     0     165.525  -3.403 340.337  0.00  0.00     0.046 A 
HETATM   19  C   UNK     0     164.694  -2.564 341.080  0.00  0.00     0.099 A 
HETATM   20  C   UNK     0     163.843  -3.101 342.045  0.00  0.00     0.098 A 
HETATM   21  C   UNK     0     163.822  -4.479 342.266  0.00  0.00     0.040 A 
HETATM   22  C   UNK     0     164.651  -5.318 341.523  0.00  0.00     0.010 A 
BRANCH  19  23
HETATM   23  O   UNK     0     164.724  -1.220 340.853  0.00  0.00    -0.358 OA
HETATM   24  H   UNK     0     165.537  -0.999 340.368  0.00  0.00     0.218 HD
ENDBRANCH  19  23
BRANCH  20  25
HETATM   25  O   UNK     0     163.027  -2.293 342.777  0.00  0.00    -0.358 OA
HETATM   26  H   UNK     0     162.507  -2.839 343.391  0.00  0.00     0.218 HD
ENDBRANCH  20  25
ENDBRANCH  16  17
ENDBRANCH  15  16
ENDBRANCH   1  15
TORSDOF 10
ENDMDL
