MODEL 1
REMARK VINA RESULT:      -7.9      0.000      0.000
REMARK  10 active torsions:
REMARK  status: ('A' for Active; 'I' for Inactive)
REMARK    1  A    between atoms: O_1  and  C_19 
REMARK    2  A    between atoms: O_2  and  C_20 
REMARK    3  A    between atoms: O_3  and  C_22 
REMARK    4  A    between atoms: N_4  and  C_5 
REMARK    5  A    between atoms: N_4  and  C_8 
REMARK    6  A    between atoms: C_5  and  C_6 
REMARK    7  A    between atoms: C_6  and  C_7 
REMARK    8  A    between atoms: C_7  and  C_11 
REMARK    9  A    between atoms: C_8  and  C_10 
REMARK   10  A    between atoms: C_10  and  C_12 
ROOT
HETATM    1  N   UNK     0     -10.648  23.719  -8.653  0.00  0.00     0.087 N 
HETATM    2  H   UNK     0     -10.558  22.757  -8.326  0.00  0.00     0.316 HD
ENDROOT
BRANCH   1   3
HETATM    3  C   UNK     0     -12.061  24.046  -8.848  0.00  0.00     0.216 C 
HETATM    4  C   UNK     0     -12.778  24.039  -7.498  0.00  0.00     0.042 C 
BRANCH   3   5
HETATM    5  C   UNK     0     -12.726  23.050  -9.816  0.00  0.00     0.040 C 
BRANCH   5   6
HETATM    6  C   UNK     0     -13.986  23.574 -10.520  0.00  0.00     0.040 C 
BRANCH   6   7
HETATM    7  C   UNK     0     -14.388  22.770 -11.731  0.00  0.00    -0.058 A 
HETATM    8  C   UNK     0     -13.818  21.524 -11.941  0.00  0.00     0.010 A 
HETATM    9  C   UNK     0     -14.189  20.781 -13.061  0.00  0.00     0.037 A 
HETATM   10  C   UNK     0     -15.128  21.292 -13.958  0.00  0.00     0.065 A 
HETATM   11  C   UNK     0     -15.694  22.548 -13.735  0.00  0.00     0.037 A 
HETATM   12  C   UNK     0     -15.322  23.291 -12.614  0.00  0.00     0.010 A 
BRANCH  10  13
HETATM   13  O   UNK     0     -15.491  20.566 -15.051  0.00  0.00    -0.361 OA
HETATM   14  H   UNK     0     -16.447  20.394 -15.011  0.00  0.00     0.217 HD
ENDBRANCH  10  13
ENDBRANCH   6   7
ENDBRANCH   5   6
ENDBRANCH   3   5
ENDBRANCH   1   3
BRANCH   1  15
HETATM   15  C   UNK     0     -10.038  24.627  -7.694  0.00  0.00     0.274 C 
BRANCH  15  16
HETATM   16  C   UNK     0      -9.796  26.002  -8.319  0.00  0.00     0.068 C 
BRANCH  16  17
HETATM   17  C   UNK     0      -9.805  27.092  -7.277  0.00  0.00    -0.054 A 
HETATM   18  C   UNK     0     -10.801  27.105  -6.313  0.00  0.00     0.046 A 
HETATM   19  C   UNK     0     -10.809  28.114  -5.349  0.00  0.00     0.099 A 
HETATM   20  C   UNK     0      -9.822  29.098  -5.362  0.00  0.00     0.098 A 
HETATM   21  C   UNK     0      -8.825  29.073  -6.339  0.00  0.00     0.040 A 
HETATM   22  C   UNK     0      -8.817  28.064  -7.301  0.00  0.00     0.010 A 
BRANCH  19  23
HETATM   23  O   UNK     0     -11.788  28.126  -4.401  0.00  0.00    -0.358 OA
HETATM   24  H   UNK     0     -11.445  27.720  -3.587  0.00  0.00     0.218 HD
ENDBRANCH  19  23
BRANCH  20  25
HETATM   25  O   UNK     0      -9.818  30.088  -4.427  0.00  0.00    -0.358 OA
HETATM   26  H   UNK     0      -9.035  30.649  -4.562  0.00  0.00     0.218 HD
ENDBRANCH  20  25
ENDBRANCH  16  17
ENDBRANCH  15  16
ENDBRANCH   1  15
TORSDOF 10
ENDMDL
MODEL 2
REMARK VINA RESULT:      -7.6     10.540     13.457
REMARK  10 active torsions:
REMARK  status: ('A' for Active; 'I' for Inactive)
REMARK    1  A    between atoms: O_1  and  C_19 
REMARK    2  A    between atoms: O_2  and  C_20 
REMARK    3  A    between atoms: O_3  and  C_22 
REMARK    4  A    between atoms: N_4  and  C_5 
REMARK    5  A    between atoms: N_4  and  C_8 
REMARK    6  A    between atoms: C_5  and  C_6 
REMARK    7  A    between atoms: C_6  and  C_7 
REMARK    8  A    between atoms: C_7  and  C_11 
REMARK    9  A    between atoms: C_8  and  C_10 
REMARK   10  A    between atoms: C_10  and  C_12 
ROOT
HETATM    1  N   UNK     0     -16.456  16.291 -10.175  0.00  0.00     0.087 N 
HETATM    2  H   UNK     0     -16.620  16.974  -9.435  0.00  0.00     0.316 HD
ENDROOT
BRANCH   1   3
HETATM    3  C   UNK     0     -15.020  16.157 -10.417  0.00  0.00     0.216 C 
HETATM    4  C   UNK     0     -14.629  16.987 -11.640  0.00  0.00     0.042 C 
BRANCH   3   5
HETATM    5  C   UNK     0     -14.633  14.680 -10.624  0.00  0.00     0.040 C 
BRANCH   5   6
HETATM    6  C   UNK     0     -13.230  14.302 -10.127  0.00  0.00     0.040 C 
BRANCH   6   7
HETATM    7  C   UNK     0     -12.383  13.606 -11.162  0.00  0.00    -0.058 A 
HETATM    8  C   UNK     0     -11.002  13.625 -11.037  0.00  0.00     0.010 A 
HETATM    9  C   UNK     0     -10.218  12.982 -11.995  0.00  0.00     0.037 A 
HETATM   10  C   UNK     0     -10.826  12.326 -13.067  0.00  0.00     0.065 A 
HETATM   11  C   UNK     0     -12.216  12.315 -13.181  0.00  0.00     0.037 A 
HETATM   12  C   UNK     0     -12.999  12.959 -12.222  0.00  0.00     0.010 A 
BRANCH  10  13
HETATM   13  O   UNK     0     -10.060  11.698 -14.001  0.00  0.00    -0.361 OA
HETATM   14  H   UNK     0      -9.773  12.350 -14.663  0.00  0.00     0.217 HD
ENDBRANCH  10  13
ENDBRANCH   6   7
ENDBRANCH   5   6
ENDBRANCH   3   5
ENDBRANCH   1   3
BRANCH   1  15
HETATM   15  C   UNK     0     -17.037  15.010  -9.802  0.00  0.00     0.274 C 
BRANCH  15  16
HETATM   16  C   UNK     0     -18.128  14.595 -10.790  0.00  0.00     0.068 C 
BRANCH  16  17
HETATM   17  C   UNK     0     -19.493  14.625 -10.151  0.00  0.00    -0.054 A 
HETATM   18  C   UNK     0     -19.669  15.294  -8.949  0.00  0.00     0.046 A 
HETATM   19  C   UNK     0     -20.933  15.321  -8.358  0.00  0.00     0.099 A 
HETATM   20  C   UNK     0     -22.005  14.678  -8.975  0.00  0.00     0.098 A 
HETATM   21  C   UNK     0     -21.814  14.008 -10.185  0.00  0.00     0.040 A 
HETATM   22  C   UNK     0     -20.551  13.982 -10.775  0.00  0.00     0.010 A 
BRANCH  19  23
HETATM   23  O   UNK     0     -21.106  15.979  -7.177  0.00  0.00    -0.358 OA
HETATM   24  H   UNK     0     -21.586  16.808  -7.345  0.00  0.00     0.218 HD
ENDBRANCH  19  23
BRANCH  20  25
HETATM   25  O   UNK     0     -23.244  14.697  -8.409  0.00  0.00    -0.358 OA
HETATM   26  H   UNK     0     -23.634  15.580  -8.530  0.00  0.00     0.218 HD
ENDBRANCH  20  25
ENDBRANCH  16  17
ENDBRANCH  15  16
ENDBRANCH   1  15
TORSDOF 10
ENDMDL
MODEL 3
REMARK VINA RESULT:      -7.4     10.421     12.588
REMARK  10 active torsions:
REMARK  status: ('A' for Active; 'I' for Inactive)
REMARK    1  A    between atoms: O_1  and  C_19 
REMARK    2  A    between atoms: O_2  and  C_20 
REMARK    3  A    between atoms: O_3  and  C_22 
REMARK    4  A    between atoms: N_4  and  C_5 
REMARK    5  A    between atoms: N_4  and  C_8 
REMARK    6  A    between atoms: C_5  and  C_6 
REMARK    7  A    between atoms: C_6  and  C_7 
REMARK    8  A    between atoms: C_7  and  C_11 
REMARK    9  A    between atoms: C_8  and  C_10 
REMARK   10  A    between atoms: C_10  and  C_12 
ROOT
HETATM    1  N   UNK     0     -15.549  16.305 -10.211  0.00  0.00     0.087 N 
HETATM    2  H   UNK     0     -15.585  17.246  -9.820  0.00  0.00     0.316 HD
ENDROOT
BRANCH   1   3
HETATM    3  C   UNK     0     -16.238  16.277 -11.502  0.00  0.00     0.216 C 
HETATM    4  C   UNK     0     -16.341  17.698 -12.056  0.00  0.00     0.042 C 
BRANCH   3   5
HETATM    5  C   UNK     0     -17.637  15.650 -11.364  0.00  0.00     0.040 C 
BRANCH   5   6
HETATM    6  C   UNK     0     -17.874  14.874 -10.059  0.00  0.00     0.040 C 
BRANCH   6   7
HETATM    7  C   UNK     0     -19.311  14.875  -9.601  0.00  0.00    -0.058 A 
HETATM    8  C   UNK     0     -20.192  13.941 -10.122  0.00  0.00     0.010 A 
HETATM    9  C   UNK     0     -21.521  13.942  -9.699  0.00  0.00     0.037 A 
HETATM   10  C   UNK     0     -21.952  14.877  -8.757  0.00  0.00     0.065 A 
HETATM   11  C   UNK     0     -21.055  15.812  -8.241  0.00  0.00     0.037 A 
HETATM   12  C   UNK     0     -19.725  15.810  -8.665  0.00  0.00     0.010 A 
BRANCH  10  13
HETATM   13  O   UNK     0     -23.250  14.877  -8.344  0.00  0.00    -0.361 OA
HETATM   14  H   UNK     0     -23.343  14.257  -7.600  0.00  0.00     0.217 HD
ENDBRANCH  10  13
ENDBRANCH   6   7
ENDBRANCH   5   6
ENDBRANCH   3   5
ENDBRANCH   1   3
BRANCH   1  15
HETATM   15  C   UNK     0     -14.165  15.883 -10.357  0.00  0.00     0.274 C 
BRANCH  15  16
HETATM   16  C   UNK     0     -14.069  14.366 -10.523  0.00  0.00     0.068 C 
BRANCH  16  17
HETATM   17  C   UNK     0     -12.713  13.950 -11.035  0.00  0.00    -0.054 A 
HETATM   18  C   UNK     0     -11.573  14.501 -10.470  0.00  0.00     0.046 A 
HETATM   19  C   UNK     0     -10.319  14.116 -10.945  0.00  0.00     0.099 A 
HETATM   20  C   UNK     0     -10.219  13.186 -11.978  0.00  0.00     0.098 A 
HETATM   21  C   UNK     0     -11.375  12.639 -12.538  0.00  0.00     0.040 A 
HETATM   22  C   UNK     0     -12.629  13.023 -12.063  0.00  0.00     0.010 A 
BRANCH  19  23
HETATM   23  O   UNK     0      -9.198  14.657 -10.389  0.00  0.00    -0.358 OA
HETATM   24  H   UNK     0      -8.459  14.033 -10.495  0.00  0.00     0.218 HD
ENDBRANCH  19  23
BRANCH  20  25
HETATM   25  O   UNK     0      -9.001  12.801 -12.450  0.00  0.00    -0.358 OA
HETATM   26  H   UNK     0      -9.111  12.416 -13.336  0.00  0.00     0.218 HD
ENDBRANCH  20  25
ENDBRANCH  16  17
ENDBRANCH  15  16
ENDBRANCH   1  15
TORSDOF 10
ENDMDL
