MODEL 1
REMARK VINA RESULT:      -7.8      0.000      0.000
REMARK  10 active torsions:
REMARK  status: ('A' for Active; 'I' for Inactive)
REMARK    1  A    between atoms: O_1  and  C_19 
REMARK    2  A    between atoms: O_2  and  C_20 
REMARK    3  A    between atoms: O_3  and  C_22 
REMARK    4  A    between atoms: N_4  and  C_5 
REMARK    5  A    between atoms: N_4  and  C_8 
REMARK    6  A    between atoms: C_5  and  C_6 
REMARK    7  A    between atoms: C_6  and  C_7 
REMARK    8  A    between atoms: C_7  and  C_11 
REMARK    9  A    between atoms: C_8  and  C_10 
REMARK   10  A    between atoms: C_10  and  C_12 
ROOT
HETATM    1  N   UNK     0      41.583   2.493  36.391  0.00  0.00     0.087 N 
HETATM    2  H   UNK     0      42.013   2.678  37.297  0.00  0.00     0.316 HD
ENDROOT
BRANCH   1   3
HETATM    3  C   UNK     0      42.143   1.269  35.817  0.00  0.00     0.216 C 
HETATM    4  C   UNK     0      43.034   0.581  36.852  0.00  0.00     0.042 C 
BRANCH   3   5
HETATM    5  C   UNK     0      42.943   1.578  34.539  0.00  0.00     0.040 C 
BRANCH   5   6
HETATM    6  C   UNK     0      42.897   3.044  34.083  0.00  0.00     0.040 C 
BRANCH   6   7
HETATM    7  C   UNK     0      42.153   3.258  32.789  0.00  0.00    -0.058 A 
HETATM    8  C   UNK     0      42.850   3.238  31.591  0.00  0.00     0.010 A 
HETATM    9  C   UNK     0      42.162   3.437  30.394  0.00  0.00     0.037 A 
HETATM   10  C   UNK     0      40.783   3.652  30.410  0.00  0.00     0.065 A 
HETATM   11  C   UNK     0      40.094   3.670  31.623  0.00  0.00     0.037 A 
HETATM   12  C   UNK     0      40.783   3.471  32.820  0.00  0.00     0.010 A 
BRANCH  10  13
HETATM   13  O   UNK     0      40.112   3.845  29.241  0.00  0.00    -0.361 OA
HETATM   14  H   UNK     0      39.312   4.368  29.421  0.00  0.00     0.217 HD
ENDBRANCH  10  13
ENDBRANCH   6   7
ENDBRANCH   5   6
ENDBRANCH   3   5
ENDBRANCH   1   3
BRANCH   1  15
HETATM   15  C   UNK     0      40.141   2.379  36.541  0.00  0.00     0.274 C 
BRANCH  15  16
HETATM   16  C   UNK     0      39.459   3.730  36.326  0.00  0.00     0.068 C 
BRANCH  16  17
HETATM   17  C   UNK     0      38.562   4.087  37.485  0.00  0.00    -0.054 A 
HETATM   18  C   UNK     0      38.092   3.084  38.318  0.00  0.00     0.046 A 
HETATM   19  C   UNK     0      37.262   3.415  39.389  0.00  0.00     0.099 A 
HETATM   20  C   UNK     0      36.911   4.745  39.614  0.00  0.00     0.098 A 
HETATM   21  C   UNK     0      37.391   5.746  38.767  0.00  0.00     0.040 A 
HETATM   22  C   UNK     0      38.221   5.415  37.697  0.00  0.00     0.010 A 
BRANCH  19  23
HETATM   23  O   UNK     0      36.801   2.428  40.209  0.00  0.00    -0.358 OA
HETATM   24  H   UNK     0      37.558   1.992  40.636  0.00  0.00     0.218 HD
ENDBRANCH  19  23
BRANCH  20  25
HETATM   25  O   UNK     0      36.102   5.082  40.657  0.00  0.00    -0.358 OA
HETATM   26  H   UNK     0      36.225   6.024  40.863  0.00  0.00     0.218 HD
ENDBRANCH  20  25
ENDBRANCH  16  17
ENDBRANCH  15  16
ENDBRANCH   1  15
TORSDOF 10
ENDMDL
MODEL 2
REMARK VINA RESULT:      -7.5      2.602      3.804
REMARK  10 active torsions:
REMARK  status: ('A' for Active; 'I' for Inactive)
REMARK    1  A    between atoms: O_1  and  C_19 
REMARK    2  A    between atoms: O_2  and  C_20 
REMARK    3  A    between atoms: O_3  and  C_22 
REMARK    4  A    between atoms: N_4  and  C_5 
REMARK    5  A    between atoms: N_4  and  C_8 
REMARK    6  A    between atoms: C_5  and  C_6 
REMARK    7  A    between atoms: C_6  and  C_7 
REMARK    8  A    between atoms: C_7  and  C_11 
REMARK    9  A    between atoms: C_8  and  C_10 
REMARK   10  A    between atoms: C_10  and  C_12 
ROOT
HETATM    1  N   UNK     0      40.072   3.682  34.208  0.00  0.00     0.087 N 
HETATM    2  H   UNK     0      39.867   4.506  33.644  0.00  0.00     0.316 HD
ENDROOT
BRANCH   1   3
HETATM    3  C   UNK     0      41.499   3.371  34.131  0.00  0.00     0.216 C 
HETATM    4  C   UNK     0      41.905   3.195  32.667  0.00  0.00     0.042 C 
BRANCH   3   5
HETATM    5  C   UNK     0      41.829   2.101  34.937  0.00  0.00     0.040 C 
BRANCH   5   6
HETATM    6  C   UNK     0      43.117   2.178  35.769  0.00  0.00     0.040 C 
BRANCH   6   7
HETATM    7  C   UNK     0      44.374   1.927  34.974  0.00  0.00    -0.058 A 
HETATM    8  C   UNK     0      44.622   0.658  34.475  0.00  0.00     0.010 A 
HETATM    9  C   UNK     0      45.785   0.426  33.740  0.00  0.00     0.037 A 
HETATM   10  C   UNK     0      46.685   1.468  33.512  0.00  0.00     0.065 A 
HETATM   11  C   UNK     0      46.423   2.741  34.021  0.00  0.00     0.037 A 
HETATM   12  C   UNK     0      45.260   2.972  34.756  0.00  0.00     0.010 A 
BRANCH  10  13
HETATM   13  O   UNK     0      47.820   1.241  32.794  0.00  0.00    -0.361 OA
HETATM   14  H   UNK     0      48.421   0.689  33.322  0.00  0.00     0.217 HD
ENDBRANCH  10  13
ENDBRANCH   6   7
ENDBRANCH   5   6
ENDBRANCH   3   5
ENDBRANCH   1   3
BRANCH   1  15
HETATM   15  C   UNK     0      39.670   3.914  35.586  0.00  0.00     0.274 C 
BRANCH  15  16
HETATM   16  C   UNK     0      38.311   4.614  35.650  0.00  0.00     0.068 C 
BRANCH  16  17
HETATM   17  C   UNK     0      37.814   4.728  37.069  0.00  0.00    -0.054 A 
HETATM   18  C   UNK     0      37.673   3.582  37.836  0.00  0.00     0.046 A 
HETATM   19  C   UNK     0      37.212   3.688  39.149  0.00  0.00     0.099 A 
HETATM   20  C   UNK     0      36.898   4.939  39.678  0.00  0.00     0.098 A 
HETATM   21  C   UNK     0      37.045   6.085  38.895  0.00  0.00     0.040 A 
HETATM   22  C   UNK     0      37.506   5.978  37.584  0.00  0.00     0.010 A 
BRANCH  19  23
HETATM   23  O   UNK     0      37.074   2.561  39.903  0.00  0.00    -0.358 OA
HETATM   24  H   UNK     0      37.582   1.841  39.493  0.00  0.00     0.218 HD
ENDBRANCH  19  23
BRANCH  20  25
HETATM   25  O   UNK     0      36.448   5.056  40.959  0.00  0.00    -0.358 OA
HETATM   26  H   UNK     0      36.979   4.481  41.536  0.00  0.00     0.218 HD
ENDBRANCH  20  25
ENDBRANCH  16  17
ENDBRANCH  15  16
ENDBRANCH   1  15
TORSDOF 10
ENDMDL
MODEL 3
REMARK VINA RESULT:      -7.0      2.330      2.956
REMARK  10 active torsions:
REMARK  status: ('A' for Active; 'I' for Inactive)
REMARK    1  A    between atoms: O_1  and  C_19 
REMARK    2  A    between atoms: O_2  and  C_20 
REMARK    3  A    between atoms: O_3  and  C_22 
REMARK    4  A    between atoms: N_4  and  C_5 
REMARK    5  A    between atoms: N_4  and  C_8 
REMARK    6  A    between atoms: C_5  and  C_6 
REMARK    7  A    between atoms: C_6  and  C_7 
REMARK    8  A    between atoms: C_7  and  C_11 
REMARK    9  A    between atoms: C_8  and  C_10 
REMARK   10  A    between atoms: C_10  and  C_12 
ROOT
HETATM    1  N   UNK     0      40.664   4.057  34.590  0.00  0.00     0.087 N 
HETATM    2  H   UNK     0      41.290   4.846  34.748  0.00  0.00     0.316 HD
ENDROOT
BRANCH   1   3
HETATM    3  C   UNK     0      41.436   2.889  34.163  0.00  0.00     0.216 C 
HETATM    4  C   UNK     0      42.255   2.361  35.341  0.00  0.00     0.042 C 
BRANCH   3   5
HETATM    5  C   UNK     0      42.358   3.243  32.982  0.00  0.00     0.040 C 
BRANCH   5   6
HETATM    6  C   UNK     0      43.636   2.397  32.882  0.00  0.00     0.040 C 
BRANCH   6   7
HETATM    7  C   UNK     0      44.546   2.797  31.748  0.00  0.00    -0.058 A 
HETATM    8  C   UNK     0      45.914   2.856  31.960  0.00  0.00     0.010 A 
HETATM    9  C   UNK     0      46.756   3.227  30.912  0.00  0.00     0.037 A 
HETATM   10  C   UNK     0      46.217   3.533  29.661  0.00  0.00     0.065 A 
HETATM   11  C   UNK     0      44.838   3.471  29.461  0.00  0.00     0.037 A 
HETATM   12  C   UNK     0      43.997   3.099  30.510  0.00  0.00     0.010 A 
BRANCH  10  13
HETATM   13  O   UNK     0      47.039   3.895  28.638  0.00  0.00    -0.361 OA
HETATM   14  H   UNK     0      46.845   4.814  28.388  0.00  0.00     0.217 HD
ENDBRANCH  10  13
ENDBRANCH   6   7
ENDBRANCH   5   6
ENDBRANCH   3   5
ENDBRANCH   1   3
BRANCH   1  15
HETATM   15  C   UNK     0      39.920   3.766  35.806  0.00  0.00     0.274 C 
BRANCH  15  16
HETATM   16  C   UNK     0      38.536   4.417  35.770  0.00  0.00     0.068 C 
BRANCH  16  17
HETATM   17  C   UNK     0      37.970   4.587  37.157  0.00  0.00    -0.054 A 
HETATM   18  C   UNK     0      37.725   3.466  37.936  0.00  0.00     0.046 A 
HETATM   19  C   UNK     0      37.201   3.624  39.219  0.00  0.00     0.099 A 
HETATM   20  C   UNK     0      36.926   4.900  39.707  0.00  0.00     0.098 A 
HETATM   21  C   UNK     0      37.176   6.020  38.913  0.00  0.00     0.040 A 
HETATM   22  C   UNK     0      37.701   5.862  37.631  0.00  0.00     0.010 A 
BRANCH  19  23
HETATM   23  O   UNK     0      36.961   2.522  39.985  0.00  0.00    -0.358 OA
HETATM   24  H   UNK     0      37.008   2.773  40.923  0.00  0.00     0.218 HD
ENDBRANCH  19  23
BRANCH  20  25
HETATM   25  O   UNK     0      36.413   5.068  40.958  0.00  0.00    -0.358 OA
HETATM   26  H   UNK     0      35.524   5.456  40.888  0.00  0.00     0.218 HD
ENDBRANCH  20  25
ENDBRANCH  16  17
ENDBRANCH  15  16
ENDBRANCH   1  15
TORSDOF 10
ENDMDL
