MODEL 1
REMARK VINA RESULT:      -7.8      0.000      0.000
REMARK  10 active torsions:
REMARK  status: ('A' for Active; 'I' for Inactive)
REMARK    1  A    between atoms: O_1  and  C_19 
REMARK    2  A    between atoms: O_2  and  C_20 
REMARK    3  A    between atoms: O_3  and  C_22 
REMARK    4  A    between atoms: N_4  and  C_5 
REMARK    5  A    between atoms: N_4  and  C_8 
REMARK    6  A    between atoms: C_5  and  C_6 
REMARK    7  A    between atoms: C_6  and  C_7 
REMARK    8  A    between atoms: C_7  and  C_11 
REMARK    9  A    between atoms: C_8  and  C_10 
REMARK   10  A    between atoms: C_10  and  C_12 
ROOT
HETATM    1  N   UNK     0     -22.038   9.127  15.370  0.00  0.00     0.087 N 
HETATM    2  H   UNK     0     -21.635   8.523  14.655  0.00  0.00     0.316 HD
ENDROOT
BRANCH   1   3
HETATM    3  C   UNK     0     -23.498   9.064  15.309  0.00  0.00     0.216 C 
HETATM    4  C   UNK     0     -24.083  10.438  15.637  0.00  0.00     0.042 C 
BRANCH   3   5
HETATM    5  C   UNK     0     -24.043   8.001  16.280  0.00  0.00     0.040 C 
BRANCH   5   6
HETATM    6  C   UNK     0     -24.330   6.631  15.647  0.00  0.00     0.040 C 
BRANCH   6   7
HETATM    7  C   UNK     0     -25.294   5.783  16.438  0.00  0.00    -0.058 A 
HETATM    8  C   UNK     0     -26.020   6.358  17.468  0.00  0.00     0.010 A 
HETATM    9  C   UNK     0     -26.911   5.573  18.201  0.00  0.00     0.037 A 
HETATM   10  C   UNK     0     -27.066   4.221  17.891  0.00  0.00     0.065 A 
HETATM   11  C   UNK     0     -26.328   3.654  16.852  0.00  0.00     0.037 A 
HETATM   12  C   UNK     0     -25.437   4.441  16.120  0.00  0.00     0.010 A 
BRANCH  10  13
HETATM   13  O   UNK     0     -27.936   3.456  18.606  0.00  0.00    -0.361 OA
HETATM   14  H   UNK     0     -27.660   2.525  18.544  0.00  0.00     0.217 HD
ENDBRANCH  10  13
ENDBRANCH   6   7
ENDBRANCH   5   6
ENDBRANCH   3   5
ENDBRANCH   1   3
BRANCH   1  15
HETATM   15  C   UNK     0     -21.560   8.725  16.684  0.00  0.00     0.274 C 
BRANCH  15  16
HETATM   16  C   UNK     0     -20.267   7.916  16.572  0.00  0.00     0.068 C 
BRANCH  16  17
HETATM   17  C   UNK     0     -20.342   6.642  17.375  0.00  0.00    -0.054 A 
HETATM   18  C   UNK     0     -21.463   5.833  17.269  0.00  0.00     0.046 A 
HETATM   19  C   UNK     0     -21.531   4.654  18.013  0.00  0.00     0.099 A 
HETATM   20  C   UNK     0     -20.477   4.299  18.854  0.00  0.00     0.098 A 
HETATM   21  C   UNK     0     -19.355   5.123  18.952  0.00  0.00     0.040 A 
HETATM   22  C   UNK     0     -19.287   6.300  18.208  0.00  0.00     0.010 A 
BRANCH  19  23
HETATM   23  O   UNK     0     -22.632   3.859  17.908  0.00  0.00    -0.358 OA
HETATM   24  H   UNK     0     -22.806   3.443  18.769  0.00  0.00     0.218 HD
ENDBRANCH  19  23
BRANCH  20  25
HETATM   25  O   UNK     0     -20.532   3.151  19.586  0.00  0.00    -0.358 OA
HETATM   26  H   UNK     0     -20.972   3.335  20.433  0.00  0.00     0.218 HD
ENDBRANCH  20  25
ENDBRANCH  16  17
ENDBRANCH  15  16
ENDBRANCH   1  15
TORSDOF 10
ENDMDL
MODEL 2
REMARK VINA RESULT:      -7.8      2.707      4.935
REMARK  10 active torsions:
REMARK  status: ('A' for Active; 'I' for Inactive)
REMARK    1  A    between atoms: O_1  and  C_19 
REMARK    2  A    between atoms: O_2  and  C_20 
REMARK    3  A    between atoms: O_3  and  C_22 
REMARK    4  A    between atoms: N_4  and  C_5 
REMARK    5  A    between atoms: N_4  and  C_8 
REMARK    6  A    between atoms: C_5  and  C_6 
REMARK    7  A    between atoms: C_6  and  C_7 
REMARK    8  A    between atoms: C_7  and  C_11 
REMARK    9  A    between atoms: C_8  and  C_10 
REMARK   10  A    between atoms: C_10  and  C_12 
ROOT
HETATM    1  N   UNK     0     -20.057  11.277  15.861  0.00  0.00     0.087 N 
HETATM    2  H   UNK     0     -19.774  11.062  14.905  0.00  0.00     0.316 HD
ENDROOT
BRANCH   1   3
HETATM    3  C   UNK     0     -20.698  12.592  15.904  0.00  0.00     0.216 C 
HETATM    4  C   UNK     0     -21.736  12.617  17.026  0.00  0.00     0.042 C 
BRANCH   3   5
HETATM    5  C   UNK     0     -21.358  12.925  14.553  0.00  0.00     0.040 C 
BRANCH   5   6
HETATM    6  C   UNK     0     -22.891  13.009  14.584  0.00  0.00     0.040 C 
BRANCH   6   7
HETATM    7  C   UNK     0     -23.581  11.706  14.266  0.00  0.00    -0.058 A 
HETATM    8  C   UNK     0     -23.322  11.075  13.060  0.00  0.00     0.010 A 
HETATM    9  C   UNK     0     -23.960   9.870  12.765  0.00  0.00     0.037 A 
HETATM   10  C   UNK     0     -24.849   9.310  13.683  0.00  0.00     0.065 A 
HETATM   11  C   UNK     0     -25.102   9.956  14.894  0.00  0.00     0.037 A 
HETATM   12  C   UNK     0     -24.462  11.161  15.187  0.00  0.00     0.010 A 
BRANCH  10  13
HETATM   13  O   UNK     0     -25.472   8.134  13.396  0.00  0.00    -0.361 OA
HETATM   14  H   UNK     0     -26.004   8.249  12.590  0.00  0.00     0.217 HD
ENDBRANCH  10  13
ENDBRANCH   6   7
ENDBRANCH   5   6
ENDBRANCH   3   5
ENDBRANCH   1   3
BRANCH   1  15
HETATM   15  C   UNK     0     -20.960  10.248  16.352  0.00  0.00     0.274 C 
BRANCH  15  16
HETATM   16  C   UNK     0     -20.183   9.021  16.832  0.00  0.00     0.068 C 
BRANCH  16  17
HETATM   17  C   UNK     0     -21.066   7.801  16.903  0.00  0.00    -0.054 A 
HETATM   18  C   UNK     0     -22.363   7.869  16.419  0.00  0.00     0.046 A 
HETATM   19  C   UNK     0     -23.179   6.739  16.485  0.00  0.00     0.099 A 
HETATM   20  C   UNK     0     -22.688   5.555  17.035  0.00  0.00     0.098 A 
HETATM   21  C   UNK     0     -21.380   5.501  17.518  0.00  0.00     0.040 A 
HETATM   22  C   UNK     0     -20.565   6.630  17.451  0.00  0.00     0.010 A 
BRANCH  19  23
HETATM   23  O   UNK     0     -24.454   6.805  16.009  0.00  0.00    -0.358 OA
HETATM   24  H   UNK     0     -24.434   7.132  15.093  0.00  0.00     0.218 HD
ENDBRANCH  19  23
BRANCH  20  25
HETATM   25  O   UNK     0     -23.475   4.445  17.105  0.00  0.00    -0.358 OA
HETATM   26  H   UNK     0     -23.165   3.796  16.450  0.00  0.00     0.218 HD
ENDBRANCH  20  25
ENDBRANCH  16  17
ENDBRANCH  15  16
ENDBRANCH   1  15
TORSDOF 10
ENDMDL
MODEL 3
REMARK VINA RESULT:      -7.7      2.723      6.352
REMARK  10 active torsions:
REMARK  status: ('A' for Active; 'I' for Inactive)
REMARK    1  A    between atoms: O_1  and  C_19 
REMARK    2  A    between atoms: O_2  and  C_20 
REMARK    3  A    between atoms: O_3  and  C_22 
REMARK    4  A    between atoms: N_4  and  C_5 
REMARK    5  A    between atoms: N_4  and  C_8 
REMARK    6  A    between atoms: C_5  and  C_6 
REMARK    7  A    between atoms: C_6  and  C_7 
REMARK    8  A    between atoms: C_7  and  C_11 
REMARK    9  A    between atoms: C_8  and  C_10 
REMARK   10  A    between atoms: C_10  and  C_12 
ROOT
HETATM    1  N   UNK     0     -22.125   7.268  16.835  0.00  0.00     0.087 N 
HETATM    2  H   UNK     0     -22.587   7.848  17.536  0.00  0.00     0.316 HD
ENDROOT
BRANCH   1   3
HETATM    3  C   UNK     0     -20.737   7.700  16.671  0.00  0.00     0.216 C 
HETATM    4  C   UNK     0     -19.850   6.959  17.672  0.00  0.00     0.042 C 
BRANCH   3   5
HETATM    5  C   UNK     0     -20.609   9.222  16.863  0.00  0.00     0.040 C 
BRANCH   5   6
HETATM    6  C   UNK     0     -20.478  10.030  15.563  0.00  0.00     0.040 C 
BRANCH   6   7
HETATM    7  C   UNK     0     -21.734  10.769  15.174  0.00  0.00    -0.058 A 
HETATM    8  C   UNK     0     -22.122  10.799  13.844  0.00  0.00     0.010 A 
HETATM    9  C   UNK     0     -23.283  11.483  13.484  0.00  0.00     0.037 A 
HETATM   10  C   UNK     0     -24.043  12.128  14.460  0.00  0.00     0.065 A 
HETATM   11  C   UNK     0     -23.641  12.091  15.796  0.00  0.00     0.037 A 
HETATM   12  C   UNK     0     -22.479  11.406  16.155  0.00  0.00     0.010 A 
BRANCH  10  13
HETATM   13  O   UNK     0     -25.177  12.795  14.109  0.00  0.00    -0.361 OA
HETATM   14  H   UNK     0     -25.942  12.349  14.512  0.00  0.00     0.217 HD
ENDBRANCH  10  13
ENDBRANCH   6   7
ENDBRANCH   5   6
ENDBRANCH   3   5
ENDBRANCH   1   3
BRANCH   1  15
HETATM   15  C   UNK     0     -22.186   5.870  17.232  0.00  0.00     0.274 C 
BRANCH  15  16
HETATM   16  C   UNK     0     -22.889   5.029  16.166  0.00  0.00     0.068 C 
BRANCH  16  17
HETATM   17  C   UNK     0     -24.308   4.706  16.562  0.00  0.00    -0.054 A 
HETATM   18  C   UNK     0     -24.897   3.540  16.098  0.00  0.00     0.046 A 
HETATM   19  C   UNK     0     -26.210   3.242  16.466  0.00  0.00     0.099 A 
HETATM   20  C   UNK     0     -26.918   4.115  17.291  0.00  0.00     0.098 A 
HETATM   21  C   UNK     0     -26.312   5.285  17.751  0.00  0.00     0.040 A 
HETATM   22  C   UNK     0     -25.000   5.582  17.384  0.00  0.00     0.010 A 
BRANCH  19  23
HETATM   23  O   UNK     0     -26.789   2.095  16.010  0.00  0.00    -0.358 OA
HETATM   24  H   UNK     0     -27.205   1.633  16.758  0.00  0.00     0.218 HD
ENDBRANCH  19  23
BRANCH  20  25
HETATM   25  O   UNK     0     -28.200   3.836  17.657  0.00  0.00    -0.358 OA
HETATM   26  H   UNK     0     -28.497   4.498  18.304  0.00  0.00     0.218 HD
ENDBRANCH  20  25
ENDBRANCH  16  17
ENDBRANCH  15  16
ENDBRANCH   1  15
TORSDOF 10
ENDMDL
