MODEL 1
REMARK VINA RESULT:      -7.2      0.000      0.000
REMARK  10 active torsions:
REMARK  status: ('A' for Active; 'I' for Inactive)
REMARK    1  A    between atoms: O_1  and  C_19 
REMARK    2  A    between atoms: O_2  and  C_20 
REMARK    3  A    between atoms: O_3  and  C_22 
REMARK    4  A    between atoms: N_4  and  C_5 
REMARK    5  A    between atoms: N_4  and  C_8 
REMARK    6  A    between atoms: C_5  and  C_6 
REMARK    7  A    between atoms: C_6  and  C_7 
REMARK    8  A    between atoms: C_7  and  C_11 
REMARK    9  A    between atoms: C_8  and  C_10 
REMARK   10  A    between atoms: C_10  and  C_12 
ROOT
HETATM    1  N   UNK     0     -20.459  37.330  42.984  0.00  0.00     0.087 N 
HETATM    2  H   UNK     0     -20.564  36.316  42.999  0.00  0.00     0.316 HD
ENDROOT
BRANCH   1   3
HETATM    3  C   UNK     0     -21.413  37.942  43.909  0.00  0.00     0.216 C 
HETATM    4  C   UNK     0     -20.672  38.437  45.152  0.00  0.00     0.042 C 
BRANCH   3   5
HETATM    5  C   UNK     0     -22.515  36.942  44.303  0.00  0.00     0.040 C 
BRANCH   5   6
HETATM    6  C   UNK     0     -22.384  36.356  45.717  0.00  0.00     0.040 C 
BRANCH   6   7
HETATM    7  C   UNK     0     -23.581  36.612  46.598  0.00  0.00    -0.058 A 
HETATM    8  C   UNK     0     -23.923  37.916  46.919  0.00  0.00     0.010 A 
HETATM    9  C   UNK     0     -25.029  38.153  47.735  0.00  0.00     0.037 A 
HETATM   10  C   UNK     0     -25.782  37.082  48.217  0.00  0.00     0.065 A 
HETATM   11  C   UNK     0     -25.426  35.774  47.886  0.00  0.00     0.037 A 
HETATM   12  C   UNK     0     -24.319  35.538  47.070  0.00  0.00     0.010 A 
BRANCH  10  13
HETATM   13  O   UNK     0     -26.862  37.314  49.013  0.00  0.00    -0.361 OA
HETATM   14  H   UNK     0     -27.215  36.461  49.320  0.00  0.00     0.217 HD
ENDBRANCH  10  13
ENDBRANCH   6   7
ENDBRANCH   5   6
ENDBRANCH   3   5
ENDBRANCH   1   3
BRANCH   1  15
HETATM   15  C   UNK     0     -19.095  37.692  43.336  0.00  0.00     0.274 C 
BRANCH  15  16
HETATM   16  C   UNK     0     -18.300  38.103  42.096  0.00  0.00     0.068 C 
BRANCH  16  17
HETATM   17  C   UNK     0     -17.793  36.901  41.340  0.00  0.00    -0.054 A 
HETATM   18  C   UNK     0     -17.564  35.715  42.020  0.00  0.00     0.046 A 
HETATM   19  C   UNK     0     -17.095  34.603  41.320  0.00  0.00     0.099 A 
HETATM   20  C   UNK     0     -16.859  34.691  39.949  0.00  0.00     0.098 A 
HETATM   21  C   UNK     0     -17.094  35.891  39.277  0.00  0.00     0.040 A 
HETATM   22  C   UNK     0     -17.563  37.002  39.976  0.00  0.00     0.010 A 
BRANCH  19  23
HETATM   23  O   UNK     0     -16.871  33.436  41.989  0.00  0.00    -0.358 OA
HETATM   24  H   UNK     0     -16.460  33.637  42.847  0.00  0.00     0.218 HD
ENDBRANCH  19  23
BRANCH  20  25
HETATM   25  O   UNK     0     -16.401  33.612  39.254  0.00  0.00    -0.358 OA
HETATM   26  H   UNK     0     -15.435  33.679  39.166  0.00  0.00     0.218 HD
ENDBRANCH  20  25
ENDBRANCH  16  17
ENDBRANCH  15  16
ENDBRANCH   1  15
TORSDOF 10
ENDMDL
MODEL 2
REMARK VINA RESULT:      -6.8     16.589     18.555
REMARK  10 active torsions:
REMARK  status: ('A' for Active; 'I' for Inactive)
REMARK    1  A    between atoms: O_1  and  C_19 
REMARK    2  A    between atoms: O_2  and  C_20 
REMARK    3  A    between atoms: O_3  and  C_22 
REMARK    4  A    between atoms: N_4  and  C_5 
REMARK    5  A    between atoms: N_4  and  C_8 
REMARK    6  A    between atoms: C_5  and  C_6 
REMARK    7  A    between atoms: C_6  and  C_7 
REMARK    8  A    between atoms: C_7  and  C_11 
REMARK    9  A    between atoms: C_8  and  C_10 
REMARK   10  A    between atoms: C_10  and  C_12 
ROOT
HETATM    1  N   UNK     0     -10.014  29.520  52.062  0.00  0.00     0.087 N 
HETATM    2  H   UNK     0     -10.141  28.524  52.241  0.00  0.00     0.316 HD
ENDROOT
BRANCH   1   3
HETATM    3  C   UNK     0     -10.411  30.290  53.241  0.00  0.00     0.216 C 
HETATM    4  C   UNK     0     -11.349  31.420  52.820  0.00  0.00     0.042 C 
BRANCH   3   5
HETATM    5  C   UNK     0      -9.177  30.857  53.967  0.00  0.00     0.040 C 
BRANCH   5   6
HETATM    6  C   UNK     0      -8.867  30.206  55.324  0.00  0.00     0.040 C 
BRANCH   6   7
HETATM    7  C   UNK     0      -7.863  29.083  55.248  0.00  0.00    -0.058 A 
HETATM    8  C   UNK     0      -6.538  29.332  55.571  0.00  0.00     0.010 A 
HETATM    9  C   UNK     0      -5.609  28.294  55.500  0.00  0.00     0.037 A 
HETATM   10  C   UNK     0      -6.018  27.019  55.108  0.00  0.00     0.065 A 
HETATM   11  C   UNK     0      -7.355  26.782  54.785  0.00  0.00     0.037 A 
HETATM   12  C   UNK     0      -8.283  27.821  54.856  0.00  0.00     0.010 A 
BRANCH  10  13
HETATM   13  O   UNK     0      -5.111  26.005  55.039  0.00  0.00    -0.361 OA
HETATM   14  H   UNK     0      -4.854  25.876  54.110  0.00  0.00     0.217 HD
ENDBRANCH  10  13
ENDBRANCH   6   7
ENDBRANCH   5   6
ENDBRANCH   3   5
ENDBRANCH   1   3
BRANCH   1  15
HETATM   15  C   UNK     0      -8.627  29.787  51.716  0.00  0.00     0.274 C 
BRANCH  15  16
HETATM   16  C   UNK     0      -8.181  28.924  50.534  0.00  0.00     0.068 C 
BRANCH  16  17
HETATM   17  C   UNK     0      -6.685  28.736  50.519  0.00  0.00    -0.054 A 
HETATM   18  C   UNK     0      -6.001  28.804  49.315  0.00  0.00     0.046 A 
HETATM   19  C   UNK     0      -4.617  28.630  49.303  0.00  0.00     0.099 A 
HETATM   20  C   UNK     0      -3.934  28.389  50.494  0.00  0.00     0.098 A 
HETATM   21  C   UNK     0      -4.635  28.323  51.699  0.00  0.00     0.040 A 
HETATM   22  C   UNK     0      -6.018  28.498  51.711  0.00  0.00     0.010 A 
BRANCH  19  23
HETATM   23  O   UNK     0      -3.945  28.697  48.119  0.00  0.00    -0.358 OA
HETATM   24  H   UNK     0      -4.046  27.851  47.649  0.00  0.00     0.218 HD
ENDBRANCH  19  23
BRANCH  20  25
HETATM   25  O   UNK     0      -2.582  28.217  50.495  0.00  0.00    -0.358 OA
HETATM   26  H   UNK     0      -2.183  28.848  51.118  0.00  0.00     0.218 HD
ENDBRANCH  20  25
ENDBRANCH  16  17
ENDBRANCH  15  16
ENDBRANCH   1  15
TORSDOF 10
ENDMDL
MODEL 3
REMARK VINA RESULT:      -6.5     17.577     19.156
REMARK  10 active torsions:
REMARK  status: ('A' for Active; 'I' for Inactive)
REMARK    1  A    between atoms: O_1  and  C_19 
REMARK    2  A    between atoms: O_2  and  C_20 
REMARK    3  A    between atoms: O_3  and  C_22 
REMARK    4  A    between atoms: N_4  and  C_5 
REMARK    5  A    between atoms: N_4  and  C_8 
REMARK    6  A    between atoms: C_5  and  C_6 
REMARK    7  A    between atoms: C_6  and  C_7 
REMARK    8  A    between atoms: C_7  and  C_11 
REMARK    9  A    between atoms: C_8  and  C_10 
REMARK   10  A    between atoms: C_10  and  C_12 
ROOT
HETATM    1  N   UNK     0      -9.007  30.476  52.827  0.00  0.00     0.087 N 
HETATM    2  H   UNK     0      -9.881  30.986  52.959  0.00  0.00     0.316 HD
ENDROOT
BRANCH   1   3
HETATM    3  C   UNK     0      -8.768  29.598  53.972  0.00  0.00     0.216 C 
HETATM    4  C   UNK     0     -10.061  29.437  54.772  0.00  0.00     0.042 C 
BRANCH   3   5
HETATM    5  C   UNK     0      -7.647  30.158  54.868  0.00  0.00     0.040 C 
BRANCH   5   6
HETATM    6  C   UNK     0      -6.734  29.098  55.502  0.00  0.00     0.040 C 
BRANCH   6   7
HETATM    7  C   UNK     0      -6.268  29.447  56.893  0.00  0.00    -0.058 A 
HETATM    8  C   UNK     0      -4.980  29.115  57.283  0.00  0.00     0.010 A 
HETATM    9  C   UNK     0      -4.549  29.437  58.570  0.00  0.00     0.037 A 
HETATM   10  C   UNK     0      -5.412  30.089  59.452  0.00  0.00     0.065 A 
HETATM   11  C   UNK     0      -6.706  30.417  59.047  0.00  0.00     0.037 A 
HETATM   12  C   UNK     0      -7.136  30.095  57.759  0.00  0.00     0.010 A 
BRANCH  10  13
HETATM   13  O   UNK     0      -4.990  30.404  60.708  0.00  0.00    -0.361 OA
HETATM   14  H   UNK     0      -4.737  31.343  60.728  0.00  0.00     0.217 HD
ENDBRANCH  10  13
ENDBRANCH   6   7
ENDBRANCH   5   6
ENDBRANCH   3   5
ENDBRANCH   1   3
BRANCH   1  15
HETATM   15  C   UNK     0      -9.064  29.709  51.593  0.00  0.00     0.274 C 
BRANCH  15  16
HETATM   16  C   UNK     0      -8.142  28.491  51.662  0.00  0.00     0.068 C 
BRANCH  16  17
HETATM   17  C   UNK     0      -6.998  28.607  50.687  0.00  0.00    -0.054 A 
HETATM   18  C   UNK     0      -6.540  27.473  50.035  0.00  0.00     0.046 A 
HETATM   19  C   UNK     0      -5.481  27.581  49.133  0.00  0.00     0.099 A 
HETATM   20  C   UNK     0      -4.892  28.822  48.896  0.00  0.00     0.098 A 
HETATM   21  C   UNK     0      -5.362  29.956  49.560  0.00  0.00     0.040 A 
HETATM   22  C   UNK     0      -6.421  29.848  50.460  0.00  0.00     0.010 A 
BRANCH  19  23
HETATM   23  O   UNK     0      -5.032  26.467  48.490  0.00  0.00    -0.358 OA
HETATM   24  H   UNK     0      -5.537  26.350  47.668  0.00  0.00     0.218 HD
ENDBRANCH  19  23
BRANCH  20  25
HETATM   25  O   UNK     0      -3.857  28.942  48.018  0.00  0.00    -0.358 OA
HETATM   26  H   UNK     0      -3.024  28.740  48.479  0.00  0.00     0.218 HD
ENDBRANCH  20  25
ENDBRANCH  16  17
ENDBRANCH  15  16
ENDBRANCH   1  15
TORSDOF 10
ENDMDL
