MODEL 1
REMARK VINA RESULT:      -6.5      0.000      0.000
REMARK  10 active torsions:
REMARK  status: ('A' for Active; 'I' for Inactive)
REMARK    1  A    between atoms: O_1  and  C_19 
REMARK    2  A    between atoms: O_2  and  C_20 
REMARK    3  A    between atoms: O_3  and  C_22 
REMARK    4  A    between atoms: N_4  and  C_5 
REMARK    5  A    between atoms: N_4  and  C_8 
REMARK    6  A    between atoms: C_5  and  C_6 
REMARK    7  A    between atoms: C_6  and  C_7 
REMARK    8  A    between atoms: C_7  and  C_11 
REMARK    9  A    between atoms: C_8  and  C_10 
REMARK   10  A    between atoms: C_10  and  C_12 
ROOT
HETATM    1  N   UNK     0       9.640   8.794  12.241  0.00  0.00     0.087 N 
HETATM    2  H   UNK     0       9.989   9.752  12.260  0.00  0.00     0.316 HD
ENDROOT
BRANCH   1   3
HETATM    3  C   UNK     0      10.419   8.000  11.291  0.00  0.00     0.216 C 
HETATM    4  C   UNK     0      10.511   8.744   9.959  0.00  0.00     0.042 C 
BRANCH   3   5
HETATM    5  C   UNK     0       9.789   6.610  11.089  0.00  0.00     0.040 C 
BRANCH   5   6
HETATM    6  C   UNK     0       9.903   6.047   9.665  0.00  0.00     0.040 C 
BRANCH   6   7
HETATM    7  C   UNK     0       9.388   4.636   9.523  0.00  0.00    -0.058 A 
HETATM    8  C   UNK     0       9.982   3.618  10.253  0.00  0.00     0.010 A 
HETATM    9  C   UNK     0       9.507   2.313  10.121  0.00  0.00     0.037 A 
HETATM   10  C   UNK     0       8.442   2.043   9.261  0.00  0.00     0.065 A 
HETATM   11  C   UNK     0       7.853   3.078   8.532  0.00  0.00     0.037 A 
HETATM   12  C   UNK     0       8.330   4.382   8.665  0.00  0.00     0.010 A 
BRANCH  10  13
HETATM   13  O   UNK     0       7.977   0.770   9.133  0.00  0.00    -0.361 OA
HETATM   14  H   UNK     0       8.250   0.256   9.913  0.00  0.00     0.217 HD
ENDBRANCH  10  13
ENDBRANCH   6   7
ENDBRANCH   5   6
ENDBRANCH   3   5
ENDBRANCH   1   3
BRANCH   1  15
HETATM   15  C   UNK     0       9.709   8.216  13.574  0.00  0.00     0.274 C 
BRANCH  15  16
HETATM   16  C   UNK     0       8.746   8.923  14.528  0.00  0.00     0.068 C 
BRANCH  16  17
HETATM   17  C   UNK     0       8.584   8.158  15.818  0.00  0.00    -0.054 A 
HETATM   18  C   UNK     0       7.401   8.269  16.533  0.00  0.00     0.046 A 
HETATM   19  C   UNK     0       7.253   7.561  17.726  0.00  0.00     0.099 A 
HETATM   20  C   UNK     0       8.289   6.752  18.190  0.00  0.00     0.098 A 
HETATM   21  C   UNK     0       9.475   6.649  17.461  0.00  0.00     0.040 A 
HETATM   22  C   UNK     0       9.622   7.356  16.268  0.00  0.00     0.010 A 
BRANCH  19  23
HETATM   23  O   UNK     0       6.090   7.669  18.429  0.00  0.00    -0.358 OA
HETATM   24  H   UNK     0       5.381   7.218  17.939  0.00  0.00     0.218 HD
ENDBRANCH  19  23
BRANCH  20  25
HETATM   25  O   UNK     0       8.157   6.056  19.354  0.00  0.00    -0.358 OA
HETATM   26  H   UNK     0       7.477   5.369  19.237  0.00  0.00     0.218 HD
ENDBRANCH  20  25
ENDBRANCH  16  17
ENDBRANCH  15  16
ENDBRANCH   1  15
TORSDOF 10
ENDMDL
MODEL 2
REMARK VINA RESULT:      -5.9      6.405      8.632
REMARK  10 active torsions:
REMARK  status: ('A' for Active; 'I' for Inactive)
REMARK    1  A    between atoms: O_1  and  C_19 
REMARK    2  A    between atoms: O_2  and  C_20 
REMARK    3  A    between atoms: O_3  and  C_22 
REMARK    4  A    between atoms: N_4  and  C_5 
REMARK    5  A    between atoms: N_4  and  C_8 
REMARK    6  A    between atoms: C_5  and  C_6 
REMARK    7  A    between atoms: C_6  and  C_7 
REMARK    8  A    between atoms: C_7  and  C_11 
REMARK    9  A    between atoms: C_8  and  C_10 
REMARK   10  A    between atoms: C_10  and  C_12 
ROOT
HETATM    1  N   UNK     0       6.779   5.801  20.765  0.00  0.00     0.087 N 
HETATM    2  H   UNK     0       6.255   6.529  21.251  0.00  0.00     0.316 HD
ENDROOT
BRANCH   1   3
HETATM    3  C   UNK     0       5.862   4.765  20.288  0.00  0.00     0.216 C 
HETATM    4  C   UNK     0       4.514   5.397  19.942  0.00  0.00     0.042 C 
BRANCH   3   5
HETATM    5  C   UNK     0       5.683   3.661  21.346  0.00  0.00     0.040 C 
BRANCH   5   6
HETATM    6  C   UNK     0       6.035   2.244  20.869  0.00  0.00     0.040 C 
BRANCH   6   7
HETATM    7  C   UNK     0       7.458   2.096  20.390  0.00  0.00    -0.058 A 
HETATM    8  C   UNK     0       8.500   2.293  21.282  0.00  0.00     0.010 A 
HETATM    9  C   UNK     0       9.816   2.158  20.839  0.00  0.00     0.037 A 
HETATM   10  C   UNK     0      10.073   1.826  19.508  0.00  0.00     0.065 A 
HETATM   11  C   UNK     0       9.014   1.631  18.621  0.00  0.00     0.037 A 
HETATM   12  C   UNK     0       7.698   1.766  19.065  0.00  0.00     0.010 A 
BRANCH  10  13
HETATM   13  O   UNK     0      11.357   1.693  19.076  0.00  0.00    -0.361 OA
HETATM   14  H   UNK     0      11.694   0.825  19.356  0.00  0.00     0.217 HD
ENDBRANCH  10  13
ENDBRANCH   6   7
ENDBRANCH   5   6
ENDBRANCH   3   5
ENDBRANCH   1   3
BRANCH   1  15
HETATM   15  C   UNK     0       7.521   6.381  19.657  0.00  0.00     0.274 C 
BRANCH  15  16
HETATM   16  C   UNK     0       8.245   5.298  18.856  0.00  0.00     0.068 C 
BRANCH  16  17
HETATM   17  C   UNK     0       9.482   5.839  18.185  0.00  0.00    -0.054 A 
HETATM   18  C   UNK     0       9.378   6.940  17.349  0.00  0.00     0.046 A 
HETATM   19  C   UNK     0      10.523   7.440  16.729  0.00  0.00     0.099 A 
HETATM   20  C   UNK     0      11.759   6.834  16.952  0.00  0.00     0.098 A 
HETATM   21  C   UNK     0      11.849   5.726  17.796  0.00  0.00     0.040 A 
HETATM   22  C   UNK     0      10.705   5.227  18.416  0.00  0.00     0.010 A 
BRANCH  19  23
HETATM   23  O   UNK     0      10.421   8.523  15.907  0.00  0.00    -0.358 OA
HETATM   24  H   UNK     0      11.180   9.111  16.063  0.00  0.00     0.218 HD
ENDBRANCH  19  23
BRANCH  20  25
HETATM   25  O   UNK     0      12.884   7.312  16.353  0.00  0.00    -0.358 OA
HETATM   26  H   UNK     0      13.432   6.563  16.061  0.00  0.00     0.218 HD
ENDBRANCH  20  25
ENDBRANCH  16  17
ENDBRANCH  15  16
ENDBRANCH   1  15
TORSDOF 10
ENDMDL
MODEL 3
REMARK VINA RESULT:      -5.7      3.154      8.126
REMARK  10 active torsions:
REMARK  status: ('A' for Active; 'I' for Inactive)
REMARK    1  A    between atoms: O_1  and  C_19 
REMARK    2  A    between atoms: O_2  and  C_20 
REMARK    3  A    between atoms: O_3  and  C_22 
REMARK    4  A    between atoms: N_4  and  C_5 
REMARK    5  A    between atoms: N_4  and  C_8 
REMARK    6  A    between atoms: C_5  and  C_6 
REMARK    7  A    between atoms: C_6  and  C_7 
REMARK    8  A    between atoms: C_7  and  C_11 
REMARK    9  A    between atoms: C_8  and  C_10 
REMARK   10  A    between atoms: C_10  and  C_12 
ROOT
HETATM    1  N   UNK     0       9.670   8.697  14.718  0.00  0.00     0.087 N 
HETATM    2  H   UNK     0      10.127   9.609  14.734  0.00  0.00     0.316 HD
ENDROOT
BRANCH   1   3
HETATM    3  C   UNK     0       8.503   8.710  15.599  0.00  0.00     0.216 C 
HETATM    4  C   UNK     0       8.551   9.950  16.492  0.00  0.00     0.042 C 
BRANCH   3   5
HETATM    5  C   UNK     0       8.446   7.432  16.456  0.00  0.00     0.040 C 
BRANCH   5   6
HETATM    6  C   UNK     0       9.630   7.242  17.415  0.00  0.00     0.040 C 
BRANCH   6   7
HETATM    7  C   UNK     0       9.748   5.845  17.970  0.00  0.00    -0.058 A 
HETATM    8  C   UNK     0       8.619   5.210  18.462  0.00  0.00     0.010 A 
HETATM    9  C   UNK     0       8.728   3.918  18.977  0.00  0.00     0.037 A 
HETATM   10  C   UNK     0       9.967   3.276  18.991  0.00  0.00     0.065 A 
HETATM   11  C   UNK     0      11.096   3.926  18.493  0.00  0.00     0.037 A 
HETATM   12  C   UNK     0      10.986   5.219  17.979  0.00  0.00     0.010 A 
BRANCH  10  13
HETATM   13  O   UNK     0      10.073   2.014  19.492  0.00  0.00    -0.361 OA
HETATM   14  H   UNK     0      11.012   1.761  19.511  0.00  0.00     0.217 HD
ENDBRANCH  10  13
ENDBRANCH   6   7
ENDBRANCH   5   6
ENDBRANCH   3   5
ENDBRANCH   1   3
BRANCH   1  15
HETATM   15  C   UNK     0       9.284   8.362  13.356  0.00  0.00     0.274 C 
BRANCH  15  16
HETATM   16  C   UNK     0       9.843   9.380  12.362  0.00  0.00     0.068 C 
BRANCH  16  17
HETATM   17  C   UNK     0       9.987   8.786  10.983  0.00  0.00    -0.054 A 
HETATM   18  C   UNK     0      10.234   7.428  10.849  0.00  0.00     0.046 A 
HETATM   19  C   UNK     0      10.366   6.880   9.573  0.00  0.00     0.099 A 
HETATM   20  C   UNK     0      10.252   7.695   8.447  0.00  0.00     0.098 A 
HETATM   21  C   UNK     0      10.003   9.060   8.598  0.00  0.00     0.040 A 
HETATM   22  C   UNK     0       9.870   9.608   9.873  0.00  0.00     0.010 A 
BRANCH  19  23
HETATM   23  O   UNK     0      10.608   5.545   9.440  0.00  0.00    -0.358 OA
HETATM   24  H   UNK     0      11.265   5.411   8.736  0.00  0.00     0.218 HD
ENDBRANCH  19  23
BRANCH  20  25
HETATM   25  O   UNK     0      10.380   7.171   7.196  0.00  0.00    -0.358 OA
HETATM   26  H   UNK     0      10.984   7.730   6.678  0.00  0.00     0.218 HD
ENDBRANCH  20  25
ENDBRANCH  16  17
ENDBRANCH  15  16
ENDBRANCH   1  15
TORSDOF 10
ENDMDL
