REMARK  1 active torsions:
REMARK  status: ('A' for Active; 'I' for Inactive)
REMARK    1  A    between atoms: C_9  and  C_14 
ROOT
HETATM    1 Cl   UNK     0      -1.091   4.462   0.769  0.00  0.00    -0.084 Cl
HETATM    2  N   UNK     0       2.162  -0.425  -0.081  0.00  0.00    -0.282 N 
HETATM    3  N   UNK     0      -0.299  -1.786   1.106  0.00  0.00    -0.281 NA
HETATM    4  N   UNK     0       3.001  -2.439   0.227  0.00  0.00    -0.133 NA
HETATM    5  N   UNK     0       3.793  -1.779  -0.681  0.00  0.00    -0.135 NA
HETATM    6  C   UNK     0       1.332   0.710   0.053  0.00  0.00     0.055 A 
HETATM    7  C   UNK     0      -0.005   0.605   0.485  0.00  0.00     0.022 A 
HETATM    8  C   UNK     0       2.046  -1.615   0.602  0.00  0.00     0.155 A 
HETATM    9  C   UNK     0      -0.750  -0.694   0.588  0.00  0.00     0.074 C 
HETATM   10  C   UNK     0       1.039  -1.831   1.663  0.00  0.00     0.230 C 
HETATM   11  C   UNK     0       3.298  -0.572  -0.835  0.00  0.00     0.131 A 
HETATM   12  C   UNK     0       1.879   1.974  -0.219  0.00  0.00     0.033 A 
HETATM   13  C   UNK     0      -0.738   1.782   0.721  0.00  0.00     0.040 A 
HETATM   14  C   UNK     0       1.126   3.129  -0.003  0.00  0.00     0.026 A 
HETATM   15  C   UNK     0      -0.173   3.034   0.482  0.00  0.00     0.035 A 
HETATM   16  C   UNK     0       3.821   0.387  -1.830  0.00  0.00     0.094 C 
ENDROOT
BRANCH   9  17
HETATM   17  C   UNK     0      -2.129  -0.761   0.019  0.00  0.00    -0.007 A 
HETATM   18  C   UNK     0      -2.460   0.036  -1.067  0.00  0.00     0.014 A 
HETATM   19  C   UNK     0      -3.749  -0.027  -1.599  0.00  0.00     0.001 A 
HETATM   20  C   UNK     0      -4.693  -0.887  -1.039  0.00  0.00     0.000 A 
HETATM   21  C   UNK     0      -4.349  -1.684   0.053  0.00  0.00     0.001 A 
HETATM   22  C   UNK     0      -3.061  -1.621   0.585  0.00  0.00     0.014 A 
ENDBRANCH   9  17
TORSDOF 1
