REMARK  5 active torsions:
REMARK  status: ('A' for Active; 'I' for Inactive)
REMARK    1  A    between atoms: O_4  and  C_33 
REMARK    2  A    between atoms: N_5  and  C_19 
REMARK    3  A    between atoms: N_6  and  C_20 
REMARK    4  A    between atoms: N_7  and  C_27 
REMARK       I    between atoms: N_9  and  C_28 
REMARK    5  A    between atoms: C_22  and  C_28 
ROOT
HETATM    1  O   UNK     0       0.654  -0.794  -0.044  0.00  0.00    -0.265 OA
HETATM    2  N   UNK     0      -0.202   1.403  -0.147  0.00  0.00    -0.312 N 
HETATM    3  N   UNK     0       3.362   0.342  -0.009  0.00  0.00    -0.227 N 
HETATM    4  N   UNK     0       4.420   1.171   0.072  0.00  0.00    -0.161 NA
HETATM    5  C   UNK     0       1.399   3.343   0.205  0.00  0.00     0.064 C 
HETATM    6  C   UNK     0       0.133   2.815  -0.492  0.00  0.00     0.137 C 
HETATM    7  C   UNK     0       2.457   2.322   0.126  0.00  0.00     0.014 A 
HETATM    8  C   UNK     0       2.158   0.986   0.012  0.00  0.00     0.136 A 
HETATM    9  C   UNK     0       0.830   0.422  -0.052  0.00  0.00     0.277 C 
HETATM   10  C   UNK     0       3.859   2.382   0.157  0.00  0.00     0.153 A 
ENDROOT
BRANCH   2  11
HETATM   11  C   UNK     0      -1.593   1.027  -0.105  0.00  0.00     0.037 A 
HETATM   12  C   UNK     0      -1.983  -0.098   0.616  0.00  0.00     0.032 A 
HETATM   13  C   UNK     0      -3.329  -0.463   0.656  0.00  0.00     0.032 A 
HETATM   14  C   UNK     0      -4.279   0.299  -0.025  0.00  0.00     0.037 A 
HETATM   15  C   UNK     0      -3.882   1.426  -0.746  0.00  0.00     0.032 A 
HETATM   16  C   UNK     0      -2.536   1.791  -0.785  0.00  0.00     0.032 A 
BRANCH  14  17
HETATM   17  N   UNK     0      -5.674  -0.078   0.016  0.00  0.00    -0.318 N 
HETATM   18  C   UNK     0      -6.667   0.961  -0.306  0.00  0.00     0.132 C 
HETATM   19  C   UNK     0      -8.053   0.697   0.259  0.00  0.00     0.021 C 
HETATM   20  C   UNK     0      -8.484  -0.703  -0.116  0.00  0.00     0.011 C 
HETATM   21  C   UNK     0      -7.510  -1.690   0.489  0.00  0.00     0.103 C 
HETATM   22  C   UNK     0      -6.052  -1.426   0.152  0.00  0.00     0.224 C 
HETATM   23  O   UNK     0      -5.290  -2.394   0.079  0.00  0.00    -0.273 OA
ENDBRANCH  14  17
ENDBRANCH   2  11
BRANCH   3  24
HETATM   24  C   UNK     0       3.578  -1.033  -0.114  0.00  0.00     0.059 A 
HETATM   25  C   UNK     0       3.716  -1.610  -1.369  0.00  0.00     0.034 A 
HETATM   26  C   UNK     0       3.931  -2.985  -1.474  0.00  0.00     0.039 A 
HETATM   27  C   UNK     0       4.007  -3.769  -0.324  0.00  0.00     0.068 A 
HETATM   28  C   UNK     0       3.868  -3.179   0.933  0.00  0.00     0.039 A 
HETATM   29  C   UNK     0       3.652  -1.805   1.038  0.00  0.00     0.034 A 
BRANCH  27  30
HETATM   30  O   UNK     0       4.218  -5.110  -0.426  0.00  0.00    -0.356 OA
HETATM   31  C   UNK     0       4.285  -5.852   0.791  0.00  0.00     0.210 C 
ENDBRANCH  27  30
ENDBRANCH   3  24
BRANCH  10  32
HETATM   32  C   UNK     0       4.692   3.545   0.271  0.00  0.00     0.270 C 
HETATM   33  O   UNK     0       4.241   4.704   0.381  0.00  0.00    -0.266 OA
HETATM   34  N   UNK     0       6.075   3.353   0.281  0.00  0.00    -0.365 N 
HETATM   35  H   UNK     0       6.492   2.431   0.204  0.00  0.00     0.159 HD
HETATM   36  H   UNK     0       6.709   4.140   0.367  0.00  0.00     0.159 HD
ENDBRANCH  10  32
TORSDOF 5
