REMARK  0 active torsions:
REMARK  status: ('A' for Active; 'I' for Inactive)
ROOT
HETATM    1  O   UNK     0       0.470   2.569   0.001  0.00  0.00    -0.265 OA
HETATM    2  O   UNK     0      -3.127  -0.444   0.000  0.00  0.00    -0.246 OA
HETATM    3  N   UNK     0      -0.969  -1.313   0.000  0.00  0.00    -0.286 N 
HETATM    4  N   UNK     0       2.218   0.141   0.000  0.00  0.00    -0.338 N 
HETATM    5  N   UNK     0      -1.348   1.080   0.000  0.00  0.00    -0.269 N 
HETATM    6  N   UNK     0       1.412  -1.937   0.000  0.00  0.00    -0.223 NA
HETATM    7  C   UNK     0       0.858   0.259  -0.001  0.00  0.00     0.151 A 
HETATM    8  C   UNK     0       0.390  -1.026   0.000  0.00  0.00     0.167 A 
HETATM    9  C   UNK     0       0.031   1.422  -0.001  0.00  0.00     0.282 A 
HETATM   10  C   UNK     0      -1.906  -0.250   0.000  0.00  0.00     0.332 A 
HETATM   11  C   UNK     0       2.503  -1.200   0.000  0.00  0.00     0.212 A 
HETATM   12  C   UNK     0      -1.428  -2.696   0.001  0.00  0.00     0.163 C 
HETATM   13  C   UNK     0       3.193   1.206   0.000  0.00  0.00     0.157 C 
HETATM   14  C   UNK     0      -2.297   2.188   0.001  0.00  0.00     0.164 C 
ENDROOT
TORSDOF 0
