REMARK  10 active torsions:
REMARK  status: ('A' for Active; 'I' for Inactive)
REMARK    1  A    between atoms: O_1  and  C_19 
REMARK    2  A    between atoms: O_2  and  C_20 
REMARK    3  A    between atoms: O_3  and  C_22 
REMARK    4  A    between atoms: N_4  and  C_5 
REMARK    5  A    between atoms: N_4  and  C_8 
REMARK    6  A    between atoms: C_5  and  C_6 
REMARK    7  A    between atoms: C_6  and  C_7 
REMARK    8  A    between atoms: C_7  and  C_11 
REMARK    9  A    between atoms: C_8  and  C_10 
REMARK   10  A    between atoms: C_10  and  C_12 
ROOT
HETATM    1  N   UNK     0       0.072   3.034   0.374  0.00  0.00     0.087 N 
HETATM    2  H   UNK     0       0.603   3.897   0.491  0.00  0.00     0.316 HD
ENDROOT
BRANCH   1   3
HETATM    3  C   UNK     0      -1.019   3.248  -0.577  0.00  0.00     0.216 C 
HETATM    4  C   UNK     0      -1.931   4.363  -0.065  0.00  0.00     0.042 C 
BRANCH   3   5
HETATM    5  C   UNK     0      -1.822   1.952  -0.792  0.00  0.00     0.040 C 
BRANCH   5   6
HETATM    6  C   UNK     0      -2.448   1.359   0.479  0.00  0.00     0.040 C 
BRANCH   6   7
HETATM    7  C   UNK     0      -3.173   0.056   0.252  0.00  0.00    -0.058 A 
HETATM    8  C   UNK     0      -4.521   0.074  -0.070  0.00  0.00     0.010 A 
HETATM    9  C   UNK     0      -5.192  -1.131  -0.279  0.00  0.00     0.037 A 
HETATM   10  C   UNK     0      -4.505  -2.340  -0.165  0.00  0.00     0.065 A 
HETATM   11  C   UNK     0      -3.148  -2.344   0.160  0.00  0.00     0.037 A 
HETATM   12  C   UNK     0      -2.478  -1.138   0.369  0.00  0.00     0.010 A 
BRANCH  10  13
HETATM   13  O   UNK     0      -5.160  -3.516  -0.370  0.00  0.00    -0.361 OA
HETATM   14  H   UNK     0      -6.089  -3.325  -0.585  0.00  0.00     0.217 HD
ENDBRANCH  10  13
ENDBRANCH   6   7
ENDBRANCH   5   6
ENDBRANCH   3   5
ENDBRANCH   1   3
BRANCH   1  15
HETATM   15  C   UNK     0       0.952   1.970  -0.083  0.00  0.00     0.274 C 
BRANCH  15  16
HETATM   16  C   UNK     0       2.094   1.740   0.908  0.00  0.00     0.068 C 
BRANCH  16  17
HETATM   17  C   UNK     0       3.026   0.653   0.435  0.00  0.00    -0.054 A 
HETATM   18  C   UNK     0       2.780  -0.662   0.799  0.00  0.00     0.046 A 
HETATM   19  C   UNK     0       3.643  -1.667   0.361  0.00  0.00     0.099 A 
HETATM   20  C   UNK     0       4.742  -1.345  -0.434  0.00  0.00     0.098 A 
HETATM   21  C   UNK     0       4.978  -0.017  -0.793  0.00  0.00     0.040 A 
HETATM   22  C   UNK     0       4.115   0.987  -0.356  0.00  0.00     0.010 A 
BRANCH  19  23
HETATM   23  O   UNK     0       3.401  -2.960   0.718  0.00  0.00    -0.358 OA
HETATM   24  H   UNK     0       2.599  -2.992   1.267  0.00  0.00     0.218 HD
ENDBRANCH  19  23
BRANCH  20  25
HETATM   25  O   UNK     0       5.592  -2.317  -0.868  0.00  0.00    -0.358 OA
HETATM   26  H   UNK     0       6.293  -1.909  -1.405  0.00  0.00     0.218 HD
ENDBRANCH  20  25
ENDBRANCH  16  17
ENDBRANCH  15  16
ENDBRANCH   1  15
TORSDOF 10
