REMARK  6 active torsions:
REMARK  status: ('A' for Active; 'I' for Inactive)
REMARK    1  A    between atoms: O_4  and  C_7 
REMARK    2  A    between atoms: O_4  and  C_10 
REMARK    3  A    between atoms: N_5  and  C_8 
REMARK    4  A    between atoms: C_7  and  C_8 
REMARK    5  A    between atoms: C_7  and  C_9 
REMARK    6  A    between atoms: C_10  and  C_13 
ROOT
HETATM    1  C   UNK     0       1.100   0.858  -0.186  0.00  0.00     0.174 C 
ENDROOT
BRANCH   1   2
HETATM    2  O   UNK     0      -0.223   0.416   0.078  0.00  0.00    -0.375 OA
BRANCH   2   3
HETATM    3  C   UNK     0      -0.608  -0.633  -0.802  0.00  0.00     0.207 C 
BRANCH   3   4
HETATM    4  C   UNK     0      -2.001  -1.061  -0.485  0.00  0.00    -0.035 A 
HETATM    5  C   UNK     0      -2.224  -2.075   0.446  0.00  0.00     0.011 A 
HETATM    6  C   UNK     0      -3.527  -2.476   0.742  0.00  0.00     0.024 A 
HETATM    7  C   UNK     0      -4.607  -1.862   0.108  0.00  0.00     0.034 A 
HETATM    8 Cl   UNK     0      -6.214  -2.356   0.473  0.00  0.00    -0.084 Cl
HETATM    9  C   UNK     0      -4.384  -0.847  -0.823  0.00  0.00     0.024 A 
HETATM   10  C   UNK     0      -3.081  -0.446  -1.119  0.00  0.00     0.011 A 
ENDBRANCH   3   4
ENDBRANCH   2   3
ENDBRANCH   1   2
BRANCH   1  11
HETATM   11  C   UNK     0       1.419   2.048   0.731  0.00  0.00     0.166 C 
BRANCH  11  12
HETATM   12  N   UNK     0       0.558   3.204   0.509  0.00  0.00    -0.347 N 
HETATM   13  C   UNK     0      -0.621   3.447   1.136  0.00  0.00     0.111 A 
HETATM   14  C   UNK     0      -1.052   4.637   0.600  0.00  0.00     0.135 A 
HETATM   15  N   UNK     0      -0.163   5.112  -0.331  0.00  0.00    -0.255 NA
HETATM   16  C   UNK     0       0.801   4.219  -0.360  0.00  0.00     0.209 A 
ENDBRANCH  11  12
ENDBRANCH   1  11
BRANCH   1  17
HETATM   17  C   UNK     0       2.044  -0.308   0.000  0.00  0.00    -0.006 A 
HETATM   18  C   UNK     0       2.770  -0.817  -1.065  0.00  0.00     0.044 A 
HETATM   19 Cl   UNK     0       2.643  -0.156  -2.654  0.00  0.00    -0.084 Cl
HETATM   20  C   UNK     0       3.630  -1.895  -0.854  0.00  0.00     0.048 A 
HETATM   21  C   UNK     0       3.754  -2.450   0.419  0.00  0.00     0.035 A 
HETATM   22 Cl   UNK     0       4.815  -3.780   0.680  0.00  0.00    -0.084 Cl
HETATM   23  C   UNK     0       3.017  -1.928   1.482  0.00  0.00     0.024 A 
HETATM   24  C   UNK     0       2.157  -0.850   1.272  0.00  0.00     0.013 A 
ENDBRANCH   1  17
TORSDOF 6
