REMARK  9 active torsions:
REMARK  status: ('A' for Active; 'I' for Inactive)
REMARK    1  A    between atoms: S_1  and  C_14 
REMARK    2  A    between atoms: S_1  and  C_15 
REMARK    3  A    between atoms: S_2  and  N_6 
REMARK    4  A    between atoms: S_2  and  N_10 
REMARK    5  A    between atoms: N_8  and  C_16 
REMARK    6  A    between atoms: N_9  and  C_19 
REMARK       I    between atoms: N_11  and  C_20 
REMARK       I    between atoms: N_12  and  C_20 
REMARK    7  A    between atoms: C_13  and  C_14 
REMARK    8  A    between atoms: C_13  and  C_16 
REMARK    9  A    between atoms: C_15  and  C_17 
ROOT
HETATM    1  S   UNK     0       0.974  -2.046   1.129  0.00  0.00    -0.163 SA
ENDROOT
BRANCH   1   2
HETATM    2  C   UNK     0       2.617  -2.649   0.634  0.00  0.00     0.082 C 
BRANCH   2   3
HETATM    3  C   UNK     0       3.219  -1.823  -0.498  0.00  0.00     0.089 C 
BRANCH   3   4
HETATM    4  C   UNK     0       3.398  -0.356  -0.117  0.00  0.00     0.113 C 
HETATM    5  N   UNK     0       2.433   0.444  -0.461  0.00  0.00    -0.133 NA
BRANCH   5   6
HETATM    6  S   UNK     0       2.495   2.042  -0.126  0.00  0.00     0.339 S 
HETATM    7  O   UNK     0       3.584   2.636  -0.885  0.00  0.00    -0.181 OA
HETATM    8  O   UNK     0       2.455   2.220   1.316  0.00  0.00    -0.181 OA
BRANCH   6   9
HETATM    9  N   UNK     0       1.043   2.735  -0.741  0.00  0.00    -0.310 N 
HETATM   10  H   UNK     0       0.172   2.462  -0.268  0.00  0.00     0.170 HD
HETATM   11  H   UNK     0       0.943   2.753  -1.764  0.00  0.00     0.170 HD
ENDBRANCH   6   9
ENDBRANCH   5   6
BRANCH   4  12
HETATM   12  N   UNK     0       4.565  -0.045   0.543  0.00  0.00    -0.387 N 
HETATM   13  H   UNK     0       5.255  -0.755   0.767  0.00  0.00     0.157 HD
HETATM   14  H   UNK     0       4.775   0.903   0.835  0.00  0.00     0.157 HD
ENDBRANCH   4  12
ENDBRANCH   3   4
ENDBRANCH   2   3
ENDBRANCH   1   2
BRANCH   1  15
HETATM   15  C   UNK     0       0.125  -2.282  -0.448  0.00  0.00     0.133 C 
BRANCH  15  16
HETATM   16  C   UNK     0      -1.306  -1.861  -0.368  0.00  0.00     0.053 A 
HETATM   17  N   UNK     0      -1.606  -0.556  -0.670  0.00  0.00    -0.226 NA
HETATM   18  C   UNK     0      -2.904  -0.392  -0.540  0.00  0.00     0.211 A 
HETATM   19  S   UNK     0      -3.805  -1.771  -0.059  0.00  0.00    -0.059 SA
HETATM   20  C   UNK     0      -2.349  -2.676  -0.016  0.00  0.00     0.081 A 
BRANCH  18  21
HETATM   21  N   UNK     0      -3.583   0.764  -0.752  0.00  0.00    -0.039 NA
HETATM   22  C   UNK     0      -3.740   1.575   0.268  0.00  0.00     0.694 C 
HETATM   23  N   UNK     0      -4.388   2.793   0.289  0.00  0.00    -0.233 N 
HETATM   24  N   UNK     0      -3.227   1.249   1.502  0.00  0.00    -0.233 N 
HETATM   25  H   UNK     0      -4.820   3.170  -0.548  0.00  0.00     0.174 HD
HETATM   26  H   UNK     0      -4.452   3.344   1.137  0.00  0.00     0.174 HD
HETATM   27  H   UNK     0      -3.346   1.875   2.290  0.00  0.00     0.174 HD
HETATM   28  H   UNK     0      -2.716   0.394   1.687  0.00  0.00     0.174 HD
ENDBRANCH  18  21
ENDBRANCH  15  16
ENDBRANCH   1  15
TORSDOF 9
