REMARK  5 active torsions:
REMARK  status: ('A' for Active; 'I' for Inactive)
REMARK    1  A    between atoms: O_1  and  C_15 
REMARK    2  A    between atoms: C_3  and  C_4 
REMARK    3  A    between atoms: C_4  and  C_5 
REMARK    4  A    between atoms: C_6  and  C_7 
REMARK    5  A    between atoms: C_7  and  C_15 
ROOT
HETATM    1  C   UNK     0       1.653   0.739  -0.247  0.00  0.00    -0.058 A 
HETATM    2  C   UNK     0      -1.095   0.594   0.090  0.00  0.00    -0.044 A 
HETATM    3  C   UNK     0       0.869   0.228  -1.270  0.00  0.00     0.007 A 
HETATM    4  C   UNK     0       1.090   1.179   0.941  0.00  0.00     0.007 A 
HETATM    5  C   UNK     0      -0.513   0.155  -1.100  0.00  0.00     0.008 A 
HETATM    6  C   UNK     0      -0.293   1.106   1.110  0.00  0.00     0.008 A 
ENDROOT
BRANCH   2   7
HETATM    7  C   UNK     0      -2.573   0.515   0.272  0.00  0.00     0.112 C 
HETATM    8  C   UNK     0      -3.374   1.349  -0.749  0.00  0.00     0.026 C 
BRANCH   7   9
HETATM    9  C   UNK     0      -3.100  -0.923   0.233  0.00  0.00     0.148 C 
HETATM   10  O   UNK     0      -2.401  -1.911   0.053  0.00  0.00    -0.649 OA
BRANCH   9  11
HETATM   11  O   UNK     0      -4.446  -1.003   0.411  0.00  0.00    -0.776 OA
HETATM   12  H   UNK     0      -4.764  -1.931   0.378  0.00  0.00     0.167 HD
ENDBRANCH   9  11
ENDBRANCH   7   9
ENDBRANCH   2   7
BRANCH   1  13
HETATM   13  C   UNK     0       3.149   0.819  -0.431  0.00  0.00     0.042 C 
BRANCH  13  14
HETATM   14  C   UNK     0       3.902  -0.441   0.036  0.00  0.00    -0.019 C 
HETATM   15  C   UNK     0       3.608  -0.776   1.500  0.00  0.00     0.010 C 
HETATM   16  C   UNK     0       3.524  -1.630  -0.850  0.00  0.00     0.010 C 
ENDBRANCH  13  14
ENDBRANCH   1  13
TORSDOF 5
