REMARK  11 active torsions:
REMARK  status: ('A' for Active; 'I' for Inactive)
REMARK    1  A    between atoms: S_2  and  C_13 
REMARK    2  A    between atoms: O_7  and  C_31 
REMARK    3  A    between atoms: O_7  and  C_34 
REMARK    4  A    between atoms: N_8  and  C_12 
REMARK    5  A    between atoms: N_8  and  C_14 
REMARK    6  A    between atoms: N_9  and  C_24 
REMARK    7  A    between atoms: N_9  and  C_27 
REMARK    8  A    between atoms: C_12  and  C_13 
REMARK    9  A    between atoms: C_14  and  C_15 
REMARK   10  A    between atoms: C_16  and  C_17 
REMARK   11  A    between atoms: C_34  and  C_35 
ROOT
HETATM    1  N   UNK     0      -3.856  -4.645  -0.107  0.00  0.00    -0.241 NA
HETATM    2  N   UNK     0      -1.639  -3.977   0.559  0.00  0.00    -0.224 NA
HETATM    3  C   UNK     0      -5.015  -0.654  -0.431  0.00  0.00    -0.001 A 
HETATM    4  C   UNK     0      -3.322  -2.313   0.065  0.00  0.00     0.040 A 
HETATM    5  C   UNK     0      -3.716  -0.969  -0.045  0.00  0.00     0.032 A 
HETATM    6  C   UNK     0      -4.222  -3.355  -0.209  0.00  0.00     0.072 A 
HETATM    7  C   UNK     0      -5.916  -1.677  -0.706  0.00  0.00     0.016 A 
HETATM    8  C   UNK     0      -2.039  -2.696   0.446  0.00  0.00     0.142 A 
HETATM    9  C   UNK     0      -5.516  -3.012  -0.593  0.00  0.00     0.033 A 
HETATM   10  C   UNK     0      -2.584  -4.885   0.272  0.00  0.00     0.236 A 
ENDROOT
BRANCH   8  11
HETATM   11  N   UNK     0      -1.074  -1.700   0.739  0.00  0.00    -0.340 N 
HETATM   12  H   UNK     0      -1.440  -0.959   1.330  0.00  0.00     0.167 HD
BRANCH  11  13
HETATM   13  C   UNK     0       0.324  -1.670   0.615  0.00  0.00     0.035 A 
HETATM   14  C   UNK     0       1.086  -0.897   1.492  0.00  0.00     0.056 A 
HETATM   15  C   UNK     0       2.475  -0.868   1.368  0.00  0.00     0.069 A 
HETATM   16 Cl   UNK     0       3.394   0.096   2.465  0.00  0.00    -0.081 Cl
HETATM   17  C   UNK     0       3.102  -1.612   0.368  0.00  0.00     0.091 A 
HETATM   18  C   UNK     0       2.340  -2.385  -0.508  0.00  0.00     0.041 A 
HETATM   19  C   UNK     0       0.951  -2.414  -0.385  0.00  0.00     0.032 A 
BRANCH  17  20
HETATM   20  O   UNK     0       4.458  -1.602   0.223  0.00  0.00    -0.345 OA
BRANCH  20  21
HETATM   21  C   UNK     0       4.973  -1.141  -1.023  0.00  0.00     0.214 C 
BRANCH  21  22
HETATM   22  C   UNK     0       6.331  -0.542  -0.801  0.00  0.00    -0.031 A 
HETATM   23  C   UNK     0       6.455   0.816  -0.508  0.00  0.00     0.051 A 
HETATM   24  C   UNK     0       7.717   1.372  -0.302  0.00  0.00     0.117 A 
HETATM   25  F   UNK     0       7.837   2.676  -0.020  0.00  0.00    -0.206 F 
HETATM   26  C   UNK     0       8.855   0.570  -0.389  0.00  0.00     0.042 A 
HETATM   27  C   UNK     0       8.731  -0.788  -0.682  0.00  0.00     0.004 A 
HETATM   28  C   UNK     0       7.469  -1.344  -0.888  0.00  0.00     0.009 A 
ENDBRANCH  21  22
ENDBRANCH  20  21
ENDBRANCH  17  20
ENDBRANCH  11  13
ENDBRANCH   8  11
BRANCH   3  29
HETATM   29  C   UNK     0      -5.425   0.724  -0.548  0.00  0.00     0.086 A 
HETATM   30  O   UNK     0      -4.794   1.593   0.285  0.00  0.00    -0.313 OA
HETATM   31  C   UNK     0      -5.310   2.823   0.027  0.00  0.00     0.081 A 
HETATM   32  C   UNK     0      -6.264   2.749  -0.961  0.00  0.00     0.037 A 
HETATM   33  C   UNK     0      -6.338   1.386  -1.335  0.00  0.00     0.040 A 
BRANCH  31  34
HETATM   34  C   UNK     0      -4.770   3.935   0.822  0.00  0.00     0.334 C 
BRANCH  34  35
HETATM   35  N   UNK     0      -3.603   4.565   0.182  0.00  0.00     0.090 N 
HETATM   36  H   UNK     0      -3.467   5.490   0.590  0.00  0.00     0.316 HD
BRANCH  35  37
HETATM   37  C   UNK     0      -2.410   3.772   0.415  0.00  0.00     0.284 C 
BRANCH  37  38
HETATM   38  C   UNK     0      -1.189   4.432  -0.202  0.00  0.00     0.169 C 
BRANCH  38  39
HETATM   39  S   UNK     0       0.271   3.486   0.100  0.00  0.00     0.142 S 
HETATM   40  O   UNK     0       0.564   3.543   1.522  0.00  0.00    -0.228 OA
HETATM   41  O   UNK     0       0.131   2.206  -0.574  0.00  0.00    -0.228 OA
HETATM   42  C   UNK     0       1.537   4.402  -0.747  0.00  0.00     0.161 C 
ENDBRANCH  38  39
ENDBRANCH  37  38
ENDBRANCH  35  37
ENDBRANCH  34  35
ENDBRANCH  31  34
ENDBRANCH   3  29
TORSDOF 11
