REMARK  13 active torsions:
REMARK  status: ('A' for Active; 'I' for Inactive)
REMARK    1  A    between atoms: O_1  and  C_23 
REMARK    2  A    between atoms: O_4  and  C_28 
REMARK    3  A    between atoms: N_6  and  C_16 
REMARK    4  A    between atoms: N_6  and  C_18 
REMARK    5  A    between atoms: N_7  and  C_14 
REMARK       I    between atoms: N_7  and  C_20 
REMARK    6  A    between atoms: N_12  and  C_32 
REMARK    7  A    between atoms: N_13  and  C_33 
REMARK    8  A    between atoms: C_14  and  C_15 
REMARK    9  A    between atoms: C_14  and  C_23 
REMARK   10  A    between atoms: C_15  and  C_17 
REMARK   11  A    between atoms: C_17  and  C_28 
REMARK   12  A    between atoms: C_18  and  C_26 
REMARK   13  A    between atoms: C_19  and  C_20 
ROOT
HETATM    1  C   UNK     0      -0.832   2.678   0.435  0.00  0.00     0.030 A 
HETATM    2  C   UNK     0       1.882   2.034   0.475  0.00  0.00     0.032 A 
HETATM    3  C   UNK     0      -0.222   2.154  -0.706  0.00  0.00     0.030 A 
HETATM    4  C   UNK     0      -0.084   2.879   1.595  0.00  0.00     0.030 A 
HETATM    5  C   UNK     0       1.135   1.832  -0.686  0.00  0.00     0.019 A 
HETATM    6  C   UNK     0       1.273   2.557   1.615  0.00  0.00     0.019 A 
ENDROOT
BRANCH   1   7
HETATM    7  N   UNK     0      -2.204   3.004   0.414  0.00  0.00    -0.379 N 
HETATM    8  C   UNK     0      -2.846   3.550   1.593  0.00  0.00     0.150 C 
BRANCH   7   9
HETATM    9  C   UNK     0      -2.986   2.812  -0.791  0.00  0.00     0.183 C 
BRANCH   9  10
HETATM   10  C   UNK     0      -3.415   1.376  -0.917  0.00  0.00     0.070 A 
HETATM   11  N   UNK     0      -3.902   0.769   0.176  0.00  0.00    -0.242 NA
HETATM   12  C   UNK     0      -4.283  -0.516   0.048  0.00  0.00     0.151 A 
HETATM   13  C   UNK     0      -4.183  -1.207  -1.162  0.00  0.00     0.201 A 
HETATM   14  C   UNK     0      -4.797  -1.231   1.113  0.00  0.00     0.173 A 
HETATM   15  N   UNK     0      -3.694  -0.574  -2.235  0.00  0.00    -0.237 NA
HETATM   16  N   UNK     0      -4.569  -2.485  -1.263  0.00  0.00    -0.041 NA
HETATM   17  C   UNK     0      -3.313   0.712  -2.109  0.00  0.00     0.148 A 
HETATM   18  C   UNK     0      -5.054  -3.075  -0.155  0.00  0.00     0.724 A 
HETATM   19  N   UNK     0      -5.194  -2.515   1.052  0.00  0.00    -0.043 NA
BRANCH  18  20
HETATM   20  N   UNK     0      -5.455  -4.423  -0.280  0.00  0.00    -0.231 N 
HETATM   21  H   UNK     0      -5.825  -4.908   0.525  0.00  0.00     0.174 HD
HETATM   22  H   UNK     0      -5.366  -4.887  -1.173  0.00  0.00     0.174 HD
ENDBRANCH  18  20
BRANCH  14  23
HETATM   23  N   UNK     0      -4.915  -0.569   2.363  0.00  0.00    -0.381 N 
HETATM   24  H   UNK     0      -5.284  -1.108   3.136  0.00  0.00     0.157 HD
HETATM   25  H   UNK     0      -4.278   0.191   2.565  0.00  0.00     0.157 HD
ENDBRANCH  14  23
ENDBRANCH   9  10
ENDBRANCH   7   9
ENDBRANCH   1   7
BRANCH   2  26
HETATM   26  C   UNK     0       3.328   1.691   0.496  0.00  0.00     0.252 C 
HETATM   27  O   UNK     0       4.071   2.275   1.280  0.00  0.00    -0.268 OA
HETATM   28  N   UNK     0       3.729   0.693  -0.382  0.00  0.00    -0.343 N 
HETATM   29  H   UNK     0       3.043   0.198  -0.942  0.00  0.00     0.163 HD
BRANCH  28  30
HETATM   30  C   UNK     0       5.092   0.233  -0.461  0.00  0.00     0.183 C 
BRANCH  30  31
HETATM   31  C   UNK     0       5.389  -0.912   0.515  0.00  0.00     0.046 C 
BRANCH  31  32
HETATM   32  C   UNK     0       4.591  -2.203   0.294  0.00  0.00     0.112 C 
BRANCH  32  33
HETATM   33  C   UNK     0       4.911  -3.297   1.289  0.00  0.00     0.139 C 
HETATM   34  O   UNK     0       5.713  -3.208   2.208  0.00  0.00    -0.650 OA
BRANCH  33  35
HETATM   35  O   UNK     0       4.220  -4.435   1.021  0.00  0.00    -0.776 OA
HETATM   36  H   UNK     0       4.437  -5.153   1.653  0.00  0.00     0.167 HD
ENDBRANCH  33  35
ENDBRANCH  32  33
ENDBRANCH  31  32
ENDBRANCH  30  31
BRANCH  30  37
HETATM   37  C   UNK     0       5.377  -0.109  -1.909  0.00  0.00     0.163 C 
HETATM   38  O   UNK     0       4.545  -0.127  -2.807  0.00  0.00    -0.648 OA
BRANCH  37  39
HETATM   39  O   UNK     0       6.695  -0.364  -2.121  0.00  0.00    -0.775 OA
HETATM   40  H   UNK     0       6.881  -0.570  -3.061  0.00  0.00     0.167 HD
ENDBRANCH  37  39
ENDBRANCH  30  37
ENDBRANCH  28  30
ENDBRANCH   2  26
TORSDOF 13
