REMARK  5 active torsions:
REMARK  status: ('A' for Active; 'I' for Inactive)
REMARK    1  A    between atoms: S_1  and  C_8 
REMARK    2  A    between atoms: S_1  and  C_11 
REMARK    3  A    between atoms: O_2  and  C_13 
REMARK    4  A    between atoms: O_4  and  C_20 
REMARK    5  A    between atoms: C_8  and  C_9 
ROOT
HETATM    1  S   UNK     0       0.280   0.753  -0.852  0.00  0.00     0.091 S 
HETATM    2  O   UNK     0       0.407   2.256  -0.695  0.00  0.00    -0.249 OA
ENDROOT
BRANCH   1   3
HETATM    3  C   UNK     0       1.169  -0.005   0.538  0.00  0.00     0.177 C 
BRANCH   3   4
HETATM    4  C   UNK     0       2.647   0.249   0.456  0.00  0.00     0.055 A 
HETATM    5  N   UNK     0       3.076   1.369   1.072  0.00  0.00    -0.263 NA
HETATM    6  C   UNK     0       4.404   1.611   1.008  0.00  0.00     0.126 A 
HETATM    7  C   UNK     0       5.312   0.789   0.360  0.00  0.00    -0.011 A 
HETATM    8  C   UNK     0       4.825  -0.355  -0.262  0.00  0.00     0.083 A 
HETATM    9  C   UNK     0       6.760   1.136   0.341  0.00  0.00     0.052 C 
HETATM   10  C   UNK     0       3.464  -0.638  -0.217  0.00  0.00    -0.003 A 
HETATM   11  C   UNK     0       2.917  -1.860  -0.876  0.00  0.00     0.053 C 
BRANCH   8  12
HETATM   12  O   UNK     0       5.680  -1.196  -0.911  0.00  0.00    -0.355 OA
HETATM   13  C   UNK     0       6.257  -2.251  -0.145  0.00  0.00     0.210 C 
ENDBRANCH   8  12
ENDBRANCH   3   4
ENDBRANCH   1   3
BRANCH   1  14
HETATM   14  C   UNK     0      -1.397   0.274  -0.457  0.00  0.00     0.198 A 
HETATM   15  N   UNK     0      -2.502   1.008  -0.786  0.00  0.00    -0.331 N 
HETATM   16  C   UNK     0      -3.604   0.337  -0.322  0.00  0.00     0.066 A 
HETATM   17  H   UNK     0      -2.508   1.890  -1.281  0.00  0.00     0.168 HD
HETATM   18  C   UNK     0      -3.085  -0.805   0.282  0.00  0.00     0.086 A 
HETATM   19  C   UNK     0      -4.969   0.622  -0.377  0.00  0.00     0.068 A 
HETATM   20  N   UNK     0      -1.712  -0.827   0.188  0.00  0.00    -0.221 NA
HETATM   21  C   UNK     0      -3.965  -1.728   0.871  0.00  0.00     0.037 A 
HETATM   22  C   UNK     0      -5.339  -1.463   0.828  0.00  0.00     0.039 A 
HETATM   23  C   UNK     0      -5.831  -0.308   0.214  0.00  0.00     0.070 A 
BRANCH  23  24
HETATM   24  O   UNK     0      -7.175  -0.082   0.190  0.00  0.00    -0.356 OA
HETATM   25  C   UNK     0      -7.618   1.112  -0.450  0.00  0.00     0.210 C 
ENDBRANCH  23  24
ENDBRANCH   1  14
TORSDOF 5
