REMARK  5 active torsions:
REMARK  status: ('A' for Active; 'I' for Inactive)
REMARK    1  A    between atoms: O_1  and  C_7 
REMARK    2  A    between atoms: O_2  and  C_9 
REMARK    3  A    between atoms: O_3  and  C_10 
REMARK    4  A    between atoms: C_5  and  C_9 
REMARK    5  A    between atoms: C_6  and  C_10 
ROOT
HETATM    1  N   UNK     0       1.304  -1.696   0.314  0.00  0.00    -0.262 NA
HETATM    2  C   UNK     0      -0.326   0.536  -0.104  0.00  0.00     0.010 A 
HETATM    3  C   UNK     0      -0.894  -0.695   0.207  0.00  0.00    -0.006 A 
HETATM    4  C   UNK     0       1.056   0.652  -0.206  0.00  0.00     0.099 A 
HETATM    5  C   UNK     0       1.820  -0.483   0.010  0.00  0.00     0.064 A 
HETATM    6  C   UNK     0      -0.043  -1.770   0.404  0.00  0.00     0.127 A 
HETATM    7  C   UNK     0       3.309  -0.414  -0.086  0.00  0.00     0.073 C 
ENDROOT
BRANCH   2   8
HETATM    8  C   UNK     0      -1.195   1.732  -0.327  0.00  0.00     0.206 C 
BRANCH   8   9
HETATM    9  O   UNK     0      -1.395   2.403   0.910  0.00  0.00    -0.396 OA
HETATM   10  H   UNK     0      -1.953   3.178   0.727  0.00  0.00     0.209 HD
ENDBRANCH   8   9
ENDBRANCH   2   8
BRANCH   3  11
HETATM   11  C   UNK     0      -2.367  -0.877   0.328  0.00  0.00     0.205 C 
BRANCH  11  12
HETATM   12  O   UNK     0      -2.907  -1.232  -0.940  0.00  0.00    -0.396 OA
HETATM   13  H   UNK     0      -2.328  -1.898  -1.347  0.00  0.00     0.209 HD
ENDBRANCH  11  12
ENDBRANCH   3  11
BRANCH   4  14
HETATM   14  O   UNK     0       1.638   1.842  -0.509  0.00  0.00    -0.358 OA
HETATM   15  H   UNK     0       2.604   1.764  -0.545  0.00  0.00     0.218 HD
ENDBRANCH   4  14
TORSDOF 5
