REMARK  8 active torsions:
REMARK  status: ('A' for Active; 'I' for Inactive)
REMARK    1  A    between atoms: O_1  and  C_7 
REMARK    2  A    between atoms: O_2  and  C_15 
REMARK    3  A    between atoms: O_3  and  C_17 
REMARK    4  A    between atoms: N_4  and  C_5 
REMARK    5  A    between atoms: N_4  and  C_6 
REMARK    6  A    between atoms: C_6  and  C_7 
REMARK    7  A    between atoms: C_7  and  C_11 
REMARK    8  A    between atoms: C_14  and  C_17 
ROOT
HETATM    1  C   UNK     0      -0.475   1.063   0.219  0.00  0.00    -0.027 A 
HETATM    2  C   UNK     0      -1.038   0.186  -0.692  0.00  0.00     0.022 A 
HETATM    3  C   UNK     0      -1.014   1.242   1.481  0.00  0.00     0.012 A 
HETATM    4  C   UNK     0      -2.176  -0.534  -0.329  0.00  0.00    -0.001 A 
HETATM    5  C   UNK     0      -2.733  -0.366   0.939  0.00  0.00     0.074 A 
HETATM    6  C   UNK     0      -2.152   0.522   1.844  0.00  0.00     0.038 A 
ENDROOT
BRANCH   1   7
HETATM    7  C   UNK     0       0.760   1.844  -0.174  0.00  0.00     0.179 C 
BRANCH   7   8
HETATM    8  O   UNK     0       0.417   2.707  -1.257  0.00  0.00    -0.389 OA
HETATM    9  H   UNK     0       1.214   3.208  -1.497  0.00  0.00     0.210 HD
ENDBRANCH   7   8
BRANCH   7  10
HETATM   10  C   UNK     0       1.909   0.913  -0.580  0.00  0.00     0.306 C 
BRANCH  10  11
HETATM   11  N   UNK     0       2.273   0.032   0.517  0.00  0.00     0.094 N 
HETATM   12  H   UNK     0       2.543   0.586   1.329  0.00  0.00     0.317 HD
BRANCH  11  13
HETATM   13  C   UNK     0       3.374  -0.854   0.124  0.00  0.00     0.147 C 
HETATM   14  C   UNK     0       3.713  -1.767   1.307  0.00  0.00     0.048 C 
HETATM   15  C   UNK     0       2.921  -1.693  -1.076  0.00  0.00     0.048 C 
HETATM   16  C   UNK     0       4.595  -0.008  -0.256  0.00  0.00     0.048 C 
ENDBRANCH  11  13
ENDBRANCH  10  11
ENDBRANCH   7  10
ENDBRANCH   1   7
BRANCH   4  17
HETATM   17  C   UNK     0      -2.786  -1.480  -1.311  0.00  0.00     0.205 C 
BRANCH  17  18
HETATM   18  O   UNK     0      -3.742  -0.746  -2.064  0.00  0.00    -0.396 OA
HETATM   19  H   UNK     0      -4.123  -1.359  -2.716  0.00  0.00     0.209 HD
ENDBRANCH  17  18
ENDBRANCH   4  17
BRANCH   5  20
HETATM   20  O   UNK     0      -3.845  -1.061   1.309  0.00  0.00    -0.360 OA
HETATM   21  H   UNK     0      -4.336  -1.352   0.524  0.00  0.00     0.217 HD
ENDBRANCH   5  20
TORSDOF 8
