REMARK  8 active torsions:
REMARK  status: ('A' for Active; 'I' for Inactive)
REMARK    1  A    between atoms: O_1  and  C_8 
REMARK    2  A    between atoms: O_1  and  C_22 
REMARK    3  A    between atoms: O_3  and  C_23 
REMARK    4  A    between atoms: C_7  and  C_11 
REMARK    5  A    between atoms: C_11  and  C_15 
REMARK    6  A    between atoms: C_15  and  C_19 
REMARK    7  A    between atoms: C_22  and  C_24 
REMARK    8  A    between atoms: C_24  and  C_27 
ROOT
HETATM    1  C   UNK     0       1.366   1.634   0.487  0.00  0.00     0.052 C 
HETATM    2  C   UNK     0       0.186   1.469  -0.516  0.00  0.00     0.004 C 
HETATM    3  C   UNK     0       1.817   0.302   1.129  0.00  0.00     0.141 C 
HETATM    4  C   UNK     0      -0.241   2.840  -1.117  0.00  0.00     0.009 C 
HETATM    5  C   UNK     0       2.532   2.370  -0.167  0.00  0.00    -0.055 C 
HETATM    6  C   UNK     0       3.096   0.486   1.951  0.00  0.00     0.041 C 
HETATM    7  C   UNK     0       4.264   1.077   1.141  0.00  0.00     0.007 C 
HETATM    8  C   UNK     0       3.816   2.106   0.137  0.00  0.00    -0.015 C 
HETATM    9  C   UNK     0       0.960   3.628  -1.572  0.00  0.00    -0.022 C 
HETATM   10  C   UNK     0       2.208   3.392  -1.146  0.00  0.00     0.004 C 
HETATM   11  C   UNK     0      -1.082   3.711  -0.179  0.00  0.00     0.014 C 
HETATM   12  C   UNK     0       5.090  -0.007   0.443  0.00  0.00     0.014 C 
ENDROOT
BRANCH   2  13
HETATM   13  C   UNK     0      -1.007   0.719   0.087  0.00  0.00     0.009 C 
BRANCH  13  14
HETATM   14  C   UNK     0      -2.088   0.481  -0.959  0.00  0.00     0.033 C 
BRANCH  14  15
HETATM   15  C   UNK     0      -3.263  -0.286  -0.366  0.00  0.00     0.134 C 
HETATM   16  O   UNK     0      -3.772   0.490   0.741  0.00  0.00    -0.316 OA
HETATM   17  C   UNK     0      -5.013   0.311   1.250  0.00  0.00     0.261 C 
HETATM   18  O   UNK     0      -5.303   0.715   2.374  0.00  0.00    -0.265 OA
HETATM   19  C   UNK     0      -6.065  -0.275   0.339  0.00  0.00     0.142 C 
HETATM   20  C   UNK     0      -5.541  -1.185  -0.754  0.00  0.00     0.130 C 
HETATM   21  C   UNK     0      -4.328  -0.559  -1.418  0.00  0.00     0.065 C 
BRANCH  20  22
HETATM   22  O   UNK     0      -5.207  -2.448  -0.185  0.00  0.00    -0.395 OA
HETATM   23  H   UNK     0      -4.865  -3.010  -0.901  0.00  0.00     0.210 HD
ENDBRANCH  20  22
ENDBRANCH  14  15
ENDBRANCH  13  14
ENDBRANCH   2  13
BRANCH   3  24
HETATM   24  O   UNK     0       2.012  -0.692   0.127  0.00  0.00    -0.315 OA
BRANCH  24  25
HETATM   25  C   UNK     0       2.390  -1.930   0.575  0.00  0.00     0.267 C 
HETATM   26  O   UNK     0       2.566  -2.223   1.752  0.00  0.00    -0.264 OA
BRANCH  25  27
HETATM   27  C   UNK     0       2.572  -2.903  -0.597  0.00  0.00     0.040 C 
HETATM   28  C   UNK     0       3.061  -4.262  -0.065  0.00  0.00     0.025 C 
HETATM   29  C   UNK     0       3.658  -2.336  -1.530  0.00  0.00     0.025 C 
BRANCH  27  30
HETATM   30  C   UNK     0       1.252  -3.065  -1.390  0.00  0.00     0.014 C 
HETATM   31  C   UNK     0       0.066  -3.560  -0.569  0.00  0.00     0.006 C 
ENDBRANCH  27  30
ENDBRANCH  25  27
ENDBRANCH  24  25
ENDBRANCH   3  24
TORSDOF 8
