MODEL 1
REMARK VINA RESULT:      -7.1      0.000      0.000
REMARK  8 active torsions:
REMARK  status: ('A' for Active; 'I' for Inactive)
REMARK    1  A    between atoms: O_1  and  C_8 
REMARK    2  A    between atoms: O_1  and  C_22 
REMARK    3  A    between atoms: O_3  and  C_23 
REMARK    4  A    between atoms: C_7  and  C_11 
REMARK    5  A    between atoms: C_11  and  C_15 
REMARK    6  A    between atoms: C_15  and  C_19 
REMARK    7  A    between atoms: C_22  and  C_24 
REMARK    8  A    between atoms: C_24  and  C_27 
ROOT
HETATM    1  C   UNK     0      22.505  48.977  21.458  0.00  0.00     0.052 C 
HETATM    2  C   UNK     0      21.765  50.255  21.952  0.00  0.00     0.004 C 
HETATM    3  C   UNK     0      21.666  47.686  21.606  0.00  0.00     0.141 C 
HETATM    4  C   UNK     0      22.659  51.520  21.800  0.00  0.00     0.009 C 
HETATM    5  C   UNK     0      23.009  49.163  20.030  0.00  0.00    -0.055 C 
HETATM    6  C   UNK     0      22.354  46.496  20.932  0.00  0.00     0.041 C 
HETATM    7  C   UNK     0      22.660  46.731  19.441  0.00  0.00     0.007 C 
HETATM    8  C   UNK     0      23.069  48.150  19.146  0.00  0.00    -0.015 C 
HETATM    9  C   UNK     0      23.303  51.566  20.438  0.00  0.00    -0.022 C 
HETATM   10  C   UNK     0      23.438  50.495  19.644  0.00  0.00     0.004 C 
HETATM   11  C   UNK     0      23.746  51.663  22.869  0.00  0.00     0.014 C 
HETATM   12  C   UNK     0      21.490  46.327  18.540  0.00  0.00     0.014 C 
ENDROOT
BRANCH   2  13
HETATM   13  C   UNK     0      21.222  50.115  23.379  0.00  0.00     0.009 C 
BRANCH  13  14
HETATM   14  C   UNK     0      20.383  51.325  23.766  0.00  0.00     0.033 C 
BRANCH  14  15
HETATM   15  C   UNK     0      20.723  51.799  25.173  0.00  0.00     0.134 C 
HETATM   16  O   UNK     0      21.760  50.932  25.683  0.00  0.00    -0.316 OA
HETATM   17  C   UNK     0      22.554  51.275  26.723  0.00  0.00     0.261 C 
HETATM   18  O   UNK     0      23.177  50.425  27.355  0.00  0.00    -0.265 OA
HETATM   19  C   UNK     0      22.757  52.747  26.993  0.00  0.00     0.142 C 
HETATM   20  C   UNK     0      21.615  53.648  26.563  0.00  0.00     0.130 C 
HETATM   21  C   UNK     0      21.140  53.262  25.174  0.00  0.00     0.065 C 
BRANCH  20  22
HETATM   22  O   UNK     0      20.554  53.533  27.507  0.00  0.00    -0.395 OA
HETATM   23  H   UNK     0      19.986  52.798  27.220  0.00  0.00     0.210 HD
ENDBRANCH  20  22
ENDBRANCH  14  15
ENDBRANCH  13  14
ENDBRANCH   2  13
BRANCH   3  24
HETATM   24  O   UNK     0      20.362  47.876  21.065  0.00  0.00    -0.315 OA
BRANCH  24  25
HETATM   25  C   UNK     0      19.325  47.377  21.808  0.00  0.00     0.267 C 
HETATM   26  O   UNK     0      19.357  47.199  23.020  0.00  0.00    -0.264 OA
BRANCH  25  27
HETATM   27  C   UNK     0      18.116  47.063  20.917  0.00  0.00     0.040 C 
HETATM   28  C   UNK     0      18.385  47.570  19.489  0.00  0.00     0.025 C 
HETATM   29  C   UNK     0      16.898  47.823  21.472  0.00  0.00     0.025 C 
BRANCH  27  30
HETATM   30  C   UNK     0      17.813  45.545  20.914  0.00  0.00     0.014 C 
HETATM   31  C   UNK     0      19.034  44.646  20.754  0.00  0.00     0.006 C 
ENDBRANCH  27  30
ENDBRANCH  25  27
ENDBRANCH  24  25
ENDBRANCH   3  24
TORSDOF 8
ENDMDL
MODEL 2
REMARK VINA RESULT:      -7.0      2.246      6.680
REMARK  8 active torsions:
REMARK  status: ('A' for Active; 'I' for Inactive)
REMARK    1  A    between atoms: O_1  and  C_8 
REMARK    2  A    between atoms: O_1  and  C_22 
REMARK    3  A    between atoms: O_3  and  C_23 
REMARK    4  A    between atoms: C_7  and  C_11 
REMARK    5  A    between atoms: C_11  and  C_15 
REMARK    6  A    between atoms: C_15  and  C_19 
REMARK    7  A    between atoms: C_22  and  C_24 
REMARK    8  A    between atoms: C_24  and  C_27 
ROOT
HETATM    1  C   UNK     0      21.777  49.435  19.174  0.00  0.00     0.052 C 
HETATM    2  C   UNK     0      21.573  48.281  20.199  0.00  0.00     0.004 C 
HETATM    3  C   UNK     0      21.724  50.841  19.814  0.00  0.00     0.141 C 
HETATM    4  C   UNK     0      21.615  46.890  19.500  0.00  0.00     0.009 C 
HETATM    5  C   UNK     0      23.058  49.226  18.372  0.00  0.00    -0.055 C 
HETATM    6  C   UNK     0      22.122  51.926  18.808  0.00  0.00     0.041 C 
HETATM    7  C   UNK     0      23.513  51.705  18.189  0.00  0.00     0.007 C 
HETATM    8  C   UNK     0      23.819  50.251  17.944  0.00  0.00    -0.015 C 
HETATM    9  C   UNK     0      22.788  46.793  18.560  0.00  0.00    -0.022 C 
HETATM   10  C   UNK     0      23.440  47.858  18.073  0.00  0.00     0.004 C 
HETATM   11  C   UNK     0      20.337  46.522  18.741  0.00  0.00     0.014 C 
HETATM   12  C   UNK     0      24.627  52.337  19.028  0.00  0.00     0.014 C 
ENDROOT
BRANCH   2  13
HETATM   13  C   UNK     0      20.306  48.452  21.044  0.00  0.00     0.009 C 
BRANCH  13  14
HETATM   14  C   UNK     0      20.456  47.772  22.398  0.00  0.00     0.033 C 
BRANCH  14  15
HETATM   15  C   UNK     0      19.476  46.615  22.541  0.00  0.00     0.134 C 
HETATM   16  O   UNK     0      18.437  46.804  21.556  0.00  0.00    -0.316 OA
HETATM   17  C   UNK     0      17.626  45.800  21.147  0.00  0.00     0.261 C 
HETATM   18  O   UNK     0      16.556  46.035  20.590  0.00  0.00    -0.265 OA
HETATM   19  C   UNK     0      18.145  44.387  21.271  0.00  0.00     0.142 C 
HETATM   20  C   UNK     0      19.150  44.162  22.383  0.00  0.00     0.130 C 
HETATM   21  C   UNK     0      20.182  45.275  22.387  0.00  0.00     0.065 C 
BRANCH  20  22
HETATM   22  O   UNK     0      18.460  44.110  23.628  0.00  0.00    -0.395 OA
HETATM   23  H   UNK     0      17.902  43.314  23.621  0.00  0.00     0.210 HD
ENDBRANCH  20  22
ENDBRANCH  14  15
ENDBRANCH  13  14
ENDBRANCH   2  13
BRANCH   3  24
HETATM   24  O   UNK     0      22.568  50.898  20.961  0.00  0.00    -0.315 OA
BRANCH  24  25
HETATM   25  C   UNK     0      22.053  51.543  22.054  0.00  0.00     0.267 C 
HETATM   26  O   UNK     0      21.196  52.418  22.009  0.00  0.00    -0.264 OA
BRANCH  25  27
HETATM   27  C   UNK     0      22.700  51.028  23.346  0.00  0.00     0.040 C 
HETATM   28  C   UNK     0      23.635  52.109  23.918  0.00  0.00     0.025 C 
HETATM   29  C   UNK     0      23.552  49.793  23.001  0.00  0.00     0.025 C 
BRANCH  27  30
HETATM   30  C   UNK     0      21.621  50.630  24.383  0.00  0.00     0.014 C 
HETATM   31  C   UNK     0      21.381  51.655  25.487  0.00  0.00     0.006 C 
ENDBRANCH  27  30
ENDBRANCH  25  27
ENDBRANCH  24  25
ENDBRANCH   3  24
TORSDOF 8
ENDMDL
MODEL 3
REMARK VINA RESULT:      -6.8      1.269      2.101
REMARK  8 active torsions:
REMARK  status: ('A' for Active; 'I' for Inactive)
REMARK    1  A    between atoms: O_1  and  C_8 
REMARK    2  A    between atoms: O_1  and  C_22 
REMARK    3  A    between atoms: O_3  and  C_23 
REMARK    4  A    between atoms: C_7  and  C_11 
REMARK    5  A    between atoms: C_11  and  C_15 
REMARK    6  A    between atoms: C_15  and  C_19 
REMARK    7  A    between atoms: C_22  and  C_24 
REMARK    8  A    between atoms: C_24  and  C_27 
ROOT
HETATM    1  C   UNK     0      23.038  49.075  20.510  0.00  0.00     0.052 C 
HETATM    2  C   UNK     0      22.509  50.489  20.891  0.00  0.00     0.004 C 
HETATM    3  C   UNK     0      22.135  47.926  21.015  0.00  0.00     0.141 C 
HETATM    4  C   UNK     0      23.464  51.606  20.377  0.00  0.00     0.009 C 
HETATM    5  C   UNK     0      23.290  48.978  19.008  0.00  0.00    -0.055 C 
HETATM    6  C   UNK     0      22.587  46.575  20.453  0.00  0.00     0.041 C 
HETATM    7  C   UNK     0      22.638  46.539  18.915  0.00  0.00     0.007 C 
HETATM    8  C   UNK     0      23.105  47.839  18.316  0.00  0.00    -0.015 C 
HETATM    9  C   UNK     0      23.853  51.367  18.941  0.00  0.00    -0.022 C 
HETATM   10  C   UNK     0      23.752  50.177  18.333  0.00  0.00     0.004 C 
HETATM   11  C   UNK     0      24.734  51.791  21.213  0.00  0.00     0.014 C 
HETATM   12  C   UNK     0      21.295  46.134  18.301  0.00  0.00     0.014 C 
ENDROOT
BRANCH   2  13
HETATM   13  C   UNK     0      22.223  50.635  22.389  0.00  0.00     0.009 C 
BRANCH  13  14
HETATM   14  C   UNK     0      21.722  52.035  22.717  0.00  0.00     0.033 C 
BRANCH  14  15
HETATM   15  C   UNK     0      22.450  52.607  23.927  0.00  0.00     0.134 C 
HETATM   16  O   UNK     0      21.451  53.173  24.804  0.00  0.00    -0.316 OA
HETATM   17  C   UNK     0      21.685  53.423  26.114  0.00  0.00     0.261 C 
HETATM   18  O   UNK     0      20.976  54.200  26.749  0.00  0.00    -0.265 OA
HETATM   19  C   UNK     0      22.756  52.609  26.800  0.00  0.00     0.142 C 
HETATM   20  C   UNK     0      23.869  52.112  25.899  0.00  0.00     0.130 C 
HETATM   21  C   UNK     0      23.288  51.541  24.618  0.00  0.00     0.065 C 
BRANCH  20  22
HETATM   22  O   UNK     0      24.752  53.193  25.613  0.00  0.00    -0.395 OA
HETATM   23  H   UNK     0      24.673  53.835  26.339  0.00  0.00     0.210 HD
ENDBRANCH  20  22
ENDBRANCH  14  15
ENDBRANCH  13  14
ENDBRANCH   2  13
BRANCH   3  24
HETATM   24  O   UNK     0      20.775  48.174  20.670  0.00  0.00    -0.315 OA
BRANCH  24  25
HETATM   25  C   UNK     0      19.838  47.728  21.564  0.00  0.00     0.267 C 
HETATM   26  O   UNK     0      20.014  47.634  22.773  0.00  0.00    -0.264 OA
BRANCH  25  27
HETATM   27  C   UNK     0      18.535  47.351  20.847  0.00  0.00     0.040 C 
HETATM   28  C   UNK     0      18.449  45.821  20.706  0.00  0.00     0.025 C 
HETATM   29  C   UNK     0      18.570  47.960  19.433  0.00  0.00     0.025 C 
BRANCH  27  30
HETATM   30  C   UNK     0      17.306  47.903  21.609  0.00  0.00     0.014 C 
HETATM   31  C   UNK     0      15.969  47.291  21.203  0.00  0.00     0.006 C 
ENDBRANCH  27  30
ENDBRANCH  25  27
ENDBRANCH  24  25
ENDBRANCH   3  24
TORSDOF 8
ENDMDL
