MODEL 1
REMARK VINA RESULT:      -6.6      0.000      0.000
REMARK  8 active torsions:
REMARK  status: ('A' for Active; 'I' for Inactive)
REMARK    1  A    between atoms: O_1  and  C_8 
REMARK    2  A    between atoms: O_1  and  C_22 
REMARK    3  A    between atoms: O_3  and  C_23 
REMARK    4  A    between atoms: C_7  and  C_11 
REMARK    5  A    between atoms: C_11  and  C_15 
REMARK    6  A    between atoms: C_15  and  C_19 
REMARK    7  A    between atoms: C_22  and  C_24 
REMARK    8  A    between atoms: C_24  and  C_27 
ROOT
HETATM    1  C   UNK     0      15.732  33.685  23.975  0.00  0.00     0.052 C 
HETATM    2  C   UNK     0      14.731  32.545  24.326  0.00  0.00     0.004 C 
HETATM    3  C   UNK     0      16.039  33.789  22.463  0.00  0.00     0.141 C 
HETATM    4  C   UNK     0      14.473  32.471  25.859  0.00  0.00     0.009 C 
HETATM    5  C   UNK     0      15.258  35.017  24.549  0.00  0.00    -0.055 C 
HETATM    6  C   UNK     0      16.868  35.038  22.149  0.00  0.00     0.041 C 
HETATM    7  C   UNK     0      16.208  36.346  22.622  0.00  0.00     0.007 C 
HETATM    8  C   UNK     0      15.478  36.191  23.930  0.00  0.00    -0.015 C 
HETATM    9  C   UNK     0      14.204  33.840  26.428  0.00  0.00    -0.022 C 
HETATM   10  C   UNK     0      14.550  34.980  25.816  0.00  0.00     0.004 C 
HETATM   11  C   UNK     0      15.598  31.811  26.662  0.00  0.00     0.014 C 
HETATM   12  C   UNK     0      15.266  36.932  21.566  0.00  0.00     0.014 C 
ENDROOT
BRANCH   2  13
HETATM   13  C   UNK     0      15.153  31.186  23.756  0.00  0.00     0.009 C 
BRANCH  13  14
HETATM   14  C   UNK     0      13.936  30.339  23.408  0.00  0.00     0.033 C 
BRANCH  14  15
HETATM   15  C   UNK     0      14.337  29.121  22.584  0.00  0.00     0.134 C 
HETATM   16  O   UNK     0      13.200  28.756  21.771  0.00  0.00    -0.316 OA
HETATM   17  C   UNK     0      13.308  27.980  20.668  0.00  0.00     0.261 C 
HETATM   18  O   UNK     0      12.330  27.404  20.197  0.00  0.00    -0.265 OA
HETATM   19  C   UNK     0      14.640  27.959  19.956  0.00  0.00     0.142 C 
HETATM   20  C   UNK     0      15.847  28.227  20.833  0.00  0.00     0.130 C 
HETATM   21  C   UNK     0      15.576  29.407  21.748  0.00  0.00     0.065 C 
BRANCH  20  22
HETATM   22  O   UNK     0      16.137  27.057  21.593  0.00  0.00    -0.395 OA
HETATM   23  H   UNK     0      15.501  26.371  21.327  0.00  0.00     0.210 HD
ENDBRANCH  20  22
ENDBRANCH  14  15
ENDBRANCH  13  14
ENDBRANCH   2  13
BRANCH   3  24
HETATM   24  O   UNK     0      14.829  33.797  21.710  0.00  0.00    -0.315 OA
BRANCH  24  25
HETATM   25  C   UNK     0      14.790  32.955  20.630  0.00  0.00     0.267 C 
HETATM   26  O   UNK     0      15.773  32.451  20.101  0.00  0.00    -0.264 OA
BRANCH  25  27
HETATM   27  C   UNK     0      13.345  32.732  20.164  0.00  0.00     0.040 C 
HETATM   28  C   UNK     0      13.261  31.421  19.363  0.00  0.00     0.025 C 
HETATM   29  C   UNK     0      12.957  33.891  19.227  0.00  0.00     0.025 C 
BRANCH  27  30
HETATM   30  C   UNK     0      12.374  32.704  21.370  0.00  0.00     0.014 C 
HETATM   31  C   UNK     0      11.243  31.687  21.260  0.00  0.00     0.006 C 
ENDBRANCH  27  30
ENDBRANCH  25  27
ENDBRANCH  24  25
ENDBRANCH   3  24
TORSDOF 8
ENDMDL
MODEL 2
REMARK VINA RESULT:      -6.5     13.509     17.472
REMARK  8 active torsions:
REMARK  status: ('A' for Active; 'I' for Inactive)
REMARK    1  A    between atoms: O_1  and  C_8 
REMARK    2  A    between atoms: O_1  and  C_22 
REMARK    3  A    between atoms: O_3  and  C_23 
REMARK    4  A    between atoms: C_7  and  C_11 
REMARK    5  A    between atoms: C_11  and  C_15 
REMARK    6  A    between atoms: C_15  and  C_19 
REMARK    7  A    between atoms: C_22  and  C_24 
REMARK    8  A    between atoms: C_24  and  C_27 
ROOT
HETATM    1  C   UNK     0      22.611  48.054  21.360  0.00  0.00     0.052 C 
HETATM    2  C   UNK     0      22.008  46.624  21.488  0.00  0.00     0.004 C 
HETATM    3  C   UNK     0      23.470  48.470  22.576  0.00  0.00     0.141 C 
HETATM    4  C   UNK     0      21.138  46.264  20.248  0.00  0.00     0.009 C 
HETATM    5  C   UNK     0      23.377  48.202  20.049  0.00  0.00    -0.055 C 
HETATM    6  C   UNK     0      24.194  49.795  22.318  0.00  0.00     0.041 C 
HETATM    7  C   UNK     0      25.079  49.773  21.059  0.00  0.00     0.007 C 
HETATM    8  C   UNK     0      24.476  48.971  19.936  0.00  0.00    -0.015 C 
HETATM    9  C   UNK     0      21.852  46.611  18.968  0.00  0.00    -0.022 C 
HETATM   10  C   UNK     0      22.872  47.476  18.897  0.00  0.00     0.004 C 
HETATM   11  C   UNK     0      19.750  46.911  20.237  0.00  0.00     0.014 C 
HETATM   12  C   UNK     0      26.494  49.270  21.356  0.00  0.00     0.014 C 
ENDROOT
BRANCH   2  13
HETATM   13  C   UNK     0      21.241  46.417  22.798  0.00  0.00     0.009 C 
BRANCH  13  14
HETATM   14  C   UNK     0      20.856  44.954  22.981  0.00  0.00     0.033 C 
BRANCH  14  15
HETATM   15  C   UNK     0      21.755  44.277  24.007  0.00  0.00     0.134 C 
HETATM   16  O   UNK     0      21.829  45.146  25.159  0.00  0.00    -0.316 OA
HETATM   17  C   UNK     0      22.218  44.711  26.380  0.00  0.00     0.261 C 
HETATM   18  O   UNK     0      22.602  45.498  27.242  0.00  0.00    -0.265 OA
HETATM   19  C   UNK     0      22.031  43.245  26.692  0.00  0.00     0.142 C 
HETATM   20  C   UNK     0      22.070  42.318  25.494  0.00  0.00     0.130 C 
HETATM   21  C   UNK     0      21.237  42.891  24.362  0.00  0.00     0.065 C 
BRANCH  20  22
HETATM   22  O   UNK     0      23.424  42.146  25.085  0.00  0.00    -0.395 OA
HETATM   23  H   UNK     0      23.674  41.226  25.276  0.00  0.00     0.210 HD
ENDBRANCH  20  22
ENDBRANCH  14  15
ENDBRANCH  13  14
ENDBRANCH   2  13
BRANCH   3  24
HETATM   24  O   UNK     0      24.409  47.447  22.894  0.00  0.00    -0.315 OA
BRANCH  24  25
HETATM   25  C   UNK     0      24.590  47.193  24.228  0.00  0.00     0.267 C 
HETATM   26  O   UNK     0      23.960  47.727  25.133  0.00  0.00    -0.264 OA
BRANCH  25  27
HETATM   27  C   UNK     0      25.696  46.151  24.440  0.00  0.00     0.040 C 
HETATM   28  C   UNK     0      26.995  46.638  23.774  0.00  0.00     0.025 C 
HETATM   29  C   UNK     0      25.266  44.844  23.749  0.00  0.00     0.025 C 
BRANCH  27  30
HETATM   30  C   UNK     0      25.918  45.881  25.949  0.00  0.00     0.014 C 
HETATM   31  C   UNK     0      25.877  44.411  26.351  0.00  0.00     0.006 C 
ENDBRANCH  27  30
ENDBRANCH  25  27
ENDBRANCH  24  25
ENDBRANCH   3  24
TORSDOF 8
ENDMDL
MODEL 3
REMARK VINA RESULT:      -6.2     24.833     27.586
REMARK  8 active torsions:
REMARK  status: ('A' for Active; 'I' for Inactive)
REMARK    1  A    between atoms: O_1  and  C_8 
REMARK    2  A    between atoms: O_1  and  C_22 
REMARK    3  A    between atoms: O_3  and  C_23 
REMARK    4  A    between atoms: C_7  and  C_11 
REMARK    5  A    between atoms: C_11  and  C_15 
REMARK    6  A    between atoms: C_15  and  C_19 
REMARK    7  A    between atoms: C_22  and  C_24 
REMARK    8  A    between atoms: C_24  and  C_27 
ROOT
HETATM    1  C   UNK     0      34.817  14.890  19.794  0.00  0.00     0.052 C 
HETATM    2  C   UNK     0      35.798  15.389  20.897  0.00  0.00     0.004 C 
HETATM    3  C   UNK     0      34.074  13.589  20.177  0.00  0.00     0.141 C 
HETATM    4  C   UNK     0      36.533  16.688  20.453  0.00  0.00     0.009 C 
HETATM    5  C   UNK     0      33.848  15.998  19.392  0.00  0.00    -0.055 C 
HETATM    6  C   UNK     0      32.987  13.249  19.154  0.00  0.00     0.041 C 
HETATM    7  C   UNK     0      31.959  14.378  18.955  0.00  0.00     0.007 C 
HETATM    8  C   UNK     0      32.578  15.749  19.023  0.00  0.00    -0.015 C 
HETATM    9  C   UNK     0      35.564  17.686  19.874  0.00  0.00    -0.022 C 
HETATM   10  C   UNK     0      34.349  17.360  19.414  0.00  0.00     0.004 C 
HETATM   11  C   UNK     0      37.674  16.464  19.456  0.00  0.00     0.014 C 
HETATM   12  C   UNK     0      30.796  14.281  19.947  0.00  0.00     0.014 C 
ENDROOT
BRANCH   2  13
HETATM   13  C   UNK     0      36.784  14.307  21.350  0.00  0.00     0.009 C 
BRANCH  13  14
HETATM   14  C   UNK     0      37.665  14.811  22.485  0.00  0.00     0.033 C 
BRANCH  14  15
HETATM   15  C   UNK     0      37.096  14.406  23.839  0.00  0.00     0.134 C 
HETATM   16  O   UNK     0      36.921  12.972  23.824  0.00  0.00    -0.316 OA
HETATM   17  C   UNK     0      36.799  12.238  24.954  0.00  0.00     0.261 C 
HETATM   18  O   UNK     0      36.316  11.108  24.928  0.00  0.00    -0.265 OA
HETATM   19  C   UNK     0      37.401  12.798  26.220  0.00  0.00     0.142 C 
HETATM   20  C   UNK     0      37.478  14.310  26.287  0.00  0.00     0.130 C 
HETATM   21  C   UNK     0      38.000  14.865  24.974  0.00  0.00     0.065 C 
BRANCH  20  22
HETATM   22  O   UNK     0      36.182  14.828  26.573  0.00  0.00    -0.395 OA
HETATM   23  H   UNK     0      36.110  14.922  27.538  0.00  0.00     0.210 HD
ENDBRANCH  20  22
ENDBRANCH  14  15
ENDBRANCH  13  14
ENDBRANCH   2  13
BRANCH   3  24
HETATM   24  O   UNK     0      33.509  13.704  21.480  0.00  0.00    -0.315 OA
BRANCH  24  25
HETATM   25  C   UNK     0      33.677  12.623  22.304  0.00  0.00     0.267 C 
HETATM   26  O   UNK     0      34.369  11.646  22.043  0.00  0.00    -0.264 OA
BRANCH  25  27
HETATM   27  C   UNK     0      32.873  12.794  23.600  0.00  0.00     0.040 C 
HETATM   28  C   UNK     0      33.482  13.936  24.434  0.00  0.00     0.025 C 
HETATM   29  C   UNK     0      32.989  11.493  24.414  0.00  0.00     0.025 C 
BRANCH  27  30
HETATM   30  C   UNK     0      31.382  13.073  23.291  0.00  0.00     0.014 C 
HETATM   31  C   UNK     0      30.394  12.184  24.040  0.00  0.00     0.006 C 
ENDBRANCH  27  30
ENDBRANCH  25  27
ENDBRANCH  24  25
ENDBRANCH   3  24
TORSDOF 8
ENDMDL
