MODEL 1
REMARK VINA RESULT:      -7.9      0.000      0.000
REMARK  8 active torsions:
REMARK  status: ('A' for Active; 'I' for Inactive)
REMARK    1  A    between atoms: O_1  and  C_8 
REMARK    2  A    between atoms: O_1  and  C_22 
REMARK    3  A    between atoms: O_3  and  C_23 
REMARK    4  A    between atoms: C_7  and  C_11 
REMARK    5  A    between atoms: C_11  and  C_15 
REMARK    6  A    between atoms: C_15  and  C_19 
REMARK    7  A    between atoms: C_22  and  C_24 
REMARK    8  A    between atoms: C_24  and  C_27 
ROOT
HETATM    1  C   UNK     0       8.746  12.718   5.173  0.00  0.00     0.052 C 
HETATM    2  C   UNK     0       9.437  14.051   4.757  0.00  0.00     0.004 C 
HETATM    3  C   UNK     0       9.734  11.654   5.704  0.00  0.00     0.141 C 
HETATM    4  C   UNK     0       8.402  15.077   4.211  0.00  0.00     0.009 C 
HETATM    5  C   UNK     0       7.613  12.982   6.160  0.00  0.00    -0.055 C 
HETATM    6  C   UNK     0       8.992  10.444   6.279  0.00  0.00     0.041 C 
HETATM    7  C   UNK     0       7.995  10.810   7.394  0.00  0.00     0.007 C 
HETATM    8  C   UNK     0       7.295  12.120   7.144  0.00  0.00    -0.015 C 
HETATM    9  C   UNK     0       7.199  15.164   5.114  0.00  0.00    -0.022 C 
HETATM   10  C   UNK     0       6.866  14.216   6.001  0.00  0.00     0.004 C 
HETATM   11  C   UNK     0       7.931  14.806   2.779  0.00  0.00     0.014 C 
HETATM   12  C   UNK     0       8.655  10.827   8.775  0.00  0.00     0.014 C 
ENDROOT
BRANCH   2  13
HETATM   13  C   UNK     0      10.596  13.840   3.777  0.00  0.00     0.009 C 
BRANCH  13  14
HETATM   14  C   UNK     0      11.536  15.038   3.777  0.00  0.00     0.033 C 
BRANCH  14  15
HETATM   15  C   UNK     0      12.091  15.297   2.382  0.00  0.00     0.134 C 
HETATM   16  O   UNK     0      10.980  15.258   1.460  0.00  0.00    -0.316 OA
HETATM   17  C   UNK     0      11.035  15.806   0.224  0.00  0.00     0.261 C 
HETATM   18  O   UNK     0      10.241  15.477  -0.653  0.00  0.00    -0.265 OA
HETATM   19  C   UNK     0      12.015  16.934   0.003  0.00  0.00     0.142 C 
HETATM   20  C   UNK     0      13.242  16.911   0.892  0.00  0.00     0.130 C 
HETATM   21  C   UNK     0      12.841  16.620   2.327  0.00  0.00     0.065 C 
BRANCH  20  22
HETATM   22  O   UNK     0      14.144  15.918   0.411  0.00  0.00    -0.395 OA
HETATM   23  H   UNK     0      15.042  16.190   0.667  0.00  0.00     0.210 HD
ENDBRANCH  20  22
ENDBRANCH  14  15
ENDBRANCH  13  14
ENDBRANCH   2  13
BRANCH   3  24
HETATM   24  O   UNK     0      10.592  12.221   6.690  0.00  0.00    -0.315 OA
BRANCH  24  25
HETATM   25  C   UNK     0      11.901  11.820   6.649  0.00  0.00     0.267 C 
HETATM   26  O   UNK     0      12.525  11.575   5.623  0.00  0.00    -0.264 OA
BRANCH  25  27
HETATM   27  C   UNK     0      12.483  11.710   8.064  0.00  0.00     0.040 C 
HETATM   28  C   UNK     0      13.894  12.326   8.089  0.00  0.00     0.025 C 
HETATM   29  C   UNK     0      12.607  10.217   8.420  0.00  0.00     0.025 C 
BRANCH  27  30
HETATM   30  C   UNK     0      11.561  12.405   9.096  0.00  0.00     0.014 C 
HETATM   31  C   UNK     0      12.287  13.070  10.261  0.00  0.00     0.006 C 
ENDBRANCH  27  30
ENDBRANCH  25  27
ENDBRANCH  24  25
ENDBRANCH   3  24
TORSDOF 8
ENDMDL
MODEL 2
REMARK VINA RESULT:      -7.4      2.260      6.645
REMARK  8 active torsions:
REMARK  status: ('A' for Active; 'I' for Inactive)
REMARK    1  A    between atoms: O_1  and  C_8 
REMARK    2  A    between atoms: O_1  and  C_22 
REMARK    3  A    between atoms: O_3  and  C_23 
REMARK    4  A    between atoms: C_7  and  C_11 
REMARK    5  A    between atoms: C_11  and  C_15 
REMARK    6  A    between atoms: C_15  and  C_19 
REMARK    7  A    between atoms: C_22  and  C_24 
REMARK    8  A    between atoms: C_24  and  C_27 
ROOT
HETATM    1  C   UNK     0      10.182  15.517   3.321  0.00  0.00     0.052 C 
HETATM    2  C   UNK     0       9.267  14.272   3.515  0.00  0.00     0.004 C 
HETATM    3  C   UNK     0      11.511  15.432   4.107  0.00  0.00     0.141 C 
HETATM    4  C   UNK     0       7.937  14.418   2.720  0.00  0.00     0.009 C 
HETATM    5  C   UNK     0      10.419  15.788   1.838  0.00  0.00    -0.055 C 
HETATM    6  C   UNK     0      12.453  16.579   3.732  0.00  0.00     0.041 C 
HETATM    7  C   UNK     0      12.761  16.651   2.226  0.00  0.00     0.007 C 
HETATM    8  C   UNK     0      11.576  16.292   1.370  0.00  0.00    -0.015 C 
HETATM    9  C   UNK     0       8.199  14.882   1.310  0.00  0.00    -0.022 C 
HETATM   10  C   UNK     0       9.332  15.484   0.925  0.00  0.00     0.004 C 
HETATM   11  C   UNK     0       6.908  15.349   3.368  0.00  0.00     0.014 C 
HETATM   12  C   UNK     0      13.964  15.784   1.840  0.00  0.00     0.014 C 
ENDROOT
BRANCH   2  13
HETATM   13  C   UNK     0       9.012  13.945   4.991  0.00  0.00     0.009 C 
BRANCH  13  14
HETATM   14  C   UNK     0       8.257  12.631   5.136  0.00  0.00     0.033 C 
BRANCH  14  15
HETATM   15  C   UNK     0       7.549  12.553   6.483  0.00  0.00     0.134 C 
HETATM   16  O   UNK     0       8.552  12.722   7.509  0.00  0.00    -0.316 OA
HETATM   17  C   UNK     0       8.247  13.079   8.778  0.00  0.00     0.261 C 
HETATM   18  O   UNK     0       9.037  12.887   9.700  0.00  0.00    -0.265 OA
HETATM   19  C   UNK     0       6.966  13.847   9.000  0.00  0.00     0.142 C 
HETATM   20  C   UNK     0       5.869  13.582   7.988  0.00  0.00     0.130 C 
HETATM   21  C   UNK     0       6.441  13.591   6.582  0.00  0.00     0.065 C 
BRANCH  20  22
HETATM   22  O   UNK     0       5.266  12.324   8.277  0.00  0.00    -0.395 OA
HETATM   23  H   UNK     0       5.603  12.029   9.140  0.00  0.00     0.210 HD
ENDBRANCH  20  22
ENDBRANCH  14  15
ENDBRANCH  13  14
ENDBRANCH   2  13
BRANCH   3  24
HETATM   24  O   UNK     0      12.144  14.176   3.877  0.00  0.00    -0.315 OA
BRANCH  24  25
HETATM   25  C   UNK     0      12.549  13.495   4.994  0.00  0.00     0.267 C 
HETATM   26  O   UNK     0      13.047  14.014   5.987  0.00  0.00    -0.264 OA
BRANCH  25  27
HETATM   27  C   UNK     0      12.303  11.989   4.834  0.00  0.00     0.040 C 
HETATM   28  C   UNK     0      13.651  11.261   4.687  0.00  0.00     0.025 C 
HETATM   29  C   UNK     0      11.495  11.767   3.542  0.00  0.00     0.025 C 
BRANCH  27  30
HETATM   30  C   UNK     0      11.504  11.430   6.037  0.00  0.00     0.014 C 
HETATM   31  C   UNK     0      10.812  10.095   5.784  0.00  0.00     0.006 C 
ENDBRANCH  27  30
ENDBRANCH  25  27
ENDBRANCH  24  25
ENDBRANCH   3  24
TORSDOF 8
ENDMDL
MODEL 3
REMARK VINA RESULT:      -6.8      1.940      3.714
REMARK  8 active torsions:
REMARK  status: ('A' for Active; 'I' for Inactive)
REMARK    1  A    between atoms: O_1  and  C_8 
REMARK    2  A    between atoms: O_1  and  C_22 
REMARK    3  A    between atoms: O_3  and  C_23 
REMARK    4  A    between atoms: C_7  and  C_11 
REMARK    5  A    between atoms: C_11  and  C_15 
REMARK    6  A    between atoms: C_15  and  C_19 
REMARK    7  A    between atoms: C_22  and  C_24 
REMARK    8  A    between atoms: C_24  and  C_27 
ROOT
HETATM    1  C   UNK     0       8.181  11.687   7.140  0.00  0.00     0.052 C 
HETATM    2  C   UNK     0       8.101  13.236   6.999  0.00  0.00     0.004 C 
HETATM    3  C   UNK     0       9.101  11.022   6.090  0.00  0.00     0.141 C 
HETATM    4  C   UNK     0       7.149  13.852   8.065  0.00  0.00     0.009 C 
HETATM    5  C   UNK     0       8.570  11.293   8.562  0.00  0.00    -0.055 C 
HETATM    6  C   UNK     0       9.300   9.533   6.389  0.00  0.00     0.041 C 
HETATM    7  C   UNK     0       9.862   9.262   7.796  0.00  0.00     0.007 C 
HETATM    8  C   UNK     0       9.321  10.210   8.833  0.00  0.00    -0.015 C 
HETATM    9  C   UNK     0       7.432  13.287   9.433  0.00  0.00    -0.022 C 
HETATM   10  C   UNK     0       8.090  12.138   9.641  0.00  0.00     0.004 C 
HETATM   11  C   UNK     0       5.658  13.687   7.757  0.00  0.00     0.014 C 
HETATM   12  C   UNK     0      11.393   9.282   7.821  0.00  0.00     0.014 C 
ENDROOT
BRANCH   2  13
HETATM   13  C   UNK     0       7.730  13.686   5.581  0.00  0.00     0.009 C 
BRANCH  13  14
HETATM   14  C   UNK     0       8.497  14.942   5.189  0.00  0.00     0.033 C 
BRANCH  14  15
HETATM   15  C   UNK     0       8.634  15.048   3.676  0.00  0.00     0.134 C 
HETATM   16  O   UNK     0       9.964  15.539   3.395  0.00  0.00    -0.316 OA
HETATM   17  C   UNK     0      10.554  15.400   2.186  0.00  0.00     0.261 C 
HETATM   18  O   UNK     0      11.509  16.103   1.861  0.00  0.00    -0.265 OA
HETATM   19  C   UNK     0      10.091  14.263   1.307  0.00  0.00     0.142 C 
HETATM   20  C   UNK     0       8.656  13.823   1.520  0.00  0.00     0.130 C 
HETATM   21  C   UNK     0       8.359  13.710   3.004  0.00  0.00     0.065 C 
BRANCH  20  22
HETATM   22  O   UNK     0       7.786  14.768   0.903  0.00  0.00    -0.395 OA
HETATM   23  H   UNK     0       7.778  14.579  -0.051  0.00  0.00     0.210 HD
ENDBRANCH  20  22
ENDBRANCH  14  15
ENDBRANCH  13  14
ENDBRANCH   2  13
BRANCH   3  24
HETATM   24  O   UNK     0      10.359  11.688   6.037  0.00  0.00    -0.315 OA
BRANCH  24  25
HETATM   25  C   UNK     0      10.995  11.673   4.824  0.00  0.00     0.267 C 
HETATM   26  O   UNK     0      10.449  11.444   3.751  0.00  0.00    -0.264 OA
BRANCH  25  27
HETATM   27  C   UNK     0      12.490  11.976   4.988  0.00  0.00     0.040 C 
HETATM   28  C   UNK     0      13.312  10.744   4.567  0.00  0.00     0.025 C 
HETATM   29  C   UNK     0      12.766  12.248   6.478  0.00  0.00     0.025 C 
BRANCH  27  30
HETATM   30  C   UNK     0      12.896  13.218   4.158  0.00  0.00     0.014 C 
HETATM   31  C   UNK     0      12.783  14.548   4.896  0.00  0.00     0.006 C 
ENDBRANCH  27  30
ENDBRANCH  25  27
ENDBRANCH  24  25
ENDBRANCH   3  24
TORSDOF 8
ENDMDL
