MODEL 1
REMARK VINA RESULT:      -8.1      0.000      0.000
REMARK  8 active torsions:
REMARK  status: ('A' for Active; 'I' for Inactive)
REMARK    1  A    between atoms: O_1  and  C_8 
REMARK    2  A    between atoms: O_1  and  C_22 
REMARK    3  A    between atoms: O_3  and  C_23 
REMARK    4  A    between atoms: C_7  and  C_11 
REMARK    5  A    between atoms: C_11  and  C_15 
REMARK    6  A    between atoms: C_15  and  C_19 
REMARK    7  A    between atoms: C_22  and  C_24 
REMARK    8  A    between atoms: C_24  and  C_27 
ROOT
HETATM    1  C   UNK     0     -31.511 -16.757  27.875  0.00  0.00     0.052 C 
HETATM    2  C   UNK     0     -30.615 -17.605  28.825  0.00  0.00     0.004 C 
HETATM    3  C   UNK     0     -30.706 -15.923  26.852  0.00  0.00     0.141 C 
HETATM    4  C   UNK     0     -31.473 -18.408  29.845  0.00  0.00     0.009 C 
HETATM    5  C   UNK     0     -32.556 -17.635  27.191  0.00  0.00    -0.055 C 
HETATM    6  C   UNK     0     -31.628 -15.264  25.822  0.00  0.00     0.041 C 
HETATM    7  C   UNK     0     -32.517 -16.268  25.066  0.00  0.00     0.007 C 
HETATM    8  C   UNK     0     -32.989 -17.401  25.939  0.00  0.00    -0.015 C 
HETATM    9  C   UNK     0     -32.619 -19.104  29.157  0.00  0.00    -0.022 C 
HETATM   10  C   UNK     0     -33.085 -18.753  27.951  0.00  0.00     0.004 C 
HETATM   11  C   UNK     0     -32.022 -17.576  31.008  0.00  0.00     0.014 C 
HETATM   12  C   UNK     0     -31.827 -16.825  23.818  0.00  0.00     0.014 C 
ENDROOT
BRANCH   2  13
HETATM   13  C   UNK     0     -29.535 -16.772  29.525  0.00  0.00     0.009 C 
BRANCH  13  14
HETATM   14  C   UNK     0     -28.414 -17.660  30.049  0.00  0.00     0.033 C 
BRANCH  14  15
HETATM   15  C   UNK     0     -28.354 -17.624  31.571  0.00  0.00     0.134 C 
HETATM   16  O   UNK     0     -26.996 -17.929  31.958  0.00  0.00    -0.316 OA
HETATM   17  C   UNK     0     -26.498 -17.622  33.178  0.00  0.00     0.261 C 
HETATM   18  O   UNK     0     -25.489 -18.176  33.609  0.00  0.00    -0.265 OA
HETATM   19  C   UNK     0     -27.139 -16.479  33.928  0.00  0.00     0.142 C 
HETATM   20  C   UNK     0     -28.599 -16.233  33.608  0.00  0.00     0.130 C 
HETATM   21  C   UNK     0     -28.820 -16.278  32.107  0.00  0.00     0.065 C 
BRANCH  20  22
HETATM   22  O   UNK     0     -29.391 -17.220  34.263  0.00  0.00    -0.395 OA
HETATM   23  H   UNK     0     -30.272 -16.838  34.411  0.00  0.00     0.210 HD
ENDBRANCH  20  22
ENDBRANCH  14  15
ENDBRANCH  13  14
ENDBRANCH   2  13
BRANCH   3  24
HETATM   24  O   UNK     0     -29.737 -16.739  26.199  0.00  0.00    -0.315 OA
BRANCH  24  25
HETATM   25  C   UNK     0     -28.693 -16.076  25.610  0.00  0.00     0.267 C 
HETATM   26  O   UNK     0     -28.807 -15.076  24.909  0.00  0.00    -0.264 OA
BRANCH  25  27
HETATM   27  C   UNK     0     -27.359 -16.757  25.937  0.00  0.00     0.040 C 
HETATM   28  C   UNK     0     -27.611 -18.229  26.310  0.00  0.00     0.025 C 
HETATM   29  C   UNK     0     -26.745 -16.052  27.162  0.00  0.00     0.025 C 
BRANCH  27  30
HETATM   30  C   UNK     0     -26.377 -16.652  24.744  0.00  0.00     0.014 C 
HETATM   31  C   UNK     0     -25.398 -17.814  24.614  0.00  0.00     0.006 C 
ENDBRANCH  27  30
ENDBRANCH  25  27
ENDBRANCH  24  25
ENDBRANCH   3  24
TORSDOF 8
ENDMDL
MODEL 2
REMARK VINA RESULT:      -8.0     30.266     32.671
REMARK  8 active torsions:
REMARK  status: ('A' for Active; 'I' for Inactive)
REMARK    1  A    between atoms: O_1  and  C_8 
REMARK    2  A    between atoms: O_1  and  C_22 
REMARK    3  A    between atoms: O_3  and  C_23 
REMARK    4  A    between atoms: C_7  and  C_11 
REMARK    5  A    between atoms: C_11  and  C_15 
REMARK    6  A    between atoms: C_15  and  C_19 
REMARK    7  A    between atoms: C_22  and  C_24 
REMARK    8  A    between atoms: C_24  and  C_27 
ROOT
HETATM    1  C   UNK     0     -19.983  13.150  17.634  0.00  0.00     0.052 C 
HETATM    2  C   UNK     0     -18.721  12.650  18.399  0.00  0.00     0.004 C 
HETATM    3  C   UNK     0     -21.255  13.196  18.512  0.00  0.00     0.141 C 
HETATM    4  C   UNK     0     -17.476  12.604  17.466  0.00  0.00     0.009 C 
HETATM    5  C   UNK     0     -19.711  14.492  16.962  0.00  0.00    -0.055 C 
HETATM    6  C   UNK     0     -22.414  13.873  17.776  0.00  0.00     0.041 C 
HETATM    7  C   UNK     0     -22.083  15.296  17.291  0.00  0.00     0.007 C 
HETATM    8  C   UNK     0     -20.659  15.436  16.820  0.00  0.00    -0.015 C 
HETATM    9  C   UNK     0     -17.353  13.875  16.666  0.00  0.00    -0.022 C 
HETATM   10  C   UNK     0     -18.368  14.726  16.462  0.00  0.00     0.004 C 
HETATM   11  C   UNK     0     -17.443  11.408  16.510  0.00  0.00     0.014 C 
HETATM   12  C   UNK     0     -22.386  16.354  18.356  0.00  0.00     0.014 C 
ENDROOT
BRANCH   2  13
HETATM   13  C   UNK     0     -18.947  11.310  19.109  0.00  0.00     0.009 C 
BRANCH  13  14
HETATM   14  C   UNK     0     -18.647  11.423  20.597  0.00  0.00     0.033 C 
BRANCH  14  15
HETATM   15  C   UNK     0     -19.232  10.244  21.364  0.00  0.00     0.134 C 
HETATM   16  O   UNK     0     -19.850  10.768  22.560  0.00  0.00    -0.316 OA
HETATM   17  C   UNK     0     -20.773  10.078  23.269  0.00  0.00     0.261 C 
HETATM   18  O   UNK     0     -21.027  10.370  24.435  0.00  0.00    -0.265 OA
HETATM   19  C   UNK     0     -21.577   9.030  22.537  0.00  0.00     0.142 C 
HETATM   20  C   UNK     0     -20.883   8.394  21.349  0.00  0.00     0.130 C 
HETATM   21  C   UNK     0     -20.212   9.461  20.503  0.00  0.00     0.065 C 
BRANCH  20  22
HETATM   22  O   UNK     0     -19.924   7.451  21.822  0.00  0.00    -0.395 OA
HETATM   23  H   UNK     0     -19.174   7.954  22.182  0.00  0.00     0.210 HD
ENDBRANCH  20  22
ENDBRANCH  14  15
ENDBRANCH  13  14
ENDBRANCH   2  13
BRANCH   3  24
HETATM   24  O   UNK     0     -20.988  13.869  19.739  0.00  0.00    -0.315 OA
BRANCH  24  25
HETATM   25  C   UNK     0     -21.600  13.354  20.851  0.00  0.00     0.267 C 
HETATM   26  O   UNK     0     -22.285  12.338  20.865  0.00  0.00    -0.264 OA
BRANCH  25  27
HETATM   27  C   UNK     0     -21.319  14.226  22.082  0.00  0.00     0.040 C 
HETATM   28  C   UNK     0     -21.999  13.607  23.316  0.00  0.00     0.025 C 
HETATM   29  C   UNK     0     -21.940  15.615  21.840  0.00  0.00     0.025 C 
BRANCH  27  30
HETATM   30  C   UNK     0     -19.796  14.381  22.313  0.00  0.00     0.014 C 
HETATM   31  C   UNK     0     -19.413  15.181  23.554  0.00  0.00     0.006 C 
ENDBRANCH  27  30
ENDBRANCH  25  27
ENDBRANCH  24  25
ENDBRANCH   3  24
TORSDOF 8
ENDMDL
MODEL 3
REMARK VINA RESULT:      -8.0     32.390     35.246
REMARK  8 active torsions:
REMARK  status: ('A' for Active; 'I' for Inactive)
REMARK    1  A    between atoms: O_1  and  C_8 
REMARK    2  A    between atoms: O_1  and  C_22 
REMARK    3  A    between atoms: O_3  and  C_23 
REMARK    4  A    between atoms: C_7  and  C_11 
REMARK    5  A    between atoms: C_11  and  C_15 
REMARK    6  A    between atoms: C_15  and  C_19 
REMARK    7  A    between atoms: C_22  and  C_24 
REMARK    8  A    between atoms: C_24  and  C_27 
ROOT
HETATM    1  C   UNK     0     -19.114  13.390  18.325  0.00  0.00     0.052 C 
HETATM    2  C   UNK     0     -19.643  14.020  17.002  0.00  0.00     0.004 C 
HETATM    3  C   UNK     0     -20.113  13.500  19.500  0.00  0.00     0.141 C 
HETATM    4  C   UNK     0     -18.594  13.900  15.859  0.00  0.00     0.009 C 
HETATM    5  C   UNK     0     -18.668  11.948  18.095  0.00  0.00    -0.055 C 
HETATM    6  C   UNK     0     -19.632  12.700  20.714  0.00  0.00     0.041 C 
HETATM    7  C   UNK     0     -19.378  11.213  20.405  0.00  0.00     0.007 C 
HETATM    8  C   UNK     0     -18.796  10.993  19.034  0.00  0.00    -0.015 C 
HETATM    9  C   UNK     0     -18.025  12.506  15.792  0.00  0.00    -0.022 C 
HETATM   10  C   UNK     0     -18.082  11.631  16.805  0.00  0.00     0.004 C 
HETATM   11  C   UNK     0     -17.441  14.904  15.946  0.00  0.00     0.014 C 
HETATM   12  C   UNK     0     -20.640  10.363  20.578  0.00  0.00     0.014 C 
ENDROOT
BRANCH   2  13
HETATM   13  C   UNK     0     -20.122  15.465  17.182  0.00  0.00     0.009 C 
BRANCH  13  14
HETATM   14  C   UNK     0     -21.373  15.733  16.356  0.00  0.00     0.033 C 
BRANCH  14  15
HETATM   15  C   UNK     0     -21.335  17.127  15.743  0.00  0.00     0.134 C 
HETATM   16  O   UNK     0     -22.458  17.233  14.840  0.00  0.00    -0.316 OA
HETATM   17  C   UNK     0     -22.947  18.422  14.419  0.00  0.00     0.261 C 
HETATM   18  O   UNK     0     -23.651  18.500  13.414  0.00  0.00    -0.265 OA
HETATM   19  C   UNK     0     -22.716  19.626  15.301  0.00  0.00     0.142 C 
HETATM   20  C   UNK     0     -21.473  19.566  16.165  0.00  0.00     0.130 C 
HETATM   21  C   UNK     0     -21.356  18.202  16.820  0.00  0.00     0.065 C 
BRANCH  20  22
HETATM   22  O   UNK     0     -20.332  19.834  15.354  0.00  0.00    -0.395 OA
HETATM   23  H   UNK     0     -20.041  18.989  14.971  0.00  0.00     0.210 HD
ENDBRANCH  20  22
ENDBRANCH  14  15
ENDBRANCH  13  14
ENDBRANCH   2  13
BRANCH   3  24
HETATM   24  O   UNK     0     -21.406  13.059  19.097  0.00  0.00    -0.315 OA
BRANCH  24  25
HETATM   25  C   UNK     0     -22.463  13.797  19.559  0.00  0.00     0.267 C 
HETATM   26  O   UNK     0     -22.366  14.886  20.112  0.00  0.00    -0.264 OA
BRANCH  25  27
HETATM   27  C   UNK     0     -23.790  13.073  19.298  0.00  0.00     0.040 C 
HETATM   28  C   UNK     0     -23.711  12.324  17.956  0.00  0.00     0.025 C 
HETATM   29  C   UNK     0     -24.903  14.132  19.190  0.00  0.00     0.025 C 
BRANCH  27  30
HETATM   30  C   UNK     0     -24.124  12.098  20.454  0.00  0.00     0.014 C 
HETATM   31  C   UNK     0     -24.738  10.772  20.018  0.00  0.00     0.006 C 
ENDBRANCH  27  30
ENDBRANCH  25  27
ENDBRANCH  24  25
ENDBRANCH   3  24
TORSDOF 8
ENDMDL
