MODEL 1
REMARK VINA RESULT:      -7.8      0.000      0.000
REMARK  8 active torsions:
REMARK  status: ('A' for Active; 'I' for Inactive)
REMARK    1  A    between atoms: O_1  and  C_8 
REMARK    2  A    between atoms: O_1  and  C_22 
REMARK    3  A    between atoms: O_3  and  C_23 
REMARK    4  A    between atoms: C_7  and  C_11 
REMARK    5  A    between atoms: C_11  and  C_15 
REMARK    6  A    between atoms: C_15  and  C_19 
REMARK    7  A    between atoms: C_22  and  C_24 
REMARK    8  A    between atoms: C_24  and  C_27 
ROOT
HETATM    1  C   UNK     0     -41.423  47.040  17.098  0.00  0.00     0.052 C 
HETATM    2  C   UNK     0     -40.522  48.275  16.799  0.00  0.00     0.004 C 
HETATM    3  C   UNK     0     -40.774  46.028  18.070  0.00  0.00     0.141 C 
HETATM    4  C   UNK     0     -41.212  49.250  15.802  0.00  0.00     0.009 C 
HETATM    5  C   UNK     0     -42.802  47.481  17.578  0.00  0.00    -0.055 C 
HETATM    6  C   UNK     0     -41.768  44.938  18.483  0.00  0.00     0.041 C 
HETATM    7  C   UNK     0     -43.056  45.494  19.117  0.00  0.00     0.007 C 
HETATM    8  C   UNK     0     -43.513  46.779  18.480  0.00  0.00    -0.015 C 
HETATM    9  C   UNK     0     -42.643  49.507  16.200  0.00  0.00    -0.022 C 
HETATM   10  C   UNK     0     -43.341  48.707  17.017  0.00  0.00     0.004 C 
HETATM   11  C   UNK     0     -41.176  48.796  14.340  0.00  0.00     0.014 C 
HETATM   12  C   UNK     0     -42.920  45.683  20.631  0.00  0.00     0.014 C 
ENDROOT
BRANCH   2  13
HETATM   13  C   UNK     0     -39.116  47.886  16.329  0.00  0.00     0.009 C 
BRANCH  13  14
HETATM   14  C   UNK     0     -38.049  48.547  17.192  0.00  0.00     0.033 C 
BRANCH  14  15
HETATM   15  C   UNK     0     -37.172  49.475  16.361  0.00  0.00     0.134 C 
HETATM   16  O   UNK     0     -37.978  49.970  15.269  0.00  0.00    -0.316 OA
HETATM   17  C   UNK     0     -37.656  51.081  14.567  0.00  0.00     0.261 C 
HETATM   18  O   UNK     0     -38.137  51.292  13.455  0.00  0.00    -0.265 OA
HETATM   19  C   UNK     0     -36.797  52.117  15.251  0.00  0.00     0.142 C 
HETATM   20  C   UNK     0     -35.863  51.581  16.319  0.00  0.00     0.130 C 
HETATM   21  C   UNK     0     -36.600  50.599  17.212  0.00  0.00     0.065 C 
BRANCH  20  22
HETATM   22  O   UNK     0     -34.752  50.951  15.689  0.00  0.00    -0.395 OA
HETATM   23  H   UNK     0     -34.870  49.990  15.780  0.00  0.00     0.210 HD
ENDBRANCH  20  22
ENDBRANCH  14  15
ENDBRANCH  13  14
ENDBRANCH   2  13
BRANCH   3  24
HETATM   24  O   UNK     0     -40.269  46.698  19.221  0.00  0.00    -0.315 OA
BRANCH  24  25
HETATM   25  C   UNK     0     -39.221  46.088  19.859  0.00  0.00     0.267 C 
HETATM   26  O   UNK     0     -38.614  45.114  19.430  0.00  0.00    -0.264 OA
BRANCH  25  27
HETATM   27  C   UNK     0     -38.910  46.786  21.189  0.00  0.00     0.040 C 
HETATM   28  C   UNK     0     -39.374  45.895  22.356  0.00  0.00     0.025 C 
HETATM   29  C   UNK     0     -39.712  48.100  21.243  0.00  0.00     0.025 C 
BRANCH  27  30
HETATM   30  C   UNK     0     -37.400  47.104  21.306  0.00  0.00     0.014 C 
HETATM   31  C   UNK     0     -36.850  47.096  22.729  0.00  0.00     0.006 C 
ENDBRANCH  27  30
ENDBRANCH  25  27
ENDBRANCH  24  25
ENDBRANCH   3  24
TORSDOF 8
ENDMDL
MODEL 2
REMARK VINA RESULT:      -7.8      2.341      6.207
REMARK  8 active torsions:
REMARK  status: ('A' for Active; 'I' for Inactive)
REMARK    1  A    between atoms: O_1  and  C_8 
REMARK    2  A    between atoms: O_1  and  C_22 
REMARK    3  A    between atoms: O_3  and  C_23 
REMARK    4  A    between atoms: C_7  and  C_11 
REMARK    5  A    between atoms: C_11  and  C_15 
REMARK    6  A    between atoms: C_15  and  C_19 
REMARK    7  A    between atoms: C_22  and  C_24 
REMARK    8  A    between atoms: C_24  and  C_27 
ROOT
HETATM    1  C   UNK     0     -39.758  49.278  14.709  0.00  0.00     0.052 C 
HETATM    2  C   UNK     0     -39.242  49.668  16.126  0.00  0.00     0.004 C 
HETATM    3  C   UNK     0     -41.043  48.418  14.738  0.00  0.00     0.141 C 
HETATM    4  C   UNK     0     -37.938  50.514  16.039  0.00  0.00     0.009 C 
HETATM    5  C   UNK     0     -39.928  50.518  13.835  0.00  0.00    -0.055 C 
HETATM    6  C   UNK     0     -41.617  48.228  13.331  0.00  0.00     0.041 C 
HETATM    7  C   UNK     0     -41.913  49.553  12.606  0.00  0.00     0.007 C 
HETATM    8  C   UNK     0     -40.895  50.622  12.906  0.00  0.00    -0.015 C 
HETATM    9  C   UNK     0     -38.074  51.612  15.016  0.00  0.00    -0.022 C 
HETATM   10  C   UNK     0     -38.989  51.607  14.038  0.00  0.00     0.004 C 
HETATM   11  C   UNK     0     -36.674  49.704  15.736  0.00  0.00     0.014 C 
HETATM   12  C   UNK     0     -43.320  50.075  12.908  0.00  0.00     0.014 C 
ENDROOT
BRANCH   2  13
HETATM   13  C   UNK     0     -39.071  48.457  17.050  0.00  0.00     0.009 C 
BRANCH  13  14
HETATM   14  C   UNK     0     -38.538  48.881  18.412  0.00  0.00     0.033 C 
BRANCH  14  15
HETATM   15  C   UNK     0     -38.577  47.722  19.400  0.00  0.00     0.134 C 
HETATM   16  O   UNK     0     -39.720  47.925  20.260  0.00  0.00    -0.316 OA
HETATM   17  C   UNK     0     -40.274  46.928  20.988  0.00  0.00     0.261 C 
HETATM   18  O   UNK     0     -40.999  47.171  21.950  0.00  0.00    -0.265 OA
HETATM   19  C   UNK     0     -40.084  45.513  20.495  0.00  0.00     0.142 C 
HETATM   20  C   UNK     0     -38.823  45.272  19.690  0.00  0.00     0.130 C 
HETATM   21  C   UNK     0     -38.630  46.385  18.676  0.00  0.00     0.065 C 
BRANCH  20  22
HETATM   22  O   UNK     0     -37.711  45.203  20.578  0.00  0.00    -0.395 OA
HETATM   23  H   UNK     0     -37.020  44.677  20.142  0.00  0.00     0.210 HD
ENDBRANCH  20  22
ENDBRANCH  14  15
ENDBRANCH  13  14
ENDBRANCH   2  13
BRANCH   3  24
HETATM   24  O   UNK     0     -42.017  49.010  15.594  0.00  0.00    -0.315 OA
BRANCH  24  25
HETATM   25  C   UNK     0     -43.054  48.199  15.974  0.00  0.00     0.267 C 
HETATM   26  O   UNK     0     -43.991  47.878  15.252  0.00  0.00    -0.264 OA
BRANCH  25  27
HETATM   27  C   UNK     0     -42.889  47.749  17.431  0.00  0.00     0.040 C 
HETATM   28  C   UNK     0     -42.296  48.902  18.261  0.00  0.00     0.025 C 
HETATM   29  C   UNK     0     -41.894  46.575  17.464  0.00  0.00     0.025 C 
BRANCH  27  30
HETATM   30  C   UNK     0     -44.244  47.286  18.022  0.00  0.00     0.014 C 
HETATM   31  C   UNK     0     -44.158  46.655  19.408  0.00  0.00     0.006 C 
ENDBRANCH  27  30
ENDBRANCH  25  27
ENDBRANCH  24  25
ENDBRANCH   3  24
TORSDOF 8
ENDMDL
MODEL 3
REMARK VINA RESULT:      -7.6      2.274      6.298
REMARK  8 active torsions:
REMARK  status: ('A' for Active; 'I' for Inactive)
REMARK    1  A    between atoms: O_1  and  C_8 
REMARK    2  A    between atoms: O_1  and  C_22 
REMARK    3  A    between atoms: O_3  and  C_23 
REMARK    4  A    between atoms: C_7  and  C_11 
REMARK    5  A    between atoms: C_11  and  C_15 
REMARK    6  A    between atoms: C_15  and  C_19 
REMARK    7  A    between atoms: C_22  and  C_24 
REMARK    8  A    between atoms: C_24  and  C_27 
ROOT
HETATM    1  C   UNK     0     -39.456  49.365  14.674  0.00  0.00     0.052 C 
HETATM    2  C   UNK     0     -38.904  49.580  16.115  0.00  0.00     0.004 C 
HETATM    3  C   UNK     0     -40.618  48.347  14.608  0.00  0.00     0.141 C 
HETATM    4  C   UNK     0     -37.725  50.596  16.122  0.00  0.00     0.009 C 
HETATM    5  C   UNK     0     -39.834  50.698  14.036  0.00  0.00    -0.055 C 
HETATM    6  C   UNK     0     -41.251  48.317  13.214  0.00  0.00     0.041 C 
HETATM    7  C   UNK     0     -41.756  49.692  12.741  0.00  0.00     0.007 C 
HETATM    8  C   UNK     0     -40.863  50.823  13.178  0.00  0.00    -0.015 C 
HETATM    9  C   UNK     0     -38.061  51.820  15.311  0.00  0.00    -0.022 C 
HETATM   10  C   UNK     0     -39.028  51.854  14.384  0.00  0.00     0.004 C 
HETATM   11  C   UNK     0     -36.391  50.025  15.633  0.00  0.00     0.014 C 
HETATM   12  C   UNK     0     -43.196  49.963  13.185  0.00  0.00     0.014 C 
ENDROOT
BRANCH   2  13
HETATM   13  C   UNK     0     -38.525  48.267  16.809  0.00  0.00     0.009 C 
BRANCH  13  14
HETATM   14  C   UNK     0     -38.234  48.495  18.287  0.00  0.00     0.033 C 
BRANCH  14  15
HETATM   15  C   UNK     0     -39.361  47.951  19.156  0.00  0.00     0.134 C 
HETATM   16  O   UNK     0     -39.623  46.597  18.727  0.00  0.00    -0.316 OA
HETATM   17  C   UNK     0     -40.278  45.700  19.499  0.00  0.00     0.261 C 
HETATM   18  O   UNK     0     -40.789  44.694  19.011  0.00  0.00    -0.265 OA
HETATM   19  C   UNK     0     -40.239  45.904  20.995  0.00  0.00     0.142 C 
HETATM   20  C   UNK     0     -40.081  47.341  21.449  0.00  0.00     0.130 C 
HETATM   21  C   UNK     0     -39.003  48.031  20.633  0.00  0.00     0.065 C 
BRANCH  20  22
HETATM   22  O   UNK     0     -41.329  48.013  21.302  0.00  0.00    -0.395 OA
HETATM   23  H   UNK     0     -41.968  47.370  20.952  0.00  0.00     0.210 HD
ENDBRANCH  20  22
ENDBRANCH  14  15
ENDBRANCH  13  14
ENDBRANCH   2  13
BRANCH   3  24
HETATM   24  O   UNK     0     -41.603  48.653  15.591  0.00  0.00    -0.315 OA
BRANCH  24  25
HETATM   25  C   UNK     0     -42.070  47.593  16.322  0.00  0.00     0.267 C 
HETATM   26  O   UNK     0     -41.660  46.442  16.224  0.00  0.00    -0.264 OA
BRANCH  25  27
HETATM   27  C   UNK     0     -43.186  48.037  17.277  0.00  0.00     0.040 C 
HETATM   28  C   UNK     0     -42.695  49.227  18.121  0.00  0.00     0.025 C 
HETATM   29  C   UNK     0     -43.496  46.869  18.232  0.00  0.00     0.025 C 
BRANCH  27  30
HETATM   30  C   UNK     0     -44.468  48.409  16.493  0.00  0.00     0.014 C 
HETATM   31  C   UNK     0     -44.900  47.388  15.446  0.00  0.00     0.006 C 
ENDBRANCH  27  30
ENDBRANCH  25  27
ENDBRANCH  24  25
ENDBRANCH   3  24
TORSDOF 8
ENDMDL
