MODEL 1
REMARK VINA RESULT:      -8.9      0.000      0.000
REMARK  8 active torsions:
REMARK  status: ('A' for Active; 'I' for Inactive)
REMARK    1  A    between atoms: O_1  and  C_8 
REMARK    2  A    between atoms: O_1  and  C_22 
REMARK    3  A    between atoms: O_3  and  C_23 
REMARK    4  A    between atoms: C_7  and  C_11 
REMARK    5  A    between atoms: C_11  and  C_15 
REMARK    6  A    between atoms: C_15  and  C_19 
REMARK    7  A    between atoms: C_22  and  C_24 
REMARK    8  A    between atoms: C_24  and  C_27 
ROOT
HETATM    1  C   UNK     0       5.077   6.883  20.109  0.00  0.00     0.052 C 
HETATM    2  C   UNK     0       3.546   7.061  19.885  0.00  0.00     0.004 C 
HETATM    3  C   UNK     0       5.941   7.727  19.144  0.00  0.00     0.141 C 
HETATM    4  C   UNK     0       2.724   6.176  20.867  0.00  0.00     0.009 C 
HETATM    5  C   UNK     0       5.444   7.139  21.568  0.00  0.00    -0.055 C 
HETATM    6  C   UNK     0       7.423   7.668  19.529  0.00  0.00     0.041 C 
HETATM    7  C   UNK     0       7.697   8.116  20.976  0.00  0.00     0.007 C 
HETATM    8  C   UNK     0       6.615   7.691  21.934  0.00  0.00    -0.015 C 
HETATM    9  C   UNK     0       3.246   6.303  22.275  0.00  0.00    -0.022 C 
HETATM   10  C   UNK     0       4.471   6.755  22.575  0.00  0.00     0.004 C 
HETATM   11  C   UNK     0       2.666   4.693  20.489  0.00  0.00     0.014 C 
HETATM   12  C   UNK     0       7.921   9.627  21.081  0.00  0.00     0.014 C 
ENDROOT
BRANCH   2  13
HETATM   13  C   UNK     0       3.127   6.832  18.429  0.00  0.00     0.009 C 
BRANCH  13  14
HETATM   14  C   UNK     0       2.551   8.103  17.819  0.00  0.00     0.033 C 
BRANCH  14  15
HETATM   15  C   UNK     0       2.774   8.135  16.313  0.00  0.00     0.134 C 
HETATM   16  O   UNK     0       3.057   9.504  15.946  0.00  0.00    -0.316 OA
HETATM   17  C   UNK     0       3.663   9.839  14.784  0.00  0.00     0.261 C 
HETATM   18  O   UNK     0       3.588  10.980  14.334  0.00  0.00    -0.265 OA
HETATM   19  C   UNK     0       4.547   8.803  14.131  0.00  0.00     0.142 C 
HETATM   20  C   UNK     0       4.178   7.362  14.422  0.00  0.00     0.130 C 
HETATM   21  C   UNK     0       3.888   7.184  15.901  0.00  0.00     0.065 C 
BRANCH  20  22
HETATM   22  O   UNK     0       3.041   7.008  13.640  0.00  0.00    -0.395 OA
HETATM   23  H   UNK     0       3.348   6.848  12.731  0.00  0.00     0.210 HD
ENDBRANCH  20  22
ENDBRANCH  14  15
ENDBRANCH  13  14
ENDBRANCH   2  13
BRANCH   3  24
HETATM   24  O   UNK     0       5.489   9.078  19.124  0.00  0.00    -0.315 OA
BRANCH  24  25
HETATM   25  C   UNK     0       5.781   9.792  17.993  0.00  0.00     0.267 C 
HETATM   26  O   UNK     0       6.369   9.343  17.016  0.00  0.00    -0.264 OA
BRANCH  25  27
HETATM   27  C   UNK     0       5.278  11.236  18.113  0.00  0.00     0.040 C 
HETATM   28  C   UNK     0       5.829  12.071  16.944  0.00  0.00     0.025 C 
HETATM   29  C   UNK     0       5.825  11.829  19.424  0.00  0.00     0.025 C 
BRANCH  27  30
HETATM   30  C   UNK     0       3.730  11.281  18.140  0.00  0.00     0.014 C 
HETATM   31  C   UNK     0       3.135  12.549  18.744  0.00  0.00     0.006 C 
ENDBRANCH  27  30
ENDBRANCH  25  27
ENDBRANCH  24  25
ENDBRANCH   3  24
TORSDOF 8
ENDMDL
MODEL 2
REMARK VINA RESULT:      -8.8      1.965      4.997
REMARK  8 active torsions:
REMARK  status: ('A' for Active; 'I' for Inactive)
REMARK    1  A    between atoms: O_1  and  C_8 
REMARK    2  A    between atoms: O_1  and  C_22 
REMARK    3  A    between atoms: O_3  and  C_23 
REMARK    4  A    between atoms: C_7  and  C_11 
REMARK    5  A    between atoms: C_11  and  C_15 
REMARK    6  A    between atoms: C_15  and  C_19 
REMARK    7  A    between atoms: C_22  and  C_24 
REMARK    8  A    between atoms: C_24  and  C_27 
ROOT
HETATM    1  C   UNK     0       5.903   7.983  16.879  0.00  0.00     0.052 C 
HETATM    2  C   UNK     0       5.100   7.151  15.835  0.00  0.00     0.004 C 
HETATM    3  C   UNK     0       5.018   8.591  17.991  0.00  0.00     0.141 C 
HETATM    4  C   UNK     0       6.035   6.580  14.729  0.00  0.00     0.009 C 
HETATM    5  C   UNK     0       7.052   7.162  17.456  0.00  0.00    -0.055 C 
HETATM    6  C   UNK     0       5.869   9.230  19.092  0.00  0.00     0.041 C 
HETATM    7  C   UNK     0       6.880   8.257  19.726  0.00  0.00     0.007 C 
HETATM    8  C   UNK     0       7.471   7.298  18.728  0.00  0.00    -0.015 C 
HETATM    9  C   UNK     0       7.264   5.950  15.332  0.00  0.00    -0.022 C 
HETATM   10  C   UNK     0       7.700   6.211  16.571  0.00  0.00     0.004 C 
HETATM   11  C   UNK     0       6.466   7.601  13.672  0.00  0.00     0.014 C 
HETATM   12  C   UNK     0       6.277   7.481  20.900  0.00  0.00     0.014 C 
ENDROOT
BRANCH   2  13
HETATM   13  C   UNK     0       3.921   7.925  15.236  0.00  0.00     0.009 C 
BRANCH  13  14
HETATM   14  C   UNK     0       4.405   9.149  14.469  0.00  0.00     0.033 C 
BRANCH  14  15
HETATM   15  C   UNK     0       3.536  10.363  14.772  0.00  0.00     0.134 C 
HETATM   16  O   UNK     0       3.781  10.737  16.146  0.00  0.00    -0.316 OA
HETATM   17  C   UNK     0       3.480  11.963  16.634  0.00  0.00     0.261 C 
HETATM   18  O   UNK     0       3.369  12.155  17.843  0.00  0.00    -0.265 OA
HETATM   19  C   UNK     0       3.426  13.112  15.656  0.00  0.00     0.142 C 
HETATM   20  C   UNK     0       3.054  12.735  14.236  0.00  0.00     0.130 C 
HETATM   21  C   UNK     0       3.825  11.501  13.804  0.00  0.00     0.065 C 
BRANCH  20  22
HETATM   22  O   UNK     0       1.650  12.500  14.171  0.00  0.00    -0.395 OA
HETATM   23  H   UNK     0       1.473  11.660  14.627  0.00  0.00     0.210 HD
ENDBRANCH  20  22
ENDBRANCH  14  15
ENDBRANCH  13  14
ENDBRANCH   2  13
BRANCH   3  24
HETATM   24  O   UNK     0       4.161   7.595  18.544  0.00  0.00    -0.315 OA
BRANCH  24  25
HETATM   25  C   UNK     0       2.818   7.861  18.487  0.00  0.00     0.267 C 
HETATM   26  O   UNK     0       2.333   8.962  18.257  0.00  0.00    -0.264 OA
BRANCH  25  27
HETATM   27  C   UNK     0       1.999   6.592  18.759  0.00  0.00     0.040 C 
HETATM   28  C   UNK     0       2.470   5.466  17.823  0.00  0.00     0.025 C 
HETATM   29  C   UNK     0       0.523   6.894  18.439  0.00  0.00     0.025 C 
BRANCH  27  30
HETATM   30  C   UNK     0       2.122   6.163  20.242  0.00  0.00     0.014 C 
HETATM   31  C   UNK     0       2.786   4.809  20.466  0.00  0.00     0.006 C 
ENDBRANCH  27  30
ENDBRANCH  25  27
ENDBRANCH  24  25
ENDBRANCH   3  24
TORSDOF 8
ENDMDL
MODEL 3
REMARK VINA RESULT:      -8.8      1.887      4.586
REMARK  8 active torsions:
REMARK  status: ('A' for Active; 'I' for Inactive)
REMARK    1  A    between atoms: O_1  and  C_8 
REMARK    2  A    between atoms: O_1  and  C_22 
REMARK    3  A    between atoms: O_3  and  C_23 
REMARK    4  A    between atoms: C_7  and  C_11 
REMARK    5  A    between atoms: C_11  and  C_15 
REMARK    6  A    between atoms: C_15  and  C_19 
REMARK    7  A    between atoms: C_22  and  C_24 
REMARK    8  A    between atoms: C_24  and  C_27 
ROOT
HETATM    1  C   UNK     0       3.438   7.509  19.693  0.00  0.00     0.052 C 
HETATM    2  C   UNK     0       4.909   8.008  19.806  0.00  0.00     0.004 C 
HETATM    3  C   UNK     0       3.036   7.102  18.257  0.00  0.00     0.141 C 
HETATM    4  C   UNK     0       5.255   8.422  21.266  0.00  0.00     0.009 C 
HETATM    5  C   UNK     0       3.170   6.389  20.694  0.00  0.00    -0.055 C 
HETATM    6  C   UNK     0       1.656   6.439  18.233  0.00  0.00     0.041 C 
HETATM    7  C   UNK     0       1.551   5.210  19.153  0.00  0.00     0.007 C 
HETATM    8  C   UNK     0       2.327   5.372  20.434  0.00  0.00    -0.015 C 
HETATM    9  C   UNK     0       4.793   7.377  22.248  0.00  0.00    -0.022 C 
HETATM   10  C   UNK     0       3.862   6.455  21.968  0.00  0.00     0.004 C 
HETATM   11  C   UNK     0       4.698   9.785  21.689  0.00  0.00     0.014 C 
HETATM   12  C   UNK     0       1.978   3.921  18.446  0.00  0.00     0.014 C 
ENDROOT
BRANCH   2  13
HETATM   13  C   UNK     0       5.237   9.124  18.808  0.00  0.00     0.009 C 
BRANCH  13  14
HETATM   14  C   UNK     0       3.967   9.806  18.315  0.00  0.00     0.033 C 
BRANCH  14  15
HETATM   15  C   UNK     0       4.261  10.714  17.127  0.00  0.00     0.134 C 
HETATM   16  O   UNK     0       3.862  10.007  15.933  0.00  0.00    -0.316 OA
HETATM   17  C   UNK     0       3.629  10.633  14.756  0.00  0.00     0.261 C 
HETATM   18  O   UNK     0       3.632  10.012  13.695  0.00  0.00    -0.265 OA
HETATM   19  C   UNK     0       3.227  12.088  14.805  0.00  0.00     0.142 C 
HETATM   20  C   UNK     0       3.744  12.862  16.001  0.00  0.00     0.130 C 
HETATM   21  C   UNK     0       3.550  12.052  17.270  0.00  0.00     0.065 C 
BRANCH  20  22
HETATM   22  O   UNK     0       5.122  13.160  15.800  0.00  0.00    -0.395 OA
HETATM   23  H   UNK     0       5.610  12.818  16.569  0.00  0.00     0.210 HD
ENDBRANCH  20  22
ENDBRANCH  14  15
ENDBRANCH  13  14
ENDBRANCH   2  13
BRANCH   3  24
HETATM   24  O   UNK     0       4.013   6.231  17.695  0.00  0.00    -0.315 OA
BRANCH  24  25
HETATM   25  C   UNK     0       4.365   6.483  16.395  0.00  0.00     0.267 C 
HETATM   26  O   UNK     0       3.571   6.685  15.483  0.00  0.00    -0.264 OA
BRANCH  25  27
HETATM   27  C   UNK     0       5.890   6.469  16.229  0.00  0.00     0.040 C 
HETATM   28  C   UNK     0       6.278   5.464  15.131  0.00  0.00     0.025 C 
HETATM   29  C   UNK     0       6.514   5.995  17.554  0.00  0.00     0.025 C 
BRANCH  27  30
HETATM   30  C   UNK     0       6.421   7.884  15.893  0.00  0.00     0.014 C 
HETATM   31  C   UNK     0       7.869   8.140  16.297  0.00  0.00     0.006 C 
ENDBRANCH  27  30
ENDBRANCH  25  27
ENDBRANCH  24  25
ENDBRANCH   3  24
TORSDOF 8
ENDMDL
