MODEL 1
REMARK VINA RESULT:      -8.0      0.000      0.000
REMARK  8 active torsions:
REMARK  status: ('A' for Active; 'I' for Inactive)
REMARK    1  A    between atoms: O_1  and  C_8 
REMARK    2  A    between atoms: O_1  and  C_22 
REMARK    3  A    between atoms: O_3  and  C_23 
REMARK    4  A    between atoms: C_7  and  C_11 
REMARK    5  A    between atoms: C_11  and  C_15 
REMARK    6  A    between atoms: C_15  and  C_19 
REMARK    7  A    between atoms: C_22  and  C_24 
REMARK    8  A    between atoms: C_24  and  C_27 
ROOT
HETATM    1  C   UNK     0      19.357  58.841  23.984  0.00  0.00     0.052 C 
HETATM    2  C   UNK     0      20.106  57.563  24.463  0.00  0.00     0.004 C 
HETATM    3  C   UNK     0      17.880  58.894  24.439  0.00  0.00     0.141 C 
HETATM    4  C   UNK     0      21.580  57.550  23.962  0.00  0.00     0.009 C 
HETATM    5  C   UNK     0      20.120  60.099  24.391  0.00  0.00    -0.055 C 
HETATM    6  C   UNK     0      17.247  60.250  24.113  0.00  0.00     0.041 C 
HETATM    7  C   UNK     0      18.006  61.442  24.723  0.00  0.00     0.007 C 
HETATM    8  C   UNK     0      19.499  61.247  24.718  0.00  0.00    -0.015 C 
HETATM    9  C   UNK     0      22.243  58.882  24.201  0.00  0.00    -0.022 C 
HETATM   10  C   UNK     0      21.569  60.020  24.410  0.00  0.00     0.004 C 
HETATM   11  C   UNK     0      21.747  57.168  22.489  0.00  0.00     0.014 C 
HETATM   12  C   UNK     0      17.527  61.768  26.140  0.00  0.00     0.014 C 
ENDROOT
BRANCH   2  13
HETATM   13  C   UNK     0      19.372  56.269  24.094  0.00  0.00     0.009 C 
BRANCH  13  14
HETATM   14  C   UNK     0      19.203  55.370  25.312  0.00  0.00     0.033 C 
BRANCH  14  15
HETATM   15  C   UNK     0      18.249  54.220  25.014  0.00  0.00     0.134 C 
HETATM   16  O   UNK     0      17.055  54.433  25.799  0.00  0.00    -0.316 OA
HETATM   17  C   UNK     0      15.875  53.836  25.513  0.00  0.00     0.261 C 
HETATM   18  O   UNK     0      14.986  53.749  26.357  0.00  0.00    -0.265 OA
HETATM   19  C   UNK     0      15.637  53.408  24.084  0.00  0.00     0.142 C 
HETATM   20  C   UNK     0      16.884  53.071  23.292  0.00  0.00     0.130 C 
HETATM   21  C   UNK     0      17.951  54.125  23.525  0.00  0.00     0.065 C 
BRANCH  20  22
HETATM   22  O   UNK     0      17.352  51.785  23.691  0.00  0.00    -0.395 OA
HETATM   23  H   UNK     0      17.304  51.744  24.661  0.00  0.00     0.210 HD
ENDBRANCH  20  22
ENDBRANCH  14  15
ENDBRANCH  13  14
ENDBRANCH   2  13
BRANCH   3  24
HETATM   24  O   UNK     0      17.780  58.624  25.834  0.00  0.00    -0.315 OA
BRANCH  24  25
HETATM   25  C   UNK     0      16.654  57.955  26.236  0.00  0.00     0.267 C 
HETATM   26  O   UNK     0      15.832  57.453  25.478  0.00  0.00    -0.264 OA
BRANCH  25  27
HETATM   27  C   UNK     0      16.555  57.923  27.766  0.00  0.00     0.040 C 
HETATM   28  C   UNK     0      15.769  56.674  28.204  0.00  0.00     0.025 C 
HETATM   29  C   UNK     0      15.771  59.167  28.225  0.00  0.00     0.025 C 
BRANCH  27  30
HETATM   30  C   UNK     0      17.963  57.941  28.411  0.00  0.00     0.014 C 
HETATM   31  C   UNK     0      18.505  56.573  28.810  0.00  0.00     0.006 C 
ENDBRANCH  27  30
ENDBRANCH  25  27
ENDBRANCH  24  25
ENDBRANCH   3  24
TORSDOF 8
ENDMDL
MODEL 2
REMARK VINA RESULT:      -7.9      1.847      4.704
REMARK  8 active torsions:
REMARK  status: ('A' for Active; 'I' for Inactive)
REMARK    1  A    between atoms: O_1  and  C_8 
REMARK    2  A    between atoms: O_1  and  C_22 
REMARK    3  A    between atoms: O_3  and  C_23 
REMARK    4  A    between atoms: C_7  and  C_11 
REMARK    5  A    between atoms: C_11  and  C_15 
REMARK    6  A    between atoms: C_15  and  C_19 
REMARK    7  A    between atoms: C_22  and  C_24 
REMARK    8  A    between atoms: C_24  and  C_27 
ROOT
HETATM    1  C   UNK     0      19.055  59.060  25.657  0.00  0.00     0.052 C 
HETATM    2  C   UNK     0      17.586  58.924  25.159  0.00  0.00     0.004 C 
HETATM    3  C   UNK     0      19.784  57.703  25.794  0.00  0.00     0.141 C 
HETATM    4  C   UNK     0      16.893  60.314  25.057  0.00  0.00     0.009 C 
HETATM    5  C   UNK     0      19.835  60.035  24.779  0.00  0.00    -0.055 C 
HETATM    6  C   UNK     0      21.273  57.900  26.095  0.00  0.00     0.041 C 
HETATM    7  C   UNK     0      22.000  58.761  25.046  0.00  0.00     0.007 C 
HETATM    8  C   UNK     0      21.147  59.883  24.518  0.00  0.00    -0.015 C 
HETATM    9  C   UNK     0      17.781  61.311  24.357  0.00  0.00    -0.022 C 
HETATM   10  C   UNK     0      19.105  61.161  24.226  0.00  0.00     0.004 C 
HETATM   11  C   UNK     0      16.447  60.902  26.400  0.00  0.00     0.014 C 
HETATM   12  C   UNK     0      22.537  57.922  23.883  0.00  0.00     0.014 C 
ENDROOT
BRANCH   2  13
HETATM   13  C   UNK     0      16.762  57.941  25.997  0.00  0.00     0.009 C 
BRANCH  13  14
HETATM   14  C   UNK     0      15.969  56.993  25.106  0.00  0.00     0.033 C 
BRANCH  14  15
HETATM   15  C   UNK     0      15.078  56.079  25.937  0.00  0.00     0.134 C 
HETATM   16  O   UNK     0      14.345  55.238  25.019  0.00  0.00    -0.316 OA
HETATM   17  C   UNK     0      13.759  54.079  25.397  0.00  0.00     0.261 C 
HETATM   18  O   UNK     0      12.873  53.564  24.719  0.00  0.00    -0.265 OA
HETATM   19  C   UNK     0      14.325  53.371  26.605  0.00  0.00     0.142 C 
HETATM   20  C   UNK     0      14.993  54.268  27.628  0.00  0.00     0.130 C 
HETATM   21  C   UNK     0      15.896  55.270  26.933  0.00  0.00     0.065 C 
BRANCH  20  22
HETATM   22  O   UNK     0      13.987  54.936  28.384  0.00  0.00    -0.395 OA
HETATM   23  H   UNK     0      13.212  55.045  27.808  0.00  0.00     0.210 HD
ENDBRANCH  20  22
ENDBRANCH  14  15
ENDBRANCH  13  14
ENDBRANCH   2  13
BRANCH   3  24
HETATM   24  O   UNK     0      19.618  56.927  24.611  0.00  0.00    -0.315 OA
BRANCH  24  25
HETATM   25  C   UNK     0      19.386  55.590  24.798  0.00  0.00     0.267 C 
HETATM   26  O   UNK     0      19.195  55.060  25.886  0.00  0.00    -0.264 OA
BRANCH  25  27
HETATM   27  C   UNK     0      19.405  54.840  23.460  0.00  0.00     0.040 C 
HETATM   28  C   UNK     0      20.002  53.437  23.666  0.00  0.00     0.025 C 
HETATM   29  C   UNK     0      20.318  55.611  22.488  0.00  0.00     0.025 C 
BRANCH  27  30
HETATM   30  C   UNK     0      17.981  54.749  22.858  0.00  0.00     0.014 C 
HETATM   31  C   UNK     0      17.107  53.643  23.440  0.00  0.00     0.006 C 
ENDBRANCH  27  30
ENDBRANCH  25  27
ENDBRANCH  24  25
ENDBRANCH   3  24
TORSDOF 8
ENDMDL
MODEL 3
REMARK VINA RESULT:      -7.7      3.097      4.978
REMARK  8 active torsions:
REMARK  status: ('A' for Active; 'I' for Inactive)
REMARK    1  A    between atoms: O_1  and  C_8 
REMARK    2  A    between atoms: O_1  and  C_22 
REMARK    3  A    between atoms: O_3  and  C_23 
REMARK    4  A    between atoms: C_7  and  C_11 
REMARK    5  A    between atoms: C_11  and  C_15 
REMARK    6  A    between atoms: C_15  and  C_19 
REMARK    7  A    between atoms: C_22  and  C_24 
REMARK    8  A    between atoms: C_24  and  C_27 
ROOT
HETATM    1  C   UNK     0      17.227  60.543  26.324  0.00  0.00     0.052 C 
HETATM    2  C   UNK     0      18.627  60.285  25.692  0.00  0.00     0.004 C 
HETATM    3  C   UNK     0      17.053  59.898  27.718  0.00  0.00     0.141 C 
HETATM    4  C   UNK     0      18.741  60.938  24.284  0.00  0.00     0.009 C 
HETATM    5  C   UNK     0      16.913  62.036  26.349  0.00  0.00    -0.055 C 
HETATM    6  C   UNK     0      15.744  60.340  28.376  0.00  0.00     0.041 C 
HETATM    7  C   UNK     0      15.611  61.868  28.508  0.00  0.00     0.007 C 
HETATM    8  C   UNK     0      16.192  62.608  27.332  0.00  0.00    -0.015 C 
HETATM    9  C   UNK     0      18.232  62.357  24.304  0.00  0.00    -0.022 C 
HETATM   10  C   UNK     0      17.420  62.841  25.253  0.00  0.00     0.004 C 
HETATM   11  C   UNK     0      18.029  60.169  23.167  0.00  0.00     0.014 C 
HETATM   12  C   UNK     0      16.226  62.392  29.808  0.00  0.00     0.014 C 
ENDROOT
BRANCH   2  13
HETATM   13  C   UNK     0      18.999  58.799  25.659  0.00  0.00     0.009 C 
BRANCH  13  14
HETATM   14  C   UNK     0      20.416  58.579  26.173  0.00  0.00     0.033 C 
BRANCH  14  15
HETATM   15  C   UNK     0      21.283  57.905  25.117  0.00  0.00     0.134 C 
HETATM   16  O   UNK     0      20.567  56.742  24.647  0.00  0.00    -0.316 OA
HETATM   17  C   UNK     0      20.851  56.134  23.472  0.00  0.00     0.261 C 
HETATM   18  O   UNK     0      20.489  54.980  23.250  0.00  0.00    -0.265 OA
HETATM   19  C   UNK     0      21.505  56.965  22.394  0.00  0.00     0.142 C 
HETATM   20  C   UNK     0      22.353  58.118  22.890  0.00  0.00     0.130 C 
HETATM   21  C   UNK     0      21.623  58.869  23.989  0.00  0.00     0.065 C 
BRANCH  20  22
HETATM   22  O   UNK     0      23.594  57.608  23.369  0.00  0.00    -0.395 OA
HETATM   23  H   UNK     0      24.303  58.046  22.868  0.00  0.00     0.210 HD
ENDBRANCH  20  22
ENDBRANCH  14  15
ENDBRANCH  13  14
ENDBRANCH   2  13
BRANCH   3  24
HETATM   24  O   UNK     0      18.161  60.218  28.555  0.00  0.00    -0.315 OA
BRANCH  24  25
HETATM   25  C   UNK     0      18.653  59.192  29.318  0.00  0.00     0.267 C 
HETATM   26  O   UNK     0      18.248  58.036  29.279  0.00  0.00    -0.264 OA
BRANCH  25  27
HETATM   27  C   UNK     0      19.776  59.686  30.238  0.00  0.00     0.040 C 
HETATM   28  C   UNK     0      19.868  58.772  31.474  0.00  0.00     0.025 C 
HETATM   29  C   UNK     0      19.418  61.105  30.719  0.00  0.00     0.025 C 
BRANCH  27  30
HETATM   30  C   UNK     0      21.128  59.729  29.485  0.00  0.00     0.014 C 
HETATM   31  C   UNK     0      22.360  59.816  30.379  0.00  0.00     0.006 C 
ENDBRANCH  27  30
ENDBRANCH  25  27
ENDBRANCH  24  25
ENDBRANCH   3  24
TORSDOF 8
ENDMDL
