MODEL 1
REMARK VINA RESULT:      -7.4      0.000      0.000
REMARK  8 active torsions:
REMARK  status: ('A' for Active; 'I' for Inactive)
REMARK    1  A    between atoms: O_1  and  C_8 
REMARK    2  A    between atoms: O_1  and  C_22 
REMARK    3  A    between atoms: O_3  and  C_23 
REMARK    4  A    between atoms: C_7  and  C_11 
REMARK    5  A    between atoms: C_11  and  C_15 
REMARK    6  A    between atoms: C_15  and  C_19 
REMARK    7  A    between atoms: C_22  and  C_24 
REMARK    8  A    between atoms: C_24  and  C_27 
ROOT
HETATM    1  C   UNK     0      30.473  34.888  51.535  0.00  0.00     0.052 C 
HETATM    2  C   UNK     0      29.617  35.987  52.231  0.00  0.00     0.004 C 
HETATM    3  C   UNK     0      29.659  33.995  50.570  0.00  0.00     0.141 C 
HETATM    4  C   UNK     0      30.479  36.843  53.205  0.00  0.00     0.009 C 
HETATM    5  C   UNK     0      31.687  35.504  50.847  0.00  0.00    -0.055 C 
HETATM    6  C   UNK     0      30.574  33.064  49.769  0.00  0.00     0.041 C 
HETATM    7  C   UNK     0      31.659  33.810  48.972  0.00  0.00     0.007 C 
HETATM    8  C   UNK     0      32.199  35.010  49.705  0.00  0.00    -0.015 C 
HETATM    9  C   UNK     0      31.769  37.268  52.552  0.00  0.00    -0.022 C 
HETATM   10  C   UNK     0      32.292  36.663  51.478  0.00  0.00     0.004 C 
HETATM   11  C   UNK     0      30.796  36.161  54.539  0.00  0.00     0.014 C 
HETATM   12  C   UNK     0      31.172  34.225  47.581  0.00  0.00     0.014 C 
ENDROOT
BRANCH   2  13
HETATM   13  C   UNK     0      28.372  35.422  52.925  0.00  0.00     0.009 C 
BRANCH  13  14
HETATM   14  C   UNK     0      27.389  36.531  53.272  0.00  0.00     0.033 C 
BRANCH  14  15
HETATM   15  C   UNK     0      26.006  35.964  53.567  0.00  0.00     0.134 C 
HETATM   16  O   UNK     0      25.046  37.016  53.326  0.00  0.00    -0.316 OA
HETATM   17  C   UNK     0      23.731  36.773  53.124  0.00  0.00     0.261 C 
HETATM   18  O   UNK     0      22.892  37.661  53.263  0.00  0.00    -0.265 OA
HETATM   19  C   UNK     0      23.345  35.416  52.586  0.00  0.00     0.142 C 
HETATM   20  C   UNK     0      24.292  34.287  52.938  0.00  0.00     0.130 C 
HETATM   21  C   UNK     0      25.730  34.726  52.727  0.00  0.00     0.065 C 
BRANCH  20  22
HETATM   22  O   UNK     0      24.077  33.906  54.295  0.00  0.00    -0.395 OA
HETATM   23  H   UNK     0      24.853  33.396  54.582  0.00  0.00     0.210 HD
ENDBRANCH  20  22
ENDBRANCH  14  15
ENDBRANCH  13  14
ENDBRANCH   2  13
BRANCH   3  24
HETATM   24  O   UNK     0      28.877  34.798  49.690  0.00  0.00    -0.315 OA
BRANCH  24  25
HETATM   25  C   UNK     0      27.588  34.383  49.485  0.00  0.00     0.267 C 
HETATM   26  O   UNK     0      27.187  33.238  49.659  0.00  0.00    -0.264 OA
BRANCH  25  27
HETATM   27  C   UNK     0      26.711  35.544  49.000  0.00  0.00     0.040 C 
HETATM   28  C   UNK     0      25.240  35.260  49.355  0.00  0.00     0.025 C 
HETATM   29  C   UNK     0      26.825  35.627  47.467  0.00  0.00     0.025 C 
BRANCH  27  30
HETATM   30  C   UNK     0      27.177  36.884  49.620  0.00  0.00     0.014 C 
HETATM   31  C   UNK     0      26.053  37.842  50.001  0.00  0.00     0.006 C 
ENDBRANCH  27  30
ENDBRANCH  25  27
ENDBRANCH  24  25
ENDBRANCH   3  24
TORSDOF 8
ENDMDL
MODEL 2
REMARK VINA RESULT:      -7.1      2.201      6.390
REMARK  8 active torsions:
REMARK  status: ('A' for Active; 'I' for Inactive)
REMARK    1  A    between atoms: O_1  and  C_8 
REMARK    2  A    between atoms: O_1  and  C_22 
REMARK    3  A    between atoms: O_3  and  C_23 
REMARK    4  A    between atoms: C_7  and  C_11 
REMARK    5  A    between atoms: C_11  and  C_15 
REMARK    6  A    between atoms: C_15  and  C_19 
REMARK    7  A    between atoms: C_22  and  C_24 
REMARK    8  A    between atoms: C_24  and  C_27 
ROOT
HETATM    1  C   UNK     0      25.472  36.309  52.008  0.00  0.00     0.052 C 
HETATM    2  C   UNK     0      26.625  35.303  52.295  0.00  0.00     0.004 C 
HETATM    3  C   UNK     0      25.502  36.885  50.573  0.00  0.00     0.141 C 
HETATM    4  C   UNK     0      26.560  34.770  53.756  0.00  0.00     0.009 C 
HETATM    5  C   UNK     0      24.118  35.688  52.339  0.00  0.00    -0.055 C 
HETATM    6  C   UNK     0      24.246  37.711  50.279  0.00  0.00     0.041 C 
HETATM    7  C   UNK     0      22.937  36.926  50.481  0.00  0.00     0.007 C 
HETATM    8  C   UNK     0      23.001  35.974  51.646  0.00  0.00    -0.015 C 
HETATM    9  C   UNK     0      25.158  34.350  54.116  0.00  0.00    -0.022 C 
HETATM   10  C   UNK     0      24.067  34.760  53.455  0.00  0.00     0.004 C 
HETATM   11  C   UNK     0      27.072  35.752  54.815  0.00  0.00     0.014 C 
HETATM   12  C   UNK     0      22.513  36.174  49.216  0.00  0.00     0.014 C 
ENDROOT
BRANCH   2  13
HETATM   13  C   UNK     0      28.009  35.873  51.962  0.00  0.00     0.009 C 
BRANCH  13  14
HETATM   14  C   UNK     0      29.088  34.808  52.106  0.00  0.00     0.033 C 
BRANCH  14  15
HETATM   15  C   UNK     0      30.361  35.397  52.699  0.00  0.00     0.134 C 
HETATM   16  O   UNK     0      31.420  35.194  51.737  0.00  0.00    -0.316 OA
HETATM   17  C   UNK     0      32.572  35.903  51.757  0.00  0.00     0.261 C 
HETATM   18  O   UNK     0      33.577  35.500  51.175  0.00  0.00    -0.265 OA
HETATM   19  C   UNK     0      32.541  37.270  52.399  0.00  0.00     0.142 C 
HETATM   20  C   UNK     0      31.506  37.449  53.491  0.00  0.00     0.130 C 
HETATM   21  C   UNK     0      30.176  36.866  53.051  0.00  0.00     0.065 C 
BRANCH  20  22
HETATM   22  O   UNK     0      31.968  36.808  54.677  0.00  0.00    -0.395 OA
HETATM   23  H   UNK     0      31.305  36.964  55.371  0.00  0.00     0.210 HD
ENDBRANCH  20  22
ENDBRANCH  14  15
ENDBRANCH  13  14
ENDBRANCH   2  13
BRANCH   3  24
HETATM   24  O   UNK     0      25.639  35.836  49.619  0.00  0.00    -0.315 OA
BRANCH  24  25
HETATM   25  C   UNK     0      26.602  36.016  48.662  0.00  0.00     0.267 C 
HETATM   26  O   UNK     0      26.957  37.104  48.225  0.00  0.00    -0.264 OA
BRANCH  25  27
HETATM   27  C   UNK     0      27.175  34.669  48.203  0.00  0.00     0.040 C 
HETATM   28  C   UNK     0      26.897  34.478  46.701  0.00  0.00     0.025 C 
HETATM   29  C   UNK     0      26.447  33.549  48.970  0.00  0.00     0.025 C 
BRANCH  27  30
HETATM   30  C   UNK     0      28.692  34.585  48.497  0.00  0.00     0.014 C 
HETATM   31  C   UNK     0      29.213  33.183  48.793  0.00  0.00     0.006 C 
ENDBRANCH  27  30
ENDBRANCH  25  27
ENDBRANCH  24  25
ENDBRANCH   3  24
TORSDOF 8
ENDMDL
MODEL 3
REMARK VINA RESULT:      -6.8      2.531      6.489
REMARK  8 active torsions:
REMARK  status: ('A' for Active; 'I' for Inactive)
REMARK    1  A    between atoms: O_1  and  C_8 
REMARK    2  A    between atoms: O_1  and  C_22 
REMARK    3  A    between atoms: O_3  and  C_23 
REMARK    4  A    between atoms: C_7  and  C_11 
REMARK    5  A    between atoms: C_11  and  C_15 
REMARK    6  A    between atoms: C_15  and  C_19 
REMARK    7  A    between atoms: C_22  and  C_24 
REMARK    8  A    between atoms: C_24  and  C_27 
ROOT
HETATM    1  C   UNK     0      27.117  38.897  49.618  0.00  0.00     0.052 C 
HETATM    2  C   UNK     0      26.885  37.402  49.248  0.00  0.00     0.004 C 
HETATM    3  C   UNK     0      27.981  39.089  50.885  0.00  0.00     0.141 C 
HETATM    4  C   UNK     0      25.995  37.265  47.978  0.00  0.00     0.009 C 
HETATM    5  C   UNK     0      27.681  39.667  48.427  0.00  0.00    -0.055 C 
HETATM    6  C   UNK     0      28.341  40.563  51.094  0.00  0.00     0.041 C 
HETATM    7  C   UNK     0      29.064  41.193  49.890  0.00  0.00     0.007 C 
HETATM    8  C   UNK     0      28.548  40.686  48.569  0.00  0.00    -0.015 C 
HETATM    9  C   UNK     0      26.464  38.192  46.887  0.00  0.00    -0.022 C 
HETATM   10  C   UNK     0      27.239  39.263  47.104  0.00  0.00     0.004 C 
HETATM   11  C   UNK     0      24.501  37.497  48.222  0.00  0.00     0.014 C 
HETATM   12  C   UNK     0      30.582  41.003  49.964  0.00  0.00     0.014 C 
ENDROOT
BRANCH   2  13
HETATM   13  C   UNK     0      26.335  36.578  50.417  0.00  0.00     0.009 C 
BRANCH  13  14
HETATM   14  C   UNK     0      26.581  35.091  50.202  0.00  0.00     0.033 C 
BRANCH  14  15
HETATM   15  C   UNK     0      28.046  34.820  49.884  0.00  0.00     0.134 C 
HETATM   16  O   UNK     0      28.658  34.289  51.080  0.00  0.00    -0.316 OA
HETATM   17  C   UNK     0      29.821  33.599  51.062  0.00  0.00     0.261 C 
HETATM   18  O   UNK     0      30.493  33.458  52.082  0.00  0.00    -0.265 OA
HETATM   19  C   UNK     0      30.194  32.890  49.782  0.00  0.00     0.142 C 
HETATM   20  C   UNK     0      29.648  33.514  48.513  0.00  0.00     0.130 C 
HETATM   21  C   UNK     0      28.185  33.877  48.697  0.00  0.00     0.065 C 
BRANCH  20  22
HETATM   22  O   UNK     0      30.417  34.672  48.198  0.00  0.00    -0.395 OA
HETATM   23  H   UNK     0      31.268  34.592  48.661  0.00  0.00     0.210 HD
ENDBRANCH  20  22
ENDBRANCH  14  15
ENDBRANCH  13  14
ENDBRANCH   2  13
BRANCH   3  24
HETATM   24  O   UNK     0      29.163  38.298  50.806  0.00  0.00    -0.315 OA
BRANCH  24  25
HETATM   25  C   UNK     0      29.467  37.560  51.919  0.00  0.00     0.267 C 
HETATM   26  O   UNK     0      28.640  37.093  52.695  0.00  0.00    -0.264 OA
BRANCH  25  27
HETATM   27  C   UNK     0      30.985  37.401  52.072  0.00  0.00     0.040 C 
HETATM   28  C   UNK     0      31.294  36.661  53.386  0.00  0.00     0.025 C 
HETATM   29  C   UNK     0      31.610  38.806  52.156  0.00  0.00     0.025 C 
BRANCH  27  30
HETATM   30  C   UNK     0      31.585  36.647  50.861  0.00  0.00     0.014 C 
HETATM   31  C   UNK     0      32.844  35.842  51.165  0.00  0.00     0.006 C 
ENDBRANCH  27  30
ENDBRANCH  25  27
ENDBRANCH  24  25
ENDBRANCH   3  24
TORSDOF 8
ENDMDL
