MODEL 1
REMARK VINA RESULT:      -6.5      0.000      0.000
REMARK  8 active torsions:
REMARK  status: ('A' for Active; 'I' for Inactive)
REMARK    1  A    between atoms: O_1  and  C_8 
REMARK    2  A    between atoms: O_1  and  C_22 
REMARK    3  A    between atoms: O_3  and  C_23 
REMARK    4  A    between atoms: C_7  and  C_11 
REMARK    5  A    between atoms: C_11  and  C_15 
REMARK    6  A    between atoms: C_15  and  C_19 
REMARK    7  A    between atoms: C_22  and  C_24 
REMARK    8  A    between atoms: C_24  and  C_27 
ROOT
HETATM    1  C   UNK     0      20.990  23.002  35.297  0.00  0.00     0.052 C 
HETATM    2  C   UNK     0      21.888  22.496  36.465  0.00  0.00     0.004 C 
HETATM    3  C   UNK     0      21.493  24.318  34.661  0.00  0.00     0.141 C 
HETATM    4  C   UNK     0      21.327  21.181  37.081  0.00  0.00     0.009 C 
HETATM    5  C   UNK     0      20.797  21.907  34.251  0.00  0.00    -0.055 C 
HETATM    6  C   UNK     0      20.695  24.668  33.401  0.00  0.00     0.041 C 
HETATM    7  C   UNK     0      20.713  23.555  32.338  0.00  0.00     0.007 C 
HETATM    8  C   UNK     0      20.677  22.174  32.938  0.00  0.00    -0.015 C 
HETATM    9  C   UNK     0      20.958  20.195  36.003  0.00  0.00    -0.022 C 
HETATM   10  C   UNK     0      20.738  20.537  34.727  0.00  0.00     0.004 C 
HETATM   11  C   UNK     0      20.125  21.377  38.010  0.00  0.00     0.014 C 
HETATM   12  C   UNK     0      21.909  23.680  31.391  0.00  0.00     0.014 C 
ENDROOT
BRANCH   2  13
HETATM   13  C   UNK     0      22.128  23.566  37.536  0.00  0.00     0.009 C 
BRANCH  13  14
HETATM   14  C   UNK     0      23.263  23.161  38.467  0.00  0.00     0.033 C 
BRANCH  14  15
HETATM   15  C   UNK     0      22.806  23.166  39.920  0.00  0.00     0.134 C 
HETATM   16  O   UNK     0      22.698  21.790  40.345  0.00  0.00    -0.316 OA
HETATM   17  C   UNK     0      22.686  21.425  41.648  0.00  0.00     0.261 C 
HETATM   18  O   UNK     0      22.256  20.328  41.997  0.00  0.00    -0.265 OA
HETATM   19  C   UNK     0      23.345  22.354  42.640  0.00  0.00     0.142 C 
HETATM   20  C   UNK     0      23.356  23.818  42.249  0.00  0.00     0.130 C 
HETATM   21  C   UNK     0      23.762  23.966  40.794  0.00  0.00     0.065 C 
BRANCH  20  22
HETATM   22  O   UNK     0      22.059  24.365  42.468  0.00  0.00    -0.395 OA
HETATM   23  H   UNK     0      21.791  24.132  43.373  0.00  0.00     0.210 HD
ENDBRANCH  20  22
ENDBRANCH  14  15
ENDBRANCH  13  14
ENDBRANCH   2  13
BRANCH   3  24
HETATM   24  O   UNK     0      22.881  24.225  34.357  0.00  0.00    -0.315 OA
BRANCH  24  25
HETATM   25  C   UNK     0      23.565  25.411  34.304  0.00  0.00     0.267 C 
HETATM   26  O   UNK     0      23.202  26.399  33.676  0.00  0.00    -0.264 OA
BRANCH  25  27
HETATM   27  C   UNK     0      24.855  25.336  35.131  0.00  0.00     0.040 C 
HETATM   28  C   UNK     0      25.196  23.863  35.417  0.00  0.00     0.025 C 
HETATM   29  C   UNK     0      24.605  26.039  36.478  0.00  0.00     0.025 C 
BRANCH  27  30
HETATM   30  C   UNK     0      26.023  26.039  34.397  0.00  0.00     0.014 C 
HETATM   31  C   UNK     0      26.632  27.222  35.143  0.00  0.00     0.006 C 
ENDBRANCH  27  30
ENDBRANCH  25  27
ENDBRANCH  24  25
ENDBRANCH   3  24
TORSDOF 8
ENDMDL
MODEL 2
REMARK VINA RESULT:      -6.4     27.101     28.605
REMARK  8 active torsions:
REMARK  status: ('A' for Active; 'I' for Inactive)
REMARK    1  A    between atoms: O_1  and  C_8 
REMARK    2  A    between atoms: O_1  and  C_22 
REMARK    3  A    between atoms: O_3  and  C_23 
REMARK    4  A    between atoms: C_7  and  C_11 
REMARK    5  A    between atoms: C_11  and  C_15 
REMARK    6  A    between atoms: C_15  and  C_19 
REMARK    7  A    between atoms: C_22  and  C_24 
REMARK    8  A    between atoms: C_24  and  C_27 
ROOT
HETATM    1  C   UNK     0      43.427   1.576  32.726  0.00  0.00     0.052 C 
HETATM    2  C   UNK     0      42.843   2.703  33.628  0.00  0.00     0.004 C 
HETATM    3  C   UNK     0      42.535   1.237  31.510  0.00  0.00     0.141 C 
HETATM    4  C   UNK     0      43.769   2.991  34.845  0.00  0.00     0.009 C 
HETATM    5  C   UNK     0      44.856   1.909  32.303  0.00  0.00    -0.055 C 
HETATM    6  C   UNK     0      43.240   0.270  30.555  0.00  0.00     0.041 C 
HETATM    7  C   UNK     0      44.600   0.788  30.054  0.00  0.00     0.007 C 
HETATM    8  C   UNK     0      45.359   1.550  31.108  0.00  0.00    -0.015 C 
HETATM    9  C   UNK     0      45.207   3.116  34.412  0.00  0.00    -0.022 C 
HETATM   10  C   UNK     0      45.678   2.636  33.254  0.00  0.00     0.004 C 
HETATM   11  C   UNK     0      43.676   1.959  35.973  0.00  0.00     0.014 C 
HETATM   12  C   UNK     0      44.462   1.643  28.790  0.00  0.00     0.014 C 
ENDROOT
BRANCH   2  13
HETATM   13  C   UNK     0      41.400   2.426  34.067  0.00  0.00     0.009 C 
BRANCH  13  14
HETATM   14  C   UNK     0      40.562   3.696  34.022  0.00  0.00     0.033 C 
BRANCH  14  15
HETATM   15  C   UNK     0      40.006   4.033  35.400  0.00  0.00     0.134 C 
HETATM   16  O   UNK     0      38.694   4.606  35.209  0.00  0.00    -0.316 OA
HETATM   17  C   UNK     0      37.774   4.672  36.199  0.00  0.00     0.261 C 
HETATM   18  O   UNK     0      36.823   5.448  36.133  0.00  0.00    -0.265 OA
HETATM   19  C   UNK     0      37.878   3.664  37.319  0.00  0.00     0.142 C 
HETATM   20  C   UNK     0      39.276   3.148  37.598  0.00  0.00     0.130 C 
HETATM   21  C   UNK     0      39.975   2.803  36.295  0.00  0.00     0.065 C 
BRANCH  20  22
HETATM   22  O   UNK     0      40.004   4.144  38.311  0.00  0.00    -0.395 OA
HETATM   23  H   UNK     0      39.914   3.949  39.259  0.00  0.00     0.210 HD
ENDBRANCH  20  22
ENDBRANCH  14  15
ENDBRANCH  13  14
ENDBRANCH   2  13
BRANCH   3  24
HETATM   24  O   UNK     0      42.159   2.426  30.821  0.00  0.00    -0.315 OA
BRANCH  24  25
HETATM   25  C   UNK     0      40.947   2.395  30.186  0.00  0.00     0.267 C 
HETATM   26  O   UNK     0      40.041   1.611  30.448  0.00  0.00    -0.264 OA
BRANCH  25  27
HETATM   27  C   UNK     0      40.874   3.469  29.093  0.00  0.00     0.040 C 
HETATM   28  C   UNK     0      40.636   2.798  27.728  0.00  0.00     0.025 C 
HETATM   29  C   UNK     0      42.232   4.194  29.039  0.00  0.00     0.025 C 
BRANCH  27  30
HETATM   30  C   UNK     0      39.759   4.497  29.403  0.00  0.00     0.014 C 
HETATM   31  C   UNK     0      38.408   4.191  28.766  0.00  0.00     0.006 C 
ENDBRANCH  27  30
ENDBRANCH  25  27
ENDBRANCH  24  25
ENDBRANCH   3  24
TORSDOF 8
ENDMDL
MODEL 3
REMARK VINA RESULT:      -6.0      1.749      4.820
REMARK  8 active torsions:
REMARK  status: ('A' for Active; 'I' for Inactive)
REMARK    1  A    between atoms: O_1  and  C_8 
REMARK    2  A    between atoms: O_1  and  C_22 
REMARK    3  A    between atoms: O_3  and  C_23 
REMARK    4  A    between atoms: C_7  and  C_11 
REMARK    5  A    between atoms: C_11  and  C_15 
REMARK    6  A    between atoms: C_15  and  C_19 
REMARK    7  A    between atoms: C_22  and  C_24 
REMARK    8  A    between atoms: C_24  and  C_27 
ROOT
HETATM    1  C   UNK     0      23.824  24.481  37.894  0.00  0.00     0.052 C 
HETATM    2  C   UNK     0      22.796  24.195  39.028  0.00  0.00     0.004 C 
HETATM    3  C   UNK     0      23.751  23.469  36.728  0.00  0.00     0.141 C 
HETATM    4  C   UNK     0      22.926  25.229  40.183  0.00  0.00     0.009 C 
HETATM    5  C   UNK     0      23.699  25.920  37.402  0.00  0.00    -0.055 C 
HETATM    6  C   UNK     0      24.638  23.903  35.558  0.00  0.00     0.041 C 
HETATM    7  C   UNK     0      24.306  25.309  35.027  0.00  0.00     0.007 C 
HETATM    8  C   UNK     0      23.916  26.268  36.120  0.00  0.00    -0.015 C 
HETATM    9  C   UNK     0      23.001  26.634  39.645  0.00  0.00    -0.022 C 
HETATM   10  C   UNK     0      23.335  26.928  38.381  0.00  0.00     0.004 C 
HETATM   11  C   UNK     0      24.114  24.990  41.120  0.00  0.00     0.014 C 
HETATM   12  C   UNK     0      23.219  25.278  33.949  0.00  0.00     0.014 C 
ENDROOT
BRANCH   2  13
HETATM   13  C   UNK     0      22.869  22.754  39.546  0.00  0.00     0.009 C 
BRANCH  13  14
HETATM   14  C   UNK     0      21.541  22.326  40.158  0.00  0.00     0.033 C 
BRANCH  14  15
HETATM   15  C   UNK     0      21.718  21.908  41.612  0.00  0.00     0.134 C 
HETATM   16  O   UNK     0      20.926  20.719  41.820  0.00  0.00    -0.316 OA
HETATM   17  C   UNK     0      21.133  19.874  42.857  0.00  0.00     0.261 C 
HETATM   18  O   UNK     0      20.264  19.083  43.215  0.00  0.00    -0.265 OA
HETATM   19  C   UNK     0      22.514  19.841  43.467  0.00  0.00     0.142 C 
HETATM   20  C   UNK     0      23.304  21.129  43.351  0.00  0.00     0.130 C 
HETATM   21  C   UNK     0      23.187  21.689  41.946  0.00  0.00     0.065 C 
BRANCH  20  22
HETATM   22  O   UNK     0      22.811  22.062  44.308  0.00  0.00    -0.395 OA
HETATM   23  H   UNK     0      21.895  22.277  44.062  0.00  0.00     0.210 HD
ENDBRANCH  20  22
ENDBRANCH  14  15
ENDBRANCH  13  14
ENDBRANCH   2  13
BRANCH   3  24
HETATM   24  O   UNK     0      22.404  23.308  36.293  0.00  0.00    -0.315 OA
BRANCH  24  25
HETATM   25  C   UNK     0      21.975  22.017  36.132  0.00  0.00     0.267 C 
HETATM   26  O   UNK     0      22.589  21.025  36.508  0.00  0.00    -0.264 OA
BRANCH  25  27
HETATM   27  C   UNK     0      20.623  21.977  35.408  0.00  0.00     0.040 C 
HETATM   28  C   UNK     0      19.487  22.156  36.431  0.00  0.00     0.025 C 
HETATM   29  C   UNK     0      20.466  20.590  34.757  0.00  0.00     0.025 C 
BRANCH  27  30
HETATM   30  C   UNK     0      20.552  23.066  34.310  0.00  0.00     0.014 C 
HETATM   31  C   UNK     0      20.652  22.545  32.881  0.00  0.00     0.006 C 
ENDBRANCH  27  30
ENDBRANCH  25  27
ENDBRANCH  24  25
ENDBRANCH   3  24
TORSDOF 8
ENDMDL
