MODEL 1
REMARK VINA RESULT:      -7.2      0.000      0.000
REMARK  8 active torsions:
REMARK  status: ('A' for Active; 'I' for Inactive)
REMARK    1  A    between atoms: O_1  and  C_8 
REMARK    2  A    between atoms: O_1  and  C_22 
REMARK    3  A    between atoms: O_3  and  C_23 
REMARK    4  A    between atoms: C_7  and  C_11 
REMARK    5  A    between atoms: C_11  and  C_15 
REMARK    6  A    between atoms: C_15  and  C_19 
REMARK    7  A    between atoms: C_22  and  C_24 
REMARK    8  A    between atoms: C_24  and  C_27 
ROOT
HETATM    1  C   UNK     0     -33.637 -21.861  23.703  0.00  0.00     0.052 C 
HETATM    2  C   UNK     0     -32.835 -20.659  23.123  0.00  0.00     0.004 C 
HETATM    3  C   UNK     0     -34.729 -22.390  22.744  0.00  0.00     0.141 C 
HETATM    4  C   UNK     0     -31.764 -20.154  24.135  0.00  0.00     0.009 C 
HETATM    5  C   UNK     0     -32.694 -22.973  24.155  0.00  0.00    -0.055 C 
HETATM    6  C   UNK     0     -35.353 -23.685  23.273  0.00  0.00     0.041 C 
HETATM    7  C   UNK     0     -34.324 -24.800  23.530  0.00  0.00     0.007 C 
HETATM    8  C   UNK     0     -33.018 -24.276  24.068  0.00  0.00    -0.015 C 
HETATM    9  C   UNK     0     -30.982 -21.304  24.714  0.00  0.00    -0.022 C 
HETATM   10  C   UNK     0     -31.409 -22.574  24.699  0.00  0.00     0.004 C 
HETATM   11  C   UNK     0     -32.323 -19.305  25.280  0.00  0.00     0.014 C 
HETATM   12  C   UNK     0     -34.069 -25.651  22.282  0.00  0.00     0.014 C 
ENDROOT
BRANCH   2  13
HETATM   13  C   UNK     0     -33.737 -19.520  22.638  0.00  0.00     0.009 C 
BRANCH  13  14
HETATM   14  C   UNK     0     -33.025 -18.664  21.598  0.00  0.00     0.033 C 
BRANCH  14  15
HETATM   15  C   UNK     0     -32.971 -17.206  22.035  0.00  0.00     0.134 C 
HETATM   16  O   UNK     0     -33.931 -17.037  23.102  0.00  0.00    -0.316 OA
HETATM   17  C   UNK     0     -33.889 -15.997  23.966  0.00  0.00     0.261 C 
HETATM   18  O   UNK     0     -34.876 -15.680  24.627  0.00  0.00    -0.265 OA
HETATM   19  C   UNK     0     -32.554 -15.329  24.192  0.00  0.00     0.142 C 
HETATM   20  C   UNK     0     -31.587 -15.404  23.027  0.00  0.00     0.130 C 
HETATM   21  C   UNK     0     -31.564 -16.810  22.457  0.00  0.00     0.065 C 
BRANCH  20  22
HETATM   22  O   UNK     0     -31.985 -14.464  22.033  0.00  0.00    -0.395 OA
HETATM   23  H   UNK     0     -32.819 -14.061  22.329  0.00  0.00     0.210 HD
ENDBRANCH  20  22
ENDBRANCH  14  15
ENDBRANCH  13  14
ENDBRANCH   2  13
BRANCH   3  24
HETATM   24  O   UNK     0     -34.189 -22.598  21.442  0.00  0.00    -0.315 OA
BRANCH  24  25
HETATM   25  C   UNK     0     -34.958 -22.161  20.396  0.00  0.00     0.267 C 
HETATM   26  O   UNK     0     -36.177 -22.040  20.429  0.00  0.00    -0.264 OA
BRANCH  25  27
HETATM   27  C   UNK     0     -34.089 -21.849  19.171  0.00  0.00     0.040 C 
HETATM   28  C   UNK     0     -32.606 -21.836  19.583  0.00  0.00     0.025 C 
HETATM   29  C   UNK     0     -34.456 -20.441  18.666  0.00  0.00     0.025 C 
BRANCH  27  30
HETATM   30  C   UNK     0     -34.338 -22.878  18.041  0.00  0.00     0.014 C 
HETATM   31  C   UNK     0     -34.163 -24.336  18.451  0.00  0.00     0.006 C 
ENDBRANCH  27  30
ENDBRANCH  25  27
ENDBRANCH  24  25
ENDBRANCH   3  24
TORSDOF 8
ENDMDL
MODEL 2
REMARK VINA RESULT:      -7.0     14.998     17.686
REMARK  8 active torsions:
REMARK  status: ('A' for Active; 'I' for Inactive)
REMARK    1  A    between atoms: O_1  and  C_8 
REMARK    2  A    between atoms: O_1  and  C_22 
REMARK    3  A    between atoms: O_3  and  C_23 
REMARK    4  A    between atoms: C_7  and  C_11 
REMARK    5  A    between atoms: C_11  and  C_15 
REMARK    6  A    between atoms: C_15  and  C_19 
REMARK    7  A    between atoms: C_22  and  C_24 
REMARK    8  A    between atoms: C_24  and  C_27 
ROOT
HETATM    1  C   UNK     0     -19.873 -29.249  13.955  0.00  0.00     0.052 C 
HETATM    2  C   UNK     0     -19.765 -29.103  15.502  0.00  0.00     0.004 C 
HETATM    3  C   UNK     0     -20.535 -28.032  13.268  0.00  0.00     0.141 C 
HETATM    4  C   UNK     0     -19.111 -30.361  16.144  0.00  0.00     0.009 C 
HETATM    5  C   UNK     0     -18.511 -29.570  13.346  0.00  0.00    -0.055 C 
HETATM    6  C   UNK     0     -20.441 -28.136  11.743  0.00  0.00     0.041 C 
HETATM    7  C   UNK     0     -18.999 -28.284  11.227  0.00  0.00     0.007 C 
HETATM    8  C   UNK     0     -18.140 -29.130  12.130  0.00  0.00    -0.015 C 
HETATM    9  C   UNK     0     -17.872 -30.769  15.391  0.00  0.00    -0.022 C 
HETATM   10  C   UNK     0     -17.608 -30.390  14.133  0.00  0.00     0.004 C 
HETATM   11  C   UNK     0     -20.043 -31.570  16.264  0.00  0.00     0.014 C 
HETATM   12  C   UNK     0     -18.328 -26.928  10.990  0.00  0.00     0.014 C 
ENDROOT
BRANCH   2  13
HETATM   13  C   UNK     0     -21.106 -28.762  16.162  0.00  0.00     0.009 C 
BRANCH  13  14
HETATM   14  C   UNK     0     -20.899 -28.217  17.569  0.00  0.00     0.033 C 
BRANCH  14  15
HETATM   15  C   UNK     0     -21.799 -28.930  18.569  0.00  0.00     0.134 C 
HETATM   16  O   UNK     0     -22.644 -29.834  17.824  0.00  0.00    -0.316 OA
HETATM   17  C   UNK     0     -23.285 -30.878  18.399  0.00  0.00     0.261 C 
HETATM   18  O   UNK     0     -24.245 -31.414  17.849  0.00  0.00    -0.265 OA
HETATM   19  C   UNK     0     -22.696 -31.448  19.666  0.00  0.00     0.142 C 
HETATM   20  C   UNK     0     -21.905 -30.469  20.511  0.00  0.00     0.130 C 
HETATM   21  C   UNK     0     -20.979 -29.650  19.631  0.00  0.00     0.065 C 
BRANCH  20  22
HETATM   22  O   UNK     0     -22.812 -29.623  21.211  0.00  0.00    -0.395 OA
HETATM   23  H   UNK     0     -22.478 -29.524  22.119  0.00  0.00     0.210 HD
ENDBRANCH  20  22
ENDBRANCH  14  15
ENDBRANCH  13  14
ENDBRANCH   2  13
BRANCH   3  24
HETATM   24  O   UNK     0     -19.937 -26.820  13.718  0.00  0.00    -0.315 OA
BRANCH  24  25
HETATM   25  C   UNK     0     -20.800 -25.799  14.016  0.00  0.00     0.267 C 
HETATM   26  O   UNK     0     -22.000 -25.804  13.766  0.00  0.00    -0.264 OA
BRANCH  25  27
HETATM   27  C   UNK     0     -20.061 -24.641  14.699  0.00  0.00     0.040 C 
HETATM   28  C   UNK     0     -19.000 -24.072  13.740  0.00  0.00     0.025 C 
HETATM   29  C   UNK     0     -19.336 -25.196  15.939  0.00  0.00     0.025 C 
BRANCH  27  30
HETATM   30  C   UNK     0     -21.053 -23.537  15.140  0.00  0.00     0.014 C 
HETATM   31  C   UNK     0     -20.409 -22.206  15.512  0.00  0.00     0.006 C 
ENDBRANCH  27  30
ENDBRANCH  25  27
ENDBRANCH  24  25
ENDBRANCH   3  24
TORSDOF 8
ENDMDL
MODEL 3
REMARK VINA RESULT:      -6.8      2.183      6.795
REMARK  8 active torsions:
REMARK  status: ('A' for Active; 'I' for Inactive)
REMARK    1  A    between atoms: O_1  and  C_8 
REMARK    2  A    between atoms: O_1  and  C_22 
REMARK    3  A    between atoms: O_3  and  C_23 
REMARK    4  A    between atoms: C_7  and  C_11 
REMARK    5  A    between atoms: C_11  and  C_15 
REMARK    6  A    between atoms: C_15  and  C_19 
REMARK    7  A    between atoms: C_22  and  C_24 
REMARK    8  A    between atoms: C_24  and  C_27 
ROOT
HETATM    1  C   UNK     0     -35.167 -20.042  19.577  0.00  0.00     0.052 C 
HETATM    2  C   UNK     0     -34.101 -21.139  19.870  0.00  0.00     0.004 C 
HETATM    3  C   UNK     0     -35.272 -18.974  20.690  0.00  0.00     0.141 C 
HETATM    4  C   UNK     0     -34.051 -22.198  18.730  0.00  0.00     0.009 C 
HETATM    5  C   UNK     0     -34.931 -19.411  18.208  0.00  0.00    -0.055 C 
HETATM    6  C   UNK     0     -36.186 -17.820  20.268  0.00  0.00     0.041 C 
HETATM    7  C   UNK     0     -35.751 -17.142  18.957  0.00  0.00     0.007 C 
HETATM    8  C   UNK     0     -35.196 -18.117  17.952  0.00  0.00    -0.015 C 
HETATM    9  C   UNK     0     -34.020 -21.534  17.378  0.00  0.00    -0.022 C 
HETATM   10  C   UNK     0     -34.405 -20.270  17.162  0.00  0.00     0.004 C 
HETATM   11  C   UNK     0     -35.193 -23.217  18.759  0.00  0.00     0.014 C 
HETATM   12  C   UNK     0     -34.745 -16.012  19.197  0.00  0.00     0.014 C 
ENDROOT
BRANCH   2  13
HETATM   13  C   UNK     0     -34.283 -21.794  21.244  0.00  0.00     0.009 C 
BRANCH  13  14
HETATM   14  C   UNK     0     -33.123 -22.729  21.561  0.00  0.00     0.033 C 
BRANCH  14  15
HETATM   15  C   UNK     0     -32.815 -22.731  23.053  0.00  0.00     0.134 C 
HETATM   16  O   UNK     0     -33.666 -21.741  23.672  0.00  0.00    -0.316 OA
HETATM   17  C   UNK     0     -33.933 -21.733  24.999  0.00  0.00     0.261 C 
HETATM   18  O   UNK     0     -34.357 -20.722  25.555  0.00  0.00    -0.265 OA
HETATM   19  C   UNK     0     -33.825 -23.042  25.742  0.00  0.00     0.142 C 
HETATM   20  C   UNK     0     -32.844 -24.039  25.159  0.00  0.00     0.130 C 
HETATM   21  C   UNK     0     -33.010 -24.116  23.652  0.00  0.00     0.065 C 
BRANCH  20  22
HETATM   22  O   UNK     0     -31.519 -23.639  25.499  0.00  0.00    -0.395 OA
HETATM   23  H   UNK     0     -30.914 -24.334  25.189  0.00  0.00     0.210 HD
ENDBRANCH  20  22
ENDBRANCH  14  15
ENDBRANCH  13  14
ENDBRANCH   2  13
BRANCH   3  24
HETATM   24  O   UNK     0     -33.979 -18.482  21.029  0.00  0.00    -0.315 OA
BRANCH  24  25
HETATM   25  C   UNK     0     -33.704 -18.391  22.368  0.00  0.00     0.267 C 
HETATM   26  O   UNK     0     -34.547 -18.408  23.257  0.00  0.00    -0.264 OA
BRANCH  25  27
HETATM   27  C   UNK     0     -32.195 -18.255  22.608  0.00  0.00     0.040 C 
HETATM   28  C   UNK     0     -31.465 -19.455  21.980  0.00  0.00     0.025 C 
HETATM   29  C   UNK     0     -31.943 -18.284  24.127  0.00  0.00     0.025 C 
BRANCH  27  30
HETATM   30  C   UNK     0     -31.661 -16.922  22.028  0.00  0.00     0.014 C 
HETATM   31  C   UNK     0     -32.282 -15.665  22.630  0.00  0.00     0.006 C 
ENDBRANCH  27  30
ENDBRANCH  25  27
ENDBRANCH  24  25
ENDBRANCH   3  24
TORSDOF 8
ENDMDL
