MODEL 1
REMARK VINA RESULT:      -6.1      0.000      0.000
REMARK  8 active torsions:
REMARK  status: ('A' for Active; 'I' for Inactive)
REMARK    1  A    between atoms: O_1  and  C_8 
REMARK    2  A    between atoms: O_1  and  C_22 
REMARK    3  A    between atoms: O_3  and  C_23 
REMARK    4  A    between atoms: C_7  and  C_11 
REMARK    5  A    between atoms: C_11  and  C_15 
REMARK    6  A    between atoms: C_15  and  C_19 
REMARK    7  A    between atoms: C_22  and  C_24 
REMARK    8  A    between atoms: C_24  and  C_27 
ROOT
HETATM    1  C   UNK     0     -21.135  36.961  47.413  0.00  0.00     0.052 C 
HETATM    2  C   UNK     0     -20.369  35.836  48.170  0.00  0.00     0.004 C 
HETATM    3  C   UNK     0     -20.244  37.754  46.429  0.00  0.00     0.141 C 
HETATM    4  C   UNK     0     -21.305  35.083  49.160  0.00  0.00     0.009 C 
HETATM    5  C   UNK     0     -22.377  36.400  46.726  0.00  0.00    -0.055 C 
HETATM    6  C   UNK     0     -21.079  38.711  45.572  0.00  0.00     0.041 C 
HETATM    7  C   UNK     0     -22.199  38.007  44.784  0.00  0.00     0.007 C 
HETATM    8  C   UNK     0     -22.834  36.880  45.554  0.00  0.00    -0.015 C 
HETATM    9  C   UNK     0     -22.610  34.720  48.500  0.00  0.00    -0.022 C 
HETATM   10  C   UNK     0     -23.071  35.313  47.391  0.00  0.00     0.004 C 
HETATM   11  C   UNK     0     -21.598  35.840  50.459  0.00  0.00     0.014 C 
HETATM   12  C   UNK     0     -21.718  37.502  43.421  0.00  0.00     0.014 C 
ENDROOT
BRANCH   2  13
HETATM   13  C   UNK     0     -19.101  36.344  48.865  0.00  0.00     0.009 C 
BRANCH  13  14
HETATM   14  C   UNK     0     -17.944  35.372  48.669  0.00  0.00     0.033 C 
BRANCH  14  15
HETATM   15  C   UNK     0     -17.639  34.619  49.958  0.00  0.00     0.134 C 
HETATM   16  O   UNK     0     -18.146  35.412  51.053  0.00  0.00    -0.316 OA
HETATM   17  C   UNK     0     -18.386  34.895  52.281  0.00  0.00     0.261 C 
HETATM   18  O   UNK     0     -18.480  35.620  53.268  0.00  0.00    -0.265 OA
HETATM   19  C   UNK     0     -18.673  33.415  52.372  0.00  0.00     0.142 C 
HETATM   20  C   UNK     0     -18.043  32.565  51.287  0.00  0.00     0.130 C 
HETATM   21  C   UNK     0     -18.238  33.220  49.932  0.00  0.00     0.065 C 
BRANCH  20  22
HETATM   22  O   UNK     0     -16.657  32.401  51.572  0.00  0.00    -0.395 OA
HETATM   23  H   UNK     0     -16.547  31.538  52.005  0.00  0.00     0.210 HD
ENDBRANCH  20  22
ENDBRANCH  14  15
ENDBRANCH  13  14
ENDBRANCH   2  13
BRANCH   3  24
HETATM   24  O   UNK     0     -19.505  36.864  45.598  0.00  0.00    -0.315 OA
BRANCH  24  25
HETATM   25  C   UNK     0     -18.230  37.255  45.284  0.00  0.00     0.267 C 
HETATM   26  O   UNK     0     -17.508  37.930  46.009  0.00  0.00    -0.264 OA
BRANCH  25  27
HETATM   27  C   UNK     0     -17.828  36.742  43.895  0.00  0.00     0.040 C 
HETATM   28  C   UNK     0     -18.522  35.395  43.625  0.00  0.00     0.025 C 
HETATM   29  C   UNK     0     -16.307  36.505  43.891  0.00  0.00     0.025 C 
BRANCH  27  30
HETATM   30  C   UNK     0     -18.187  37.775  42.799  0.00  0.00     0.014 C 
HETATM   31  C   UNK     0     -18.403  37.188  41.409  0.00  0.00     0.006 C 
ENDBRANCH  27  30
ENDBRANCH  25  27
ENDBRANCH  24  25
ENDBRANCH   3  24
TORSDOF 8
ENDMDL
MODEL 2
REMARK VINA RESULT:      -5.9      3.613      6.719
REMARK  8 active torsions:
REMARK  status: ('A' for Active; 'I' for Inactive)
REMARK    1  A    between atoms: O_1  and  C_8 
REMARK    2  A    between atoms: O_1  and  C_22 
REMARK    3  A    between atoms: O_3  and  C_23 
REMARK    4  A    between atoms: C_7  and  C_11 
REMARK    5  A    between atoms: C_11  and  C_15 
REMARK    6  A    between atoms: C_15  and  C_19 
REMARK    7  A    between atoms: C_22  and  C_24 
REMARK    8  A    between atoms: C_24  and  C_27 
ROOT
HETATM    1  C   UNK     0     -21.356  36.782  46.166  0.00  0.00     0.052 C 
HETATM    2  C   UNK     0     -20.886  38.184  45.676  0.00  0.00     0.004 C 
HETATM    3  C   UNK     0     -21.778  36.761  47.653  0.00  0.00     0.141 C 
HETATM    4  C   UNK     0     -20.454  38.145  44.181  0.00  0.00     0.009 C 
HETATM    5  C   UNK     0     -22.454  36.233  45.259  0.00  0.00    -0.055 C 
HETATM    6  C   UNK     0     -22.413  35.420  48.032  0.00  0.00     0.041 C 
HETATM    7  C   UNK     0     -23.624  35.048  47.158  0.00  0.00     0.007 C 
HETATM    8  C   UNK     0     -23.456  35.463  45.720  0.00  0.00    -0.015 C 
HETATM    9  C   UNK     0     -21.473  37.415  43.344  0.00  0.00    -0.022 C 
HETATM   10  C   UNK     0     -22.380  36.568  43.848  0.00  0.00     0.004 C 
HETATM   11  C   UNK     0     -19.074  37.530  43.934  0.00  0.00     0.014 C 
HETATM   12  C   UNK     0     -24.934  35.613  47.714  0.00  0.00     0.014 C 
ENDROOT
BRANCH   2  13
HETATM   13  C   UNK     0     -19.794  38.789  46.565  0.00  0.00     0.009 C 
BRANCH  13  14
HETATM   14  C   UNK     0     -20.110  40.239  46.908  0.00  0.00     0.033 C 
BRANCH  14  15
HETATM   15  C   UNK     0     -18.971  40.876  47.693  0.00  0.00     0.134 C 
HETATM   16  O   UNK     0     -19.411  42.188  48.108  0.00  0.00    -0.316 OA
HETATM   17  C   UNK     0     -18.824  42.871  49.118  0.00  0.00     0.261 C 
HETATM   18  O   UNK     0     -18.970  44.086  49.232  0.00  0.00    -0.265 OA
HETATM   19  C   UNK     0     -18.101  42.072  50.175  0.00  0.00     0.142 C 
HETATM   20  C   UNK     0     -17.535  40.745  49.711  0.00  0.00     0.130 C 
HETATM   21  C   UNK     0     -18.561  40.005  48.872  0.00  0.00     0.065 C 
BRANCH  20  22
HETATM   22  O   UNK     0     -16.349  40.985  48.958  0.00  0.00    -0.395 OA
HETATM   23  H   UNK     0     -16.356  41.920  48.691  0.00  0.00     0.210 HD
ENDBRANCH  20  22
ENDBRANCH  14  15
ENDBRANCH  13  14
ENDBRANCH   2  13
BRANCH   3  24
HETATM   24  O   UNK     0     -22.679  37.830  47.929  0.00  0.00    -0.315 OA
BRANCH  24  25
HETATM   25  C   UNK     0     -22.488  38.485  49.117  0.00  0.00     0.267 C 
HETATM   26  O   UNK     0     -21.545  38.293  49.876  0.00  0.00    -0.264 OA
BRANCH  25  27
HETATM   27  C   UNK     0     -23.617  39.491  49.374  0.00  0.00     0.040 C 
HETATM   28  C   UNK     0     -24.371  39.099  50.658  0.00  0.00     0.025 C 
HETATM   29  C   UNK     0     -24.607  39.416  48.197  0.00  0.00     0.025 C 
BRANCH  27  30
HETATM   30  C   UNK     0     -23.060  40.932  49.482  0.00  0.00     0.014 C 
HETATM   31  C   UNK     0     -24.086  42.036  49.253  0.00  0.00     0.006 C 
ENDBRANCH  27  30
ENDBRANCH  25  27
ENDBRANCH  24  25
ENDBRANCH   3  24
TORSDOF 8
ENDMDL
MODEL 3
REMARK VINA RESULT:      -5.9      2.001      6.701
REMARK  8 active torsions:
REMARK  status: ('A' for Active; 'I' for Inactive)
REMARK    1  A    between atoms: O_1  and  C_8 
REMARK    2  A    between atoms: O_1  and  C_22 
REMARK    3  A    between atoms: O_3  and  C_23 
REMARK    4  A    between atoms: C_7  and  C_11 
REMARK    5  A    between atoms: C_11  and  C_15 
REMARK    6  A    between atoms: C_15  and  C_19 
REMARK    7  A    between atoms: C_22  and  C_24 
REMARK    8  A    between atoms: C_24  and  C_27 
ROOT
HETATM    1  C   UNK     0     -21.841  35.829  47.026  0.00  0.00     0.052 C 
HETATM    2  C   UNK     0     -20.996  36.765  46.111  0.00  0.00     0.004 C 
HETATM    3  C   UNK     0     -20.990  35.026  48.036  0.00  0.00     0.141 C 
HETATM    4  C   UNK     0     -21.898  37.533  45.101  0.00  0.00     0.009 C 
HETATM    5  C   UNK     0     -22.953  36.611  47.719  0.00  0.00    -0.055 C 
HETATM    6  C   UNK     0     -21.875  34.275  49.035  0.00  0.00     0.041 C 
HETATM    7  C   UNK     0     -22.841  35.192  49.806  0.00  0.00     0.007 C 
HETATM    8  C   UNK     0     -23.383  36.313  48.958  0.00  0.00    -0.015 C 
HETATM    9  C   UNK     0     -23.098  38.126  45.792  0.00  0.00    -0.022 C 
HETATM   10  C   UNK     0     -23.552  37.710  46.982  0.00  0.00     0.004 C 
HETATM   11  C   UNK     0     -22.372  36.697  43.909  0.00  0.00     0.014 C 
HETATM   12  C   UNK     0     -22.207  35.761  51.078  0.00  0.00     0.014 C 
ENDROOT
BRANCH   2  13
HETATM   13  C   UNK     0     -19.852  36.030  45.403  0.00  0.00     0.009 C 
BRANCH  13  14
HETATM   14  C   UNK     0     -18.541  36.792  45.548  0.00  0.00     0.033 C 
BRANCH  14  15
HETATM   15  C   UNK     0     -17.929  37.091  44.186  0.00  0.00     0.134 C 
HETATM   16  O   UNK     0     -17.519  35.831  43.610  0.00  0.00    -0.316 OA
HETATM   17  C   UNK     0     -17.290  35.673  42.285  0.00  0.00     0.261 C 
HETATM   18  O   UNK     0     -16.628  34.727  41.864  0.00  0.00    -0.265 OA
HETATM   19  C   UNK     0     -17.991  36.615  41.337  0.00  0.00     0.142 C 
HETATM   20  C   UNK     0     -18.318  37.982  41.905  0.00  0.00     0.130 C 
HETATM   21  C   UNK     0     -18.909  37.842  43.296  0.00  0.00     0.065 C 
BRANCH  20  22
HETATM   22  O   UNK     0     -17.128  38.765  41.941  0.00  0.00    -0.395 OA
HETATM   23  H   UNK     0     -17.307  39.591  41.459  0.00  0.00     0.210 HD
ENDBRANCH  20  22
ENDBRANCH  14  15
ENDBRANCH  13  14
ENDBRANCH   2  13
BRANCH   3  24
HETATM   24  O   UNK     0     -20.089  35.889  48.725  0.00  0.00    -0.315 OA
BRANCH  24  25
HETATM   25  C   UNK     0     -18.841  35.382  48.970  0.00  0.00     0.267 C 
HETATM   26  O   UNK     0     -18.416  34.325  48.519  0.00  0.00    -0.264 OA
BRANCH  25  27
HETATM   27  C   UNK     0     -18.044  36.314  49.892  0.00  0.00     0.040 C 
HETATM   28  C   UNK     0     -16.550  36.238  49.533  0.00  0.00     0.025 C 
HETATM   29  C   UNK     0     -18.214  35.818  51.340  0.00  0.00     0.025 C 
BRANCH  27  30
HETATM   30  C   UNK     0     -18.562  37.769  49.788  0.00  0.00     0.014 C 
HETATM   31  C   UNK     0     -17.808  38.649  48.796  0.00  0.00     0.006 C 
ENDBRANCH  27  30
ENDBRANCH  25  27
ENDBRANCH  24  25
ENDBRANCH   3  24
TORSDOF 8
ENDMDL
