MODEL 1
REMARK VINA RESULT:      -5.9      0.000      0.000
REMARK  8 active torsions:
REMARK  status: ('A' for Active; 'I' for Inactive)
REMARK    1  A    between atoms: O_1  and  C_8 
REMARK    2  A    between atoms: O_1  and  C_22 
REMARK    3  A    between atoms: O_3  and  C_23 
REMARK    4  A    between atoms: C_7  and  C_11 
REMARK    5  A    between atoms: C_11  and  C_15 
REMARK    6  A    between atoms: C_15  and  C_19 
REMARK    7  A    between atoms: C_22  and  C_24 
REMARK    8  A    between atoms: C_24  and  C_27 
ROOT
HETATM    1  C   UNK     0      21.238   9.437  -9.030  0.00  0.00     0.052 C 
HETATM    2  C   UNK     0      20.234   8.677  -9.946  0.00  0.00     0.004 C 
HETATM    3  C   UNK     0      22.352  10.167  -9.814  0.00  0.00     0.141 C 
HETATM    4  C   UNK     0      19.146   7.944  -9.107  0.00  0.00     0.009 C 
HETATM    5  C   UNK     0      20.499  10.381  -8.085  0.00  0.00    -0.055 C 
HETATM    6  C   UNK     0      23.193  11.053  -8.890  0.00  0.00     0.041 C 
HETATM    7  C   UNK     0      22.360  12.090  -8.113  0.00  0.00     0.007 C 
HETATM    8  C   UNK     0      21.016  11.559  -7.690  0.00  0.00    -0.015 C 
HETATM    9  C   UNK     0      18.578   8.853  -8.047  0.00  0.00    -0.022 C 
HETATM   10  C   UNK     0      19.194   9.959  -7.609  0.00  0.00     0.004 C 
HETATM   11  C   UNK     0      19.619   6.646  -8.447  0.00  0.00     0.014 C 
HETATM   12  C   UNK     0      22.183  13.393  -8.897  0.00  0.00     0.014 C 
ENDROOT
BRANCH   2  13
HETATM   13  C   UNK     0      20.927   7.725 -10.928  0.00  0.00     0.009 C 
BRANCH  13  14
HETATM   14  C   UNK     0      20.352   7.874 -12.330  0.00  0.00     0.033 C 
BRANCH  14  15
HETATM   15  C   UNK     0      19.073   8.702 -12.312  0.00  0.00     0.134 C 
HETATM   16  O   UNK     0      19.246   9.786 -13.251  0.00  0.00    -0.316 OA
HETATM   17  C   UNK     0      18.204  10.480 -13.765  0.00  0.00     0.261 C 
HETATM   18  O   UNK     0      18.368  11.587 -14.273  0.00  0.00    -0.265 OA
HETATM   19  C   UNK     0      16.862   9.791 -13.819  0.00  0.00     0.142 C 
HETATM   20  C   UNK     0      16.635   8.732 -12.759  0.00  0.00     0.130 C 
HETATM   21  C   UNK     0      17.859   7.844 -12.636  0.00  0.00     0.065 C 
BRANCH  20  22
HETATM   22  O   UNK     0      16.352   9.373 -11.518  0.00  0.00    -0.395 OA
HETATM   23  H   UNK     0      15.396   9.544 -11.488  0.00  0.00     0.210 HD
ENDBRANCH  20  22
ENDBRANCH  14  15
ENDBRANCH  13  14
ENDBRANCH   2  13
BRANCH   3  24
HETATM   24  O   UNK     0      21.792  10.943 -10.868  0.00  0.00    -0.315 OA
BRANCH  24  25
HETATM   25  C   UNK     0      22.491  10.949 -12.046  0.00  0.00     0.267 C 
HETATM   26  O   UNK     0      23.233  10.050 -12.422  0.00  0.00    -0.264 OA
BRANCH  25  27
HETATM   27  C   UNK     0      22.226  12.240 -12.832  0.00  0.00     0.040 C 
HETATM   28  C   UNK     0      20.971  12.933 -12.273  0.00  0.00     0.025 C 
HETATM   29  C   UNK     0      21.949  11.862 -14.300  0.00  0.00     0.025 C 
BRANCH  27  30
HETATM   30  C   UNK     0      23.450  13.185 -12.771  0.00  0.00     0.014 C 
HETATM   31  C   UNK     0      23.163  14.572 -12.207  0.00  0.00     0.006 C 
ENDBRANCH  27  30
ENDBRANCH  25  27
ENDBRANCH  24  25
ENDBRANCH   3  24
TORSDOF 8
ENDMDL
MODEL 2
REMARK VINA RESULT:      -5.8     28.881     32.184
REMARK  8 active torsions:
REMARK  status: ('A' for Active; 'I' for Inactive)
REMARK    1  A    between atoms: O_1  and  C_8 
REMARK    2  A    between atoms: O_1  and  C_22 
REMARK    3  A    between atoms: O_3  and  C_23 
REMARK    4  A    between atoms: C_7  and  C_11 
REMARK    5  A    between atoms: C_11  and  C_15 
REMARK    6  A    between atoms: C_15  and  C_19 
REMARK    7  A    between atoms: C_22  and  C_24 
REMARK    8  A    between atoms: C_24  and  C_27 
ROOT
HETATM    1  C   UNK     0       8.570   4.126  20.044  0.00  0.00     0.052 C 
HETATM    2  C   UNK     0       9.623   3.901  18.919  0.00  0.00     0.004 C 
HETATM    3  C   UNK     0       8.232   5.616  20.279  0.00  0.00     0.141 C 
HETATM    4  C   UNK     0       9.942   2.388  18.737  0.00  0.00     0.009 C 
HETATM    5  C   UNK     0       7.316   3.295  19.784  0.00  0.00    -0.055 C 
HETATM    6  C   UNK     0       7.058   5.773  21.250  0.00  0.00     0.041 C 
HETATM    7  C   UNK     0       5.787   5.032  20.798  0.00  0.00     0.007 C 
HETATM    8  C   UNK     0       6.085   3.717  20.127  0.00  0.00    -0.015 C 
HETATM    9  C   UNK     0       8.676   1.572  18.686  0.00  0.00    -0.022 C 
HETATM   10  C   UNK     0       7.495   2.003  19.148  0.00  0.00     0.004 C 
HETATM   11  C   UNK     0      10.870   1.801  19.805  0.00  0.00     0.014 C 
HETATM   12  C   UNK     0       4.908   5.894  19.888  0.00  0.00     0.014 C 
ENDROOT
BRANCH   2  13
HETATM   13  C   UNK     0      10.898   4.728  19.122  0.00  0.00     0.009 C 
BRANCH  13  14
HETATM   14  C   UNK     0      11.561   5.046  17.789  0.00  0.00     0.033 C 
BRANCH  14  15
HETATM   15  C   UNK     0      12.841   5.847  17.993  0.00  0.00     0.134 C 
HETATM   16  O   UNK     0      13.460   6.011  16.698  0.00  0.00    -0.316 OA
HETATM   17  C   UNK     0      14.386   6.965  16.446  0.00  0.00     0.261 C 
HETATM   18  O   UNK     0      15.138   6.880  15.478  0.00  0.00    -0.265 OA
HETATM   19  C   UNK     0      14.369   8.203  17.311  0.00  0.00     0.142 C 
HETATM   20  C   UNK     0      13.826   8.005  18.713  0.00  0.00     0.130 C 
HETATM   21  C   UNK     0      12.554   7.179  18.669  0.00  0.00     0.065 C 
BRANCH  20  22
HETATM   22  O   UNK     0      14.818   7.360  19.506  0.00  0.00    -0.395 OA
HETATM   23  H   UNK     0      15.545   7.992  19.637  0.00  0.00     0.210 HD
ENDBRANCH  20  22
ENDBRANCH  14  15
ENDBRANCH  13  14
ENDBRANCH   2  13
BRANCH   3  24
HETATM   24  O   UNK     0       7.940   6.261  19.042  0.00  0.00    -0.315 OA
BRANCH  24  25
HETATM   25  C   UNK     0       8.502   7.497  18.862  0.00  0.00     0.267 C 
HETATM   26  O   UNK     0       9.223   8.061  19.676  0.00  0.00    -0.264 OA
BRANCH  25  27
HETATM   27  C   UNK     0       8.100   8.087  17.504  0.00  0.00     0.040 C 
HETATM   28  C   UNK     0       8.498   9.573  17.452  0.00  0.00     0.025 C 
HETATM   29  C   UNK     0       6.568   7.998  17.374  0.00  0.00     0.025 C 
BRANCH  27  30
HETATM   30  C   UNK     0       8.757   7.300  16.344  0.00  0.00     0.014 C 
HETATM   31  C   UNK     0      10.138   7.798  15.932  0.00  0.00     0.006 C 
ENDBRANCH  27  30
ENDBRANCH  25  27
ENDBRANCH  24  25
ENDBRANCH   3  24
TORSDOF 8
ENDMDL
MODEL 3
REMARK VINA RESULT:      -5.5     28.777     32.066
REMARK  8 active torsions:
REMARK  status: ('A' for Active; 'I' for Inactive)
REMARK    1  A    between atoms: O_1  and  C_8 
REMARK    2  A    between atoms: O_1  and  C_22 
REMARK    3  A    between atoms: O_3  and  C_23 
REMARK    4  A    between atoms: C_7  and  C_11 
REMARK    5  A    between atoms: C_11  and  C_15 
REMARK    6  A    between atoms: C_15  and  C_19 
REMARK    7  A    between atoms: C_22  and  C_24 
REMARK    8  A    between atoms: C_24  and  C_27 
ROOT
HETATM    1  C   UNK     0       8.896   4.408  19.836  0.00  0.00     0.052 C 
HETATM    2  C   UNK     0       9.859   3.957  18.698  0.00  0.00     0.004 C 
HETATM    3  C   UNK     0       8.766   5.943  19.959  0.00  0.00     0.141 C 
HETATM    4  C   UNK     0       9.969   2.406  18.631  0.00  0.00     0.009 C 
HETATM    5  C   UNK     0       7.534   3.735  19.690  0.00  0.00    -0.055 C 
HETATM    6  C   UNK     0       7.668   6.330  20.954  0.00  0.00     0.041 C 
HETATM    7  C   UNK     0       6.292   5.733  20.609  0.00  0.00     0.007 C 
HETATM    8  C   UNK     0       6.386   4.343  20.038  0.00  0.00    -0.015 C 
HETATM    9  C   UNK     0       8.607   1.765  18.691  0.00  0.00    -0.022 C 
HETATM   10  C   UNK     0       7.514   2.385  19.156  0.00  0.00     0.004 C 
HETATM   11  C   UNK     0      10.860   1.785  19.711  0.00  0.00     0.014 C 
HETATM   12  C   UNK     0       5.493   6.632  19.661  0.00  0.00     0.014 C 
ENDROOT
BRANCH   2  13
HETATM   13  C   UNK     0      11.239   4.619  18.789  0.00  0.00     0.009 C 
BRANCH  13  14
HETATM   14  C   UNK     0      11.654   5.204  17.446  0.00  0.00     0.033 C 
BRANCH  14  15
HETATM   15  C   UNK     0      12.624   6.364  17.631  0.00  0.00     0.134 C 
HETATM   16  O   UNK     0      12.930   6.452  19.040  0.00  0.00    -0.316 OA
HETATM   17  C   UNK     0      14.019   7.101  19.513  0.00  0.00     0.261 C 
HETATM   18  O   UNK     0      14.084   7.460  20.687  0.00  0.00    -0.265 OA
HETATM   19  C   UNK     0      15.204   7.244  18.589  0.00  0.00     0.142 C 
HETATM   20  C   UNK     0      14.873   7.269  17.110  0.00  0.00     0.130 C 
HETATM   21  C   UNK     0      13.872   6.177  16.781  0.00  0.00     0.065 C 
BRANCH  20  22
HETATM   22  O   UNK     0      14.348   8.551  16.775  0.00  0.00    -0.395 OA
HETATM   23  H   UNK     0      14.223   8.572  15.811  0.00  0.00     0.210 HD
ENDBRANCH  20  22
ENDBRANCH  14  15
ENDBRANCH  13  14
ENDBRANCH   2  13
BRANCH   3  24
HETATM   24  O   UNK     0       8.506   6.524  18.684  0.00  0.00    -0.315 OA
BRANCH  24  25
HETATM   25  C   UNK     0       9.103   7.732  18.442  0.00  0.00     0.267 C 
HETATM   26  O   UNK     0      10.040   8.190  19.085  0.00  0.00    -0.264 OA
BRANCH  25  27
HETATM   27  C   UNK     0       8.435   8.444  17.258  0.00  0.00     0.040 C 
HETATM   28  C   UNK     0       7.668   9.678  17.767  0.00  0.00     0.025 C 
HETATM   29  C   UNK     0       7.417   7.476  16.626  0.00  0.00     0.025 C 
BRANCH  27  30
HETATM   30  C   UNK     0       9.484   8.848  16.194  0.00  0.00     0.014 C 
HETATM   31  C   UNK     0       9.935   7.718  15.275  0.00  0.00     0.006 C 
ENDBRANCH  27  30
ENDBRANCH  25  27
ENDBRANCH  24  25
ENDBRANCH   3  24
TORSDOF 8
ENDMDL
