REMARK  Name = C:\Users\Docking\Desktop\test protocol\1iep_ligandH.pdb
REMARK  8 active torsions:
REMARK  status: ('A' for Active; 'I' for Inactive)
REMARK    1  A    between atoms: _5  and  _11
REMARK    2  A    between atoms: _19  and  _21
REMARK    3  A    between atoms: _22  and  _66
REMARK    4  A    between atoms: _27  and  _30
REMARK    5  A    between atoms: _32  and  _33
REMARK    6  A    between atoms: _38  and  _43
REMARK    7  A    between atoms: _43  and  _46
REMARK    8  A    between atoms: _53  and  _55
REMARK                            x       y       z     vdW  Elec       q    Type
REMARK                         _______ _______ _______ _____ _____    ______ ____
ROOT
ATOM     10  C   UNL     1      15.822  54.641  12.322  0.00  0.00    +0.038 A 
ATOM     11  C   UNL     1      15.698  53.772  13.436  0.00  0.00    +0.047 A 
ATOM     12  C   UNL     1      16.678  52.727  13.688  0.00  0.00    +0.035 A 
ATOM     32  C   UNL     1      17.774  52.597  12.786  0.00  0.00    +0.024 A 
ATOM     33  C   UNL     1      17.915  53.471  11.648  0.00  0.00    +0.007 A 
ATOM     34  C   UNL     1      16.950  54.502  11.393  0.00  0.00    -0.029 A 
ATOM     35  C   UNL     1      17.148  55.406  10.154  0.00  0.00    +0.045 C 
ENDROOT
BRANCH  10   9
ATOM      4  C   UNL     1      14.238  59.155  12.712  0.00  0.00    +0.077 A 
ATOM      5  C   UNL     1      15.433  59.579  13.383  0.00  0.00    +0.048 A 
ATOM      6  C   UNL     1      16.428  58.603  13.615  0.00  0.00    +0.116 A 
ATOM      7  N   UNL     1      16.232  57.303  13.202  0.00  0.00    -0.223 NA
ATOM      8  C   UNL     1      15.067  56.927  12.559  0.00  0.00    +0.220 A 
ATOM      9  N   UNL     1      14.852  55.627  12.128  0.00  0.00    -0.283 N 
ATOM     36  H   UNL     1      13.976  55.388  11.664  0.00  0.00    +0.155 HD
ATOM     37  N   UNL     1      14.101  57.840  12.327  0.00  0.00    -0.214 NA
BRANCH   4   3
ATOM      1  C   UNL     1      11.879  62.272  12.570  0.00  0.00    +0.020 A 
ATOM      2  C   UNL     1      13.002  61.429  12.910  0.00  0.00    +0.013 A 
ATOM      3  C   UNL     1      13.097  60.070  12.392  0.00  0.00    +0.019 A 
ATOM     38  C   UNL     1      12.031  59.591  11.525  0.00  0.00    +0.120 A 
ATOM     39  N   UNL     1      10.961  60.425  11.216  0.00  0.00    -0.263 NA
ATOM     40  C   UNL     1      10.858  61.734  11.710  0.00  0.00    +0.111 A 
ENDBRANCH   4   3
ENDBRANCH  10   9
BRANCH  12  13
ATOM     13  N   UNL     1      16.600  51.810  14.798  0.00  0.00    -0.281 N 
ATOM     14  C   UNL     1      15.629  51.747  15.784  0.00  0.00    +0.248 C 
ATOM     30  O   UNL     1      14.789  52.612  15.983  0.00  0.00    -0.270 OA
ATOM     31  H   UNL     1      17.352  51.124  14.865  0.00  0.00    +0.155 HD
BRANCH  14  15
ATOM     15  C   UNL     1      15.595  50.558  16.689  0.00  0.00    +0.037 A 
ATOM     16  C   UNL     1      14.423  50.268  17.519  0.00  0.00    +0.013 A 
ATOM     17  C   UNL     1      14.423  49.124  18.396  0.00  0.00    +0.005 A 
ATOM     18  C   UNL     1      15.600  48.260  18.446  0.00  0.00    -0.033 A 
ATOM     28  C   UNL     1      16.747  48.568  17.608  0.00  0.00    +0.005 A 
ATOM     29  C   UNL     1      16.751  49.689  16.748  0.00  0.00    +0.013 A 
BRANCH  18  19
ATOM     19  C   UNL     1      15.696  47.030  19.368  0.00  0.00    +0.119 C 
BRANCH  19  20
ATOM     20  N   UNL     1      16.917  46.907  20.219  0.00  0.00    -0.302 NA
ATOM     21  C   UNL     1      16.877  45.658  21.104  0.00  0.00    +0.066 C 
ATOM     22  C   UNL     1      18.172  45.533  21.971  0.00  0.00    -0.064 C 
ATOM     23  N   UNL     1      18.337  46.794  22.821  0.00  0.00    +0.379 N 
ATOM     24  C   UNL     1      19.522  46.655  23.680  0.00  0.00    -0.096 C 
ATOM     25  H   UNL     1      17.445  46.873  23.485  0.00  0.00    -0.082 HD
ATOM     26  C   UNL     1      18.375  48.041  21.949  0.00  0.00    -0.064 C 
ATOM     27  C   UNL     1      17.097  48.140  21.070  0.00  0.00    +0.066 C 
ENDBRANCH  19  20
ENDBRANCH  18  19
ENDBRANCH  14  15
ENDBRANCH  12  13
TORSDOF 6
