MODEL 1
REMARK VINA RESULT:      -8.7      0.000      0.000
REMARK  5 active torsions:
REMARK  status: ('A' for Active; 'I' for Inactive)
REMARK    1  A    between atoms: O_4  and  C_33 
REMARK    2  A    between atoms: N_5  and  C_19 
REMARK    3  A    between atoms: N_6  and  C_20 
REMARK    4  A    between atoms: N_7  and  C_27 
REMARK       I    between atoms: N_9  and  C_28 
REMARK    5  A    between atoms: C_22  and  C_28 
ROOT
HETATM    1  O   UNK     0      17.448  44.836  20.914  0.00  0.00    -0.265 OA
HETATM    2  N   UNK     0      19.612  43.923  21.151  0.00  0.00    -0.312 N 
HETATM    3  N   UNK     0      18.672  47.249  19.771  0.00  0.00    -0.227 N 
HETATM    4  N   UNK     0      19.526  48.139  19.230  0.00  0.00    -0.161 NA
HETATM    5  C   UNK     0      21.562  45.135  20.065  0.00  0.00     0.064 C 
HETATM    6  C   UNK     0      21.063  44.259  21.227  0.00  0.00     0.137 C 
HETATM    7  C   UNK     0      20.594  46.218  19.824  0.00  0.00     0.014 A 
HETATM    8  C   UNK     0      19.267  46.080  20.151  0.00  0.00     0.136 A 
HETATM    9  C   UNK     0      18.664  44.915  20.756  0.00  0.00     0.277 C 
HETATM   10  C   UNK     0      20.701  47.500  19.263  0.00  0.00     0.153 A 
ENDROOT
BRANCH   2  11
HETATM   11  C   UNK     0      19.183  42.647  21.666  0.00  0.00     0.037 A 
HETATM   12  C   UNK     0      18.520  42.582  22.888  0.00  0.00     0.032 A 
HETATM   13  C   UNK     0      18.106  41.347  23.387  0.00  0.00     0.032 A 
HETATM   14  C   UNK     0      18.357  40.182  22.662  0.00  0.00     0.037 A 
HETATM   15  C   UNK     0      19.022  40.253  21.437  0.00  0.00     0.032 A 
HETATM   16  C   UNK     0      19.435  41.488  20.938  0.00  0.00     0.032 A 
BRANCH  14  17
HETATM   17  N   UNK     0      17.928  38.901  23.178  0.00  0.00    -0.318 N 
HETATM   18  C   UNK     0      18.460  38.486  24.487  0.00  0.00     0.132 C 
HETATM   19  C   UNK     0      18.432  36.985  24.724  0.00  0.00     0.021 C 
HETATM   20  C   UNK     0      17.045  36.460  24.429  0.00  0.00     0.011 C 
HETATM   21  C   UNK     0      16.721  36.735  22.977  0.00  0.00     0.103 C 
HETATM   22  C   UNK     0      16.891  38.185  22.555  0.00  0.00     0.224 C 
HETATM   23  O   UNK     0      16.157  38.618  21.662  0.00  0.00    -0.273 OA
ENDBRANCH  14  17
ENDBRANCH   2  11
BRANCH   3  24
HETATM   24  C   UNK     0      17.324  47.587  19.899  0.00  0.00     0.059 A 
HETATM   25  C   UNK     0      16.467  47.403  18.823  0.00  0.00     0.034 A 
HETATM   26  C   UNK     0      15.119  47.742  18.952  0.00  0.00     0.039 A 
HETATM   27  C   UNK     0      14.642  48.261  20.154  0.00  0.00     0.068 A 
HETATM   28  C   UNK     0      15.512  48.442  21.230  0.00  0.00     0.039 A 
HETATM   29  C   UNK     0      16.859  48.104  21.102  0.00  0.00     0.034 A 
BRANCH  27  30
HETATM   30  O   UNK     0      13.327  48.591  20.280  0.00  0.00    -0.356 OA
HETATM   31  C   UNK     0      12.856  49.693  19.506  0.00  0.00     0.210 C 
ENDBRANCH  27  30
ENDBRANCH   3  24
BRANCH  10  32
HETATM   32  C   UNK     0      21.875  48.145  18.750  0.00  0.00     0.270 C 
HETATM   33  O   UNK     0      22.841  47.524  18.259  0.00  0.00    -0.266 OA
HETATM   34  N   UNK     0      21.917  49.540  18.786  0.00  0.00    -0.365 N 
HETATM   35  H   UNK     0      21.155  50.093  19.166  0.00  0.00     0.159 HD
HETATM   36  H   UNK     0      22.720  50.047  18.429  0.00  0.00     0.159 HD
ENDBRANCH  10  32
TORSDOF 5
ENDMDL
MODEL 2
REMARK VINA RESULT:      -8.0      4.116      5.637
REMARK  5 active torsions:
REMARK  status: ('A' for Active; 'I' for Inactive)
REMARK    1  A    between atoms: O_4  and  C_33 
REMARK    2  A    between atoms: N_5  and  C_19 
REMARK    3  A    between atoms: N_6  and  C_20 
REMARK    4  A    between atoms: N_7  and  C_27 
REMARK       I    between atoms: N_9  and  C_28 
REMARK    5  A    between atoms: C_22  and  C_28 
ROOT
HETATM    1  O   UNK     0      20.802  48.179  22.796  0.00  0.00    -0.265 OA
HETATM    2  N   UNK     0      21.038  47.216  20.654  0.00  0.00    -0.312 N 
HETATM    3  N   UNK     0      21.780  50.715  21.683  0.00  0.00    -0.227 N 
HETATM    4  N   UNK     0      22.168  51.705  20.857  0.00  0.00    -0.161 NA
HETATM    5  C   UNK     0      21.532  48.746  18.688  0.00  0.00     0.064 C 
HETATM    6  C   UNK     0      21.714  47.361  19.332  0.00  0.00     0.137 C 
HETATM    7  C   UNK     0      21.739  49.787  19.709  0.00  0.00     0.014 A 
HETATM    8  C   UNK     0      21.517  49.538  21.042  0.00  0.00     0.136 A 
HETATM    9  C   UNK     0      21.080  48.281  21.603  0.00  0.00     0.277 C 
HETATM   10  C   UNK     0      22.138  51.131  19.649  0.00  0.00     0.153 A 
ENDROOT
BRANCH   2  11
HETATM   11  C   UNK     0      20.516  45.921  21.010  0.00  0.00     0.037 A 
HETATM   12  C   UNK     0      19.181  45.620  20.757  0.00  0.00     0.032 A 
HETATM   13  C   UNK     0      18.676  44.366  21.103  0.00  0.00     0.032 A 
HETATM   14  C   UNK     0      19.508  43.419  21.700  0.00  0.00     0.037 A 
HETATM   15  C   UNK     0      20.846  43.726  21.951  0.00  0.00     0.032 A 
HETATM   16  C   UNK     0      21.351  44.980  21.605  0.00  0.00     0.032 A 
BRANCH  14  17
HETATM   17  N   UNK     0      18.986  42.120  22.059  0.00  0.00    -0.318 N 
HETATM   18  C   UNK     0      18.079  42.049  23.217  0.00  0.00     0.132 C 
HETATM   19  C   UNK     0      18.001  40.678  23.867  0.00  0.00     0.021 C 
HETATM   20  C   UNK     0      17.722  39.639  22.804  0.00  0.00     0.011 C 
HETATM   21  C   UNK     0      18.860  39.647  21.807  0.00  0.00     0.103 C 
HETATM   22  C   UNK     0      19.171  41.011  21.214  0.00  0.00     0.224 C 
HETATM   23  O   UNK     0      19.616  41.054  20.063  0.00  0.00    -0.273 OA
ENDBRANCH  14  17
ENDBRANCH   2  11
BRANCH   3  24
HETATM   24  C   UNK     0      21.696  50.962  23.054  0.00  0.00     0.059 A 
HETATM   25  C   UNK     0      22.774  50.653  23.872  0.00  0.00     0.034 A 
HETATM   26  C   UNK     0      22.690  50.900  25.243  0.00  0.00     0.039 A 
HETATM   27  C   UNK     0      21.530  51.453  25.783  0.00  0.00     0.068 A 
HETATM   28  C   UNK     0      20.452  51.761  24.951  0.00  0.00     0.039 A 
HETATM   29  C   UNK     0      20.536  51.513  23.581  0.00  0.00     0.034 A 
BRANCH  27  30
HETATM   30  O   UNK     0      21.448  51.694  27.120  0.00  0.00    -0.356 OA
HETATM   31  C   UNK     0      21.366  53.059  27.530  0.00  0.00     0.210 C 
ENDBRANCH  27  30
ENDBRANCH   3  24
BRANCH  10  32
HETATM   32  C   UNK     0      22.488  51.899  18.489  0.00  0.00     0.270 C 
HETATM   33  O   UNK     0      23.618  51.865  17.958  0.00  0.00    -0.266 OA
HETATM   34  N   UNK     0      21.497  52.703  17.921  0.00  0.00    -0.365 N 
HETATM   35  H   UNK     0      20.561  52.758  18.307  0.00  0.00     0.159 HD
HETATM   36  H   UNK     0      21.689  53.260  17.095  0.00  0.00     0.159 HD
ENDBRANCH  10  32
TORSDOF 5
ENDMDL
MODEL 3
REMARK VINA RESULT:      -7.7      2.900      8.614
REMARK  5 active torsions:
REMARK  status: ('A' for Active; 'I' for Inactive)
REMARK    1  A    between atoms: O_4  and  C_33 
REMARK    2  A    between atoms: N_5  and  C_19 
REMARK    3  A    between atoms: N_6  and  C_20 
REMARK    4  A    between atoms: N_7  and  C_27 
REMARK       I    between atoms: N_9  and  C_28 
REMARK    5  A    between atoms: C_22  and  C_28 
ROOT
HETATM    1  O   UNK     0      18.733  44.913  22.301  0.00  0.00    -0.265 OA
HETATM    2  N   UNK     0      19.707  46.925  21.546  0.00  0.00    -0.312 N 
HETATM    3  N   UNK     0      21.204  44.363  23.791  0.00  0.00    -0.227 N 
HETATM    4  N   UNK     0      22.402  44.461  24.396  0.00  0.00    -0.161 NA
HETATM    5  C   UNK     0      21.896  47.678  22.592  0.00  0.00     0.064 C 
HETATM    6  C   UNK     0      21.001  47.639  21.341  0.00  0.00     0.137 C 
HETATM    7  C   UNK     0      21.910  46.345  23.219  0.00  0.00     0.014 A 
HETATM    8  C   UNK     0      20.865  45.468  23.064  0.00  0.00     0.136 A 
HETATM    9  C   UNK     0      19.666  45.712  22.296  0.00  0.00     0.277 C 
HETATM   10  C   UNK     0      22.829  45.678  24.044  0.00  0.00     0.153 A 
ENDROOT
BRANCH   2  11
HETATM   11  C   UNK     0      18.555  47.387  20.812  0.00  0.00     0.037 A 
HETATM   12  C   UNK     0      17.484  47.956  21.495  0.00  0.00     0.032 A 
HETATM   13  C   UNK     0      16.369  48.402  20.786  0.00  0.00     0.032 A 
HETATM   14  C   UNK     0      16.329  48.276  19.397  0.00  0.00     0.037 A 
HETATM   15  C   UNK     0      17.406  47.704  18.718  0.00  0.00     0.032 A 
HETATM   16  C   UNK     0      18.522  47.260  19.427  0.00  0.00     0.032 A 
BRANCH  14  17
HETATM   17  N   UNK     0      15.174  48.738  18.661  0.00  0.00    -0.318 N 
HETATM   18  C   UNK     0      15.417  49.531  17.444  0.00  0.00     0.132 C 
HETATM   19  C   UNK     0      14.254  50.419  17.034  0.00  0.00     0.021 C 
HETATM   20  C   UNK     0      12.990  49.590  16.985  0.00  0.00     0.011 C 
HETATM   21  C   UNK     0      12.720  49.033  18.365  0.00  0.00     0.103 C 
HETATM   22  C   UNK     0      13.885  48.272  18.978  0.00  0.00     0.224 C 
HETATM   23  O   UNK     0      13.628  47.346  19.751  0.00  0.00    -0.273 OA
ENDBRANCH  14  17
ENDBRANCH   2  11
BRANCH   3  24
HETATM   24  C   UNK     0      20.455  43.194  23.943  0.00  0.00     0.059 A 
HETATM   25  C   UNK     0      19.550  43.093  24.990  0.00  0.00     0.034 A 
HETATM   26  C   UNK     0      18.802  41.924  25.142  0.00  0.00     0.039 A 
HETATM   27  C   UNK     0      18.966  40.870  24.245  0.00  0.00     0.068 A 
HETATM   28  C   UNK     0      19.878  40.982  23.195  0.00  0.00     0.039 A 
HETATM   29  C   UNK     0      20.626  42.150  23.044  0.00  0.00     0.034 A 
BRANCH  27  30
HETATM   30  O   UNK     0      18.236  39.730  24.393  0.00  0.00    -0.356 OA
HETATM   31  C   UNK     0      18.345  38.750  23.361  0.00  0.00     0.210 C 
ENDBRANCH  27  30
ENDBRANCH   3  24
BRANCH  10  32
HETATM   32  C   UNK     0      24.097  46.152  24.519  0.00  0.00     0.270 C 
HETATM   33  O   UNK     0      25.191  45.762  24.062  0.00  0.00    -0.266 OA
HETATM   34  N   UNK     0      24.092  47.116  25.530  0.00  0.00    -0.365 N 
HETATM   35  H   UNK     0      23.230  47.473  25.930  0.00  0.00     0.159 HD
HETATM   36  H   UNK     0      24.960  47.490  25.897  0.00  0.00     0.159 HD
ENDBRANCH  10  32
TORSDOF 5
ENDMDL
