MODEL 1
REMARK VINA RESULT:      -8.4      0.000      0.000
REMARK  5 active torsions:
REMARK  status: ('A' for Active; 'I' for Inactive)
REMARK    1  A    between atoms: O_4  and  C_33 
REMARK    2  A    between atoms: N_5  and  C_19 
REMARK    3  A    between atoms: N_6  and  C_20 
REMARK    4  A    between atoms: N_7  and  C_27 
REMARK       I    between atoms: N_9  and  C_28 
REMARK    5  A    between atoms: C_22  and  C_28 
ROOT
HETATM    1  O   UNK     0      13.313  31.714  20.330  0.00  0.00    -0.265 OA
HETATM    2  N   UNK     0      12.836  29.705  19.186  0.00  0.00    -0.312 N 
HETATM    3  N   UNK     0      15.729  30.441  21.408  0.00  0.00    -0.227 N 
HETATM    4  N   UNK     0      16.761  29.609  21.647  0.00  0.00    -0.161 NA
HETATM    5  C   UNK     0      14.612  27.890  19.139  0.00  0.00     0.064 C 
HETATM    6  C   UNK     0      13.114  28.240  19.152  0.00  0.00     0.137 C 
HETATM    7  C   UNK     0      15.313  28.722  20.131  0.00  0.00     0.014 A 
HETATM    8  C   UNK     0      14.826  29.950  20.509  0.00  0.00     0.136 A 
HETATM    9  C   UNK     0      13.615  30.565  20.018  0.00  0.00     0.277 C 
HETATM   10  C   UNK     0      16.501  28.559  20.859  0.00  0.00     0.153 A 
ENDROOT
BRANCH   2  11
HETATM   11  C   UNK     0      11.655  30.188  18.516  0.00  0.00     0.037 A 
HETATM   12  C   UNK     0      10.977  29.358  17.628  0.00  0.00     0.032 A 
HETATM   13  C   UNK     0       9.834  29.824  16.978  0.00  0.00     0.032 A 
HETATM   14  C   UNK     0       9.374  31.119  17.219  0.00  0.00     0.037 A 
HETATM   15  C   UNK     0      10.058  31.947  18.111  0.00  0.00     0.032 A 
HETATM   16  C   UNK     0      11.200  31.479  18.761  0.00  0.00     0.032 A 
BRANCH  14  17
HETATM   17  N   UNK     0       8.190  31.604  16.547  0.00  0.00    -0.318 N 
HETATM   18  C   UNK     0       8.347  32.096  15.167  0.00  0.00     0.132 C 
HETATM   19  C   UNK     0       7.259  33.058  14.720  0.00  0.00     0.021 C 
HETATM   20  C   UNK     0       5.906  32.445  15.003  0.00  0.00     0.011 C 
HETATM   21  C   UNK     0       5.779  32.217  16.494  0.00  0.00     0.103 C 
HETATM   22  C   UNK     0       6.915  31.418  17.110  0.00  0.00     0.224 C 
HETATM   23  O   UNK     0       6.661  30.712  18.090  0.00  0.00    -0.273 OA
ENDBRANCH  14  17
ENDBRANCH   2  11
BRANCH   3  24
HETATM   24  C   UNK     0      15.670  31.664  22.077  0.00  0.00     0.059 A 
HETATM   25  C   UNK     0      15.061  31.735  23.322  0.00  0.00     0.034 A 
HETATM   26  C   UNK     0      15.001  32.959  23.990  0.00  0.00     0.039 A 
HETATM   27  C   UNK     0      15.551  34.100  23.407  0.00  0.00     0.068 A 
HETATM   28  C   UNK     0      16.163  34.017  22.155  0.00  0.00     0.039 A 
HETATM   29  C   UNK     0      16.222  32.794  21.487  0.00  0.00     0.034 A 
BRANCH  27  30
HETATM   30  O   UNK     0      15.494  35.293  24.059  0.00  0.00    -0.356 OA
HETATM   31  C   UNK     0      16.231  36.378  23.495  0.00  0.00     0.210 C 
ENDBRANCH  27  30
ENDBRANCH   3  24
BRANCH  10  32
HETATM   32  C   UNK     0      17.408  27.447  20.835  0.00  0.00     0.270 C 
HETATM   33  O   UNK     0      18.485  27.454  20.203  0.00  0.00    -0.266 OA
HETATM   34  N   UNK     0      17.066  26.316  21.578  0.00  0.00    -0.365 N 
HETATM   35  H   UNK     0      16.207  26.263  22.115  0.00  0.00     0.159 HD
HETATM   36  H   UNK     0      17.674  25.505  21.601  0.00  0.00     0.159 HD
ENDBRANCH  10  32
TORSDOF 5
ENDMDL
MODEL 2
REMARK VINA RESULT:      -8.4      0.824      1.665
REMARK  5 active torsions:
REMARK  status: ('A' for Active; 'I' for Inactive)
REMARK    1  A    between atoms: O_4  and  C_33 
REMARK    2  A    between atoms: N_5  and  C_19 
REMARK    3  A    between atoms: N_6  and  C_20 
REMARK    4  A    between atoms: N_7  and  C_27 
REMARK       I    between atoms: N_9  and  C_28 
REMARK    5  A    between atoms: C_22  and  C_28 
ROOT
HETATM    1  O   UNK     0      13.312  31.763  20.358  0.00  0.00    -0.265 OA
HETATM    2  N   UNK     0      12.805  29.761  19.216  0.00  0.00    -0.312 N 
HETATM    3  N   UNK     0      15.725  30.463  21.413  0.00  0.00    -0.227 N 
HETATM    4  N   UNK     0      16.750  29.620  21.641  0.00  0.00    -0.161 NA
HETATM    5  C   UNK     0      14.561  27.927  19.150  0.00  0.00     0.064 C 
HETATM    6  C   UNK     0      13.067  28.293  19.177  0.00  0.00     0.137 C 
HETATM    7  C   UNK     0      15.279  28.751  20.137  0.00  0.00     0.014 A 
HETATM    8  C   UNK     0      14.809  29.984  20.521  0.00  0.00     0.136 A 
HETATM    9  C   UNK     0      13.600  30.611  20.041  0.00  0.00     0.277 C 
HETATM   10  C   UNK     0      16.472  28.575  20.855  0.00  0.00     0.153 A 
ENDROOT
BRANCH   2  11
HETATM   11  C   UNK     0      11.622  30.257  18.557  0.00  0.00     0.037 A 
HETATM   12  C   UNK     0      11.159  31.538  18.841  0.00  0.00     0.032 A 
HETATM   13  C   UNK     0      10.014  32.018  18.204  0.00  0.00     0.032 A 
HETATM   14  C   UNK     0       9.338  31.214  17.285  0.00  0.00     0.037 A 
HETATM   15  C   UNK     0       9.807  29.930  17.005  0.00  0.00     0.032 A 
HETATM   16  C   UNK     0      10.953  29.451  17.641  0.00  0.00     0.032 A 
BRANCH  14  17
HETATM   17  N   UNK     0       8.152  31.710  16.624  0.00  0.00    -0.318 N 
HETATM   18  C   UNK     0       6.872  31.583  17.343  0.00  0.00     0.132 C 
HETATM   19  C   UNK     0       5.647  31.600  16.444  0.00  0.00     0.021 C 
HETATM   20  C   UNK     0       5.721  32.800  15.526  0.00  0.00     0.011 C 
HETATM   21  C   UNK     0       6.960  32.679  14.666  0.00  0.00     0.103 C 
HETATM   22  C   UNK     0       8.249  32.466  15.442  0.00  0.00     0.224 C 
HETATM   23  O   UNK     0       9.294  32.914  14.963  0.00  0.00    -0.273 OA
ENDBRANCH  14  17
ENDBRANCH   2  11
BRANCH   3  24
HETATM   24  C   UNK     0      15.684  31.687  22.083  0.00  0.00     0.059 A 
HETATM   25  C   UNK     0      16.235  32.813  21.486  0.00  0.00     0.034 A 
HETATM   26  C   UNK     0      16.196  34.036  22.157  0.00  0.00     0.039 A 
HETATM   27  C   UNK     0      15.605  34.122  23.417  0.00  0.00     0.068 A 
HETATM   28  C   UNK     0      15.053  32.984  24.008  0.00  0.00     0.039 A 
HETATM   29  C   UNK     0      15.094  31.761  23.338  0.00  0.00     0.034 A 
BRANCH  27  30
HETATM   30  O   UNK     0      15.565  35.315  24.071  0.00  0.00    -0.356 OA
HETATM   31  C   UNK     0      16.261  36.408  23.473  0.00  0.00     0.210 C 
ENDBRANCH  27  30
ENDBRANCH   3  24
BRANCH  10  32
HETATM   32  C   UNK     0      17.367  27.453  20.821  0.00  0.00     0.270 C 
HETATM   33  O   UNK     0      18.436  27.448  20.176  0.00  0.00    -0.266 OA
HETATM   34  N   UNK     0      17.022  26.327  21.570  0.00  0.00    -0.365 N 
HETATM   35  H   UNK     0      16.170  26.284  22.118  0.00  0.00     0.159 HD
HETATM   36  H   UNK     0      17.623  25.509  21.587  0.00  0.00     0.159 HD
ENDBRANCH  10  32
TORSDOF 5
ENDMDL
MODEL 3
REMARK VINA RESULT:      -8.2      3.814      9.827
REMARK  5 active torsions:
REMARK  status: ('A' for Active; 'I' for Inactive)
REMARK    1  A    between atoms: O_4  and  C_33 
REMARK    2  A    between atoms: N_5  and  C_19 
REMARK    3  A    between atoms: N_6  and  C_20 
REMARK    4  A    between atoms: N_7  and  C_27 
REMARK       I    between atoms: N_9  and  C_28 
REMARK    5  A    between atoms: C_22  and  C_28 
ROOT
HETATM    1  O   UNK     0      12.102  33.364  16.343  0.00  0.00    -0.265 OA
HETATM    2  N   UNK     0      11.012  32.603  18.294  0.00  0.00    -0.312 N 
HETATM    3  N   UNK     0       9.730  34.989  15.742  0.00  0.00    -0.227 N 
HETATM    4  N   UNK     0       8.559  35.650  15.811  0.00  0.00    -0.161 NA
HETATM    5  C   UNK     0       8.848  33.736  18.991  0.00  0.00     0.064 C 
HETATM    6  C   UNK     0       9.682  32.444  18.950  0.00  0.00     0.137 C 
HETATM    7  C   UNK     0       8.918  34.399  17.678  0.00  0.00     0.014 A 
HETATM    8  C   UNK     0       9.989  34.216  16.838  0.00  0.00     0.136 A 
HETATM    9  C   UNK     0      11.138  33.383  17.106  0.00  0.00     0.277 C 
HETATM   10  C   UNK     0       8.068  35.287  17.000  0.00  0.00     0.153 A 
ENDROOT
BRANCH   2  11
HETATM   11  C   UNK     0      12.107  31.801  18.778  0.00  0.00     0.037 A 
HETATM   12  C   UNK     0      13.192  32.415  19.397  0.00  0.00     0.032 A 
HETATM   13  C   UNK     0      14.254  31.639  19.865  0.00  0.00     0.032 A 
HETATM   14  C   UNK     0      14.225  30.253  19.711  0.00  0.00     0.037 A 
HETATM   15  C   UNK     0      13.134  29.643  19.089  0.00  0.00     0.032 A 
HETATM   16  C   UNK     0      12.073  30.419  18.623  0.00  0.00     0.032 A 
BRANCH  14  17
HETATM   17  N   UNK     0      15.324  29.448  20.195  0.00  0.00    -0.318 N 
HETATM   18  C   UNK     0      16.659  29.713  19.632  0.00  0.00     0.132 C 
HETATM   19  C   UNK     0      17.627  28.547  19.743  0.00  0.00     0.021 C 
HETATM   20  C   UNK     0      17.649  28.054  21.172  0.00  0.00     0.011 C 
HETATM   21  C   UNK     0      16.262  27.579  21.544  0.00  0.00     0.103 C 
HETATM   22  C   UNK     0      15.159  28.597  21.303  0.00  0.00     0.224 C 
HETATM   23  O   UNK     0      14.175  28.572  22.047  0.00  0.00    -0.273 OA
ENDBRANCH  14  17
ENDBRANCH   2  11
BRANCH   3  24
HETATM   24  C   UNK     0      10.532  35.135  14.608  0.00  0.00     0.059 A 
HETATM   25  C   UNK     0      11.389  36.222  14.512  0.00  0.00     0.034 A 
HETATM   26  C   UNK     0      12.189  36.369  13.378  0.00  0.00     0.039 A 
HETATM   27  C   UNK     0      12.125  35.426  12.353  0.00  0.00     0.068 A 
HETATM   28  C   UNK     0      11.261  34.336  12.460  0.00  0.00     0.039 A 
HETATM   29  C   UNK     0      10.460  34.191  13.593  0.00  0.00     0.034 A 
BRANCH  27  30
HETATM   30  O   UNK     0      12.907  35.568  11.247  0.00  0.00    -0.356 OA
HETATM   31  C   UNK     0      13.211  34.385  10.510  0.00  0.00     0.210 C 
ENDBRANCH  27  30
ENDBRANCH   3  24
BRANCH  10  32
HETATM   32  C   UNK     0       6.806  35.812  17.439  0.00  0.00     0.270 C 
HETATM   33  O   UNK     0       5.757  35.136  17.476  0.00  0.00    -0.266 OA
HETATM   34  N   UNK     0       6.770  37.141  17.864  0.00  0.00    -0.365 N 
HETATM   35  H   UNK     0       7.596  37.730  17.863  0.00  0.00     0.159 HD
HETATM   36  H   UNK     0       5.906  37.559  18.191  0.00  0.00     0.159 HD
ENDBRANCH  10  32
TORSDOF 5
ENDMDL
