MODEL 1
REMARK VINA RESULT:      -7.6      0.000      0.000
REMARK  5 active torsions:
REMARK  status: ('A' for Active; 'I' for Inactive)
REMARK    1  A    between atoms: O_4  and  C_33 
REMARK    2  A    between atoms: N_5  and  C_19 
REMARK    3  A    between atoms: N_6  and  C_20 
REMARK    4  A    between atoms: N_7  and  C_27 
REMARK       I    between atoms: N_9  and  C_28 
REMARK    5  A    between atoms: C_22  and  C_28 
ROOT
HETATM    1  O   UNK     0      11.034  11.585   3.292  0.00  0.00    -0.265 OA
HETATM    2  N   UNK     0      10.239   9.930   4.776  0.00  0.00    -0.312 N 
HETATM    3  N   UNK     0       9.320  13.534   4.666  0.00  0.00    -0.227 N 
HETATM    4  N   UNK     0       8.510  14.160   5.542  0.00  0.00    -0.161 NA
HETATM    5  C   UNK     0       8.847  10.661   6.770  0.00  0.00     0.064 C 
HETATM    6  C   UNK     0       9.134   9.579   5.715  0.00  0.00     0.137 C 
HETATM    7  C   UNK     0       8.833  11.982   6.119  0.00  0.00     0.014 A 
HETATM    8  C   UNK     0       9.540  12.220   4.965  0.00  0.00     0.136 A 
HETATM    9  C   UNK     0      10.348  11.255   4.257  0.00  0.00     0.277 C 
HETATM   10  C   UNK     0       8.218  13.204   6.430  0.00  0.00     0.153 A 
ENDROOT
BRANCH   2  11
HETATM   11  C   UNK     0      11.062   8.861   4.267  0.00  0.00     0.037 A 
HETATM   12  C   UNK     0      12.357   8.698   4.748  0.00  0.00     0.032 A 
HETATM   13  C   UNK     0      13.154   7.664   4.255  0.00  0.00     0.032 A 
HETATM   14  C   UNK     0      12.651   6.798   3.284  0.00  0.00     0.037 A 
HETATM   15  C   UNK     0      11.351   6.967   2.805  0.00  0.00     0.032 A 
HETATM   16  C   UNK     0      10.555   8.000   3.299  0.00  0.00     0.032 A 
BRANCH  14  17
HETATM   17  N   UNK     0      13.476   5.726   2.772  0.00  0.00    -0.318 N 
HETATM   18  C   UNK     0      13.061   4.347   3.078  0.00  0.00     0.132 C 
HETATM   19  C   UNK     0      14.185   3.326   3.008  0.00  0.00     0.021 C 
HETATM   20  C   UNK     0      14.908   3.473   1.688  0.00  0.00     0.011 C 
HETATM   21  C   UNK     0      15.500   4.863   1.610  0.00  0.00     0.103 C 
HETATM   22  C   UNK     0      14.506   5.987   1.851  0.00  0.00     0.224 C 
HETATM   23  O   UNK     0      14.698   7.063   1.277  0.00  0.00    -0.273 OA
ENDBRANCH  14  17
ENDBRANCH   2  11
BRANCH   3  24
HETATM   24  C   UNK     0       9.829  14.245   3.578  0.00  0.00     0.059 A 
HETATM   25  C   UNK     0       9.153  14.216   2.366  0.00  0.00     0.034 A 
HETATM   26  C   UNK     0       9.663  14.926   1.277  0.00  0.00     0.039 A 
HETATM   27  C   UNK     0      10.841  15.659   1.412  0.00  0.00     0.068 A 
HETATM   28  C   UNK     0      11.511  15.683   2.636  0.00  0.00     0.039 A 
HETATM   29  C   UNK     0      11.003  14.972   3.723  0.00  0.00     0.034 A 
BRANCH  27  30
HETATM   30  O   UNK     0      11.337  16.353   0.351  0.00  0.00    -0.356 OA
HETATM   31  C   UNK     0      12.725  16.683   0.382  0.00  0.00     0.210 C 
ENDBRANCH  27  30
ENDBRANCH   3  24
BRANCH  10  32
HETATM   32  C   UNK     0       7.365  13.507   7.544  0.00  0.00     0.270 C 
HETATM   33  O   UNK     0       7.703  13.335   8.734  0.00  0.00    -0.266 OA
HETATM   34  N   UNK     0       6.105  14.041   7.269  0.00  0.00    -0.365 N 
HETATM   35  H   UNK     0       5.785  14.208   6.321  0.00  0.00     0.159 HD
HETATM   36  H   UNK     0       5.465  14.279   8.020  0.00  0.00     0.159 HD
ENDBRANCH  10  32
TORSDOF 5
ENDMDL
MODEL 2
REMARK VINA RESULT:      -7.4      5.691      8.479
REMARK  5 active torsions:
REMARK  status: ('A' for Active; 'I' for Inactive)
REMARK    1  A    between atoms: O_4  and  C_33 
REMARK    2  A    between atoms: N_5  and  C_19 
REMARK    3  A    between atoms: N_6  and  C_20 
REMARK    4  A    between atoms: N_7  and  C_27 
REMARK       I    between atoms: N_9  and  C_28 
REMARK    5  A    between atoms: C_22  and  C_28 
ROOT
HETATM    1  O   UNK     0       9.481  13.310   8.224  0.00  0.00    -0.265 OA
HETATM    2  N   UNK     0       7.404  13.285   7.103  0.00  0.00    -0.312 N 
HETATM    3  N   UNK     0       8.107  12.354  10.637  0.00  0.00    -0.227 N 
HETATM    4  N   UNK     0       7.207  11.854  11.505  0.00  0.00    -0.161 NA
HETATM    5  C   UNK     0       5.419  12.199   8.258  0.00  0.00     0.064 C 
HETATM    6  C   UNK     0       5.926  13.291   7.299  0.00  0.00     0.137 C 
HETATM    7  C   UNK     0       6.293  12.152   9.442  0.00  0.00     0.014 A 
HETATM    8  C   UNK     0       7.604  12.558   9.384  0.00  0.00     0.136 A 
HETATM    9  C   UNK     0       8.276  13.073   8.213  0.00  0.00     0.277 C 
HETATM   10  C   UNK     0       6.099  11.730  10.767  0.00  0.00     0.153 A 
ENDROOT
BRANCH   2  11
HETATM   11  C   UNK     0       7.920  13.685   5.818  0.00  0.00     0.037 A 
HETATM   12  C   UNK     0       7.667  14.969   5.342  0.00  0.00     0.032 A 
HETATM   13  C   UNK     0       8.164  15.356   4.097  0.00  0.00     0.032 A 
HETATM   14  C   UNK     0       8.913  14.459   3.335  0.00  0.00     0.037 A 
HETATM   15  C   UNK     0       9.163  13.174   3.818  0.00  0.00     0.032 A 
HETATM   16  C   UNK     0       8.666  12.787   5.062  0.00  0.00     0.032 A 
BRANCH  14  17
HETATM   17  N   UNK     0       9.429  14.860   2.045  0.00  0.00    -0.318 N 
HETATM   18  C   UNK     0      10.867  15.164   1.956  0.00  0.00     0.132 C 
HETATM   19  C   UNK     0      11.243  16.067   0.792  0.00  0.00     0.021 C 
HETATM   20  C   UNK     0      10.653  15.507  -0.482  0.00  0.00     0.011 C 
HETATM   21  C   UNK     0       9.146  15.479  -0.348  0.00  0.00     0.103 C 
HETATM   22  C   UNK     0       8.635  14.759   0.889  0.00  0.00     0.224 C 
HETATM   23  O   UNK     0       7.542  14.191   0.818  0.00  0.00    -0.273 OA
ENDBRANCH  14  17
ENDBRANCH   2  11
BRANCH   3  24
HETATM   24  C   UNK     0       9.405  12.618  11.075  0.00  0.00     0.059 A 
HETATM   25  C   UNK     0       9.728  13.888  11.535  0.00  0.00     0.034 A 
HETATM   26  C   UNK     0      11.027  14.152  11.972  0.00  0.00     0.039 A 
HETATM   27  C   UNK     0      11.990  13.145  11.946  0.00  0.00     0.068 A 
HETATM   28  C   UNK     0      11.655  11.871  11.483  0.00  0.00     0.039 A 
HETATM   29  C   UNK     0      10.357  11.608  11.045  0.00  0.00     0.034 A 
BRANCH  27  30
HETATM   30  O   UNK     0      13.256  13.402  12.373  0.00  0.00    -0.356 OA
HETATM   31  C   UNK     0      14.282  13.439  11.382  0.00  0.00     0.210 C 
ENDBRANCH  27  30
ENDBRANCH   3  24
BRANCH  10  32
HETATM   32  C   UNK     0       4.903  11.206  11.362  0.00  0.00     0.270 C 
HETATM   33  O   UNK     0       4.772  10.012  11.700  0.00  0.00    -0.266 OA
HETATM   34  N   UNK     0       3.850  12.094  11.589  0.00  0.00    -0.365 N 
HETATM   35  H   UNK     0       3.909  13.076  11.341  0.00  0.00     0.159 HD
HETATM   36  H   UNK     0       2.985  11.777  12.014  0.00  0.00     0.159 HD
ENDBRANCH  10  32
TORSDOF 5
ENDMDL
MODEL 3
REMARK VINA RESULT:      -7.4      4.678      8.208
REMARK  5 active torsions:
REMARK  status: ('A' for Active; 'I' for Inactive)
REMARK    1  A    between atoms: O_4  and  C_33 
REMARK    2  A    between atoms: N_5  and  C_19 
REMARK    3  A    between atoms: N_6  and  C_20 
REMARK    4  A    between atoms: N_7  and  C_27 
REMARK       I    between atoms: N_9  and  C_28 
REMARK    5  A    between atoms: C_22  and  C_28 
ROOT
HETATM    1  O   UNK     0       8.587  13.349   7.214  0.00  0.00    -0.265 OA
HETATM    2  N   UNK     0       8.717  11.733   5.499  0.00  0.00    -0.312 N 
HETATM    3  N   UNK     0       7.722  11.225   9.048  0.00  0.00    -0.227 N 
HETATM    4  N   UNK     0       7.439  10.038   9.617  0.00  0.00    -0.161 NA
HETATM    5  C   UNK     0       8.491   9.282   6.126  0.00  0.00     0.064 C 
HETATM    6  C   UNK     0       8.251  10.380   5.076  0.00  0.00     0.137 C 
HETATM    7  C   UNK     0       8.098   9.786   7.453  0.00  0.00     0.014 A 
HETATM    8  C   UNK     0       8.116  11.129   7.744  0.00  0.00     0.136 A 
HETATM    9  C   UNK     0       8.496  12.184   6.835  0.00  0.00     0.277 C 
HETATM   10  C   UNK     0       7.674   9.160   8.635  0.00  0.00     0.153 A 
ENDROOT
BRANCH   2  11
HETATM   11  C   UNK     0       9.214  12.627   4.483  0.00  0.00     0.037 A 
HETATM   12  C   UNK     0       8.491  13.771   4.157  0.00  0.00     0.032 A 
HETATM   13  C   UNK     0       8.970  14.637   3.173  0.00  0.00     0.032 A 
HETATM   14  C   UNK     0      10.171  14.354   2.521  0.00  0.00     0.037 A 
HETATM   15  C   UNK     0      10.891  13.206   2.852  0.00  0.00     0.032 A 
HETATM   16  C   UNK     0      10.412  12.341   3.837  0.00  0.00     0.032 A 
BRANCH  14  17
HETATM   17  N   UNK     0      10.669  15.251   1.502  0.00  0.00    -0.318 N 
HETATM   18  C   UNK     0       9.899  15.349   0.250  0.00  0.00     0.132 C 
HETATM   19  C   UNK     0      10.703  15.841  -0.942  0.00  0.00     0.021 C 
HETATM   20  C   UNK     0      11.426  17.114  -0.562  0.00  0.00     0.011 C 
HETATM   21  C   UNK     0      12.372  16.814   0.580  0.00  0.00     0.103 C 
HETATM   22  C   UNK     0      11.722  16.141   1.778  0.00  0.00     0.224 C 
HETATM   23  O   UNK     0      12.193  16.369   2.896  0.00  0.00    -0.273 OA
ENDBRANCH  14  17
ENDBRANCH   2  11
BRANCH   3  24
HETATM   24  C   UNK     0       7.583  12.393   9.800  0.00  0.00     0.059 A 
HETATM   25  C   UNK     0       6.344  13.013   9.878  0.00  0.00     0.034 A 
HETATM   26  C   UNK     0       6.206  14.182  10.629  0.00  0.00     0.039 A 
HETATM   27  C   UNK     0       7.307  14.717  11.296  0.00  0.00     0.068 A 
HETATM   28  C   UNK     0       8.548  14.085  11.212  0.00  0.00     0.039 A 
HETATM   29  C   UNK     0       8.687  12.918  10.461  0.00  0.00     0.034 A 
BRANCH  27  30
HETATM   30  O   UNK     0       7.172  15.856  12.029  0.00  0.00    -0.356 OA
HETATM   31  C   UNK     0       8.289  16.742  12.065  0.00  0.00     0.210 C 
ENDBRANCH  27  30
ENDBRANCH   3  24
BRANCH  10  32
HETATM   32  C   UNK     0       7.488   7.758   8.876  0.00  0.00     0.270 C 
HETATM   33  O   UNK     0       6.482   7.124   8.494  0.00  0.00    -0.266 OA
HETATM   34  N   UNK     0       8.501   7.076   9.552  0.00  0.00    -0.365 N 
HETATM   35  H   UNK     0       9.342   7.543   9.876  0.00  0.00     0.159 HD
HETATM   36  H   UNK     0       8.423   6.083   9.742  0.00  0.00     0.159 HD
ENDBRANCH  10  32
TORSDOF 5
ENDMDL
