MODEL 1
REMARK VINA RESULT:     -10.2      0.000      0.000
REMARK  5 active torsions:
REMARK  status: ('A' for Active; 'I' for Inactive)
REMARK    1  A    between atoms: O_4  and  C_33 
REMARK    2  A    between atoms: N_5  and  C_19 
REMARK    3  A    between atoms: N_6  and  C_20 
REMARK    4  A    between atoms: N_7  and  C_27 
REMARK       I    between atoms: N_9  and  C_28 
REMARK    5  A    between atoms: C_22  and  C_28 
ROOT
HETATM    1  O   UNK     0      49.649  -6.188  32.749  0.00  0.00    -0.265 OA
HETATM    2  N   UNK     0      50.916  -5.221  31.009  0.00  0.00    -0.312 N 
HETATM    3  N   UNK     0      48.778  -3.490  33.515  0.00  0.00    -0.227 N 
HETATM    4  N   UNK     0      48.521  -2.169  33.542  0.00  0.00    -0.161 NA
HETATM    5  C   UNK     0      50.588  -2.754  30.501  0.00  0.00     0.064 C 
HETATM    6  C   UNK     0      51.548  -3.956  30.535  0.00  0.00     0.137 C 
HETATM    7  C   UNK     0      49.797  -2.731  31.742  0.00  0.00     0.014 A 
HETATM    8  C   UNK     0      49.548  -3.878  32.456  0.00  0.00     0.136 A 
HETATM    9  C   UNK     0      50.011  -5.202  32.112  0.00  0.00     0.277 C 
HETATM   10  C   UNK     0      49.146  -1.710  32.452  0.00  0.00     0.153 A 
ENDROOT
BRANCH   2  11
HETATM   11  C   UNK     0      51.390  -6.465  30.455  0.00  0.00     0.037 A 
HETATM   12  C   UNK     0      51.040  -7.668  31.061  0.00  0.00     0.032 A 
HETATM   13  C   UNK     0      51.499  -8.872  30.526  0.00  0.00     0.032 A 
HETATM   14  C   UNK     0      52.305  -8.867  29.387  0.00  0.00     0.037 A 
HETATM   15  C   UNK     0      52.652  -7.658  28.784  0.00  0.00     0.032 A 
HETATM   16  C   UNK     0      52.192  -6.454  29.319  0.00  0.00     0.032 A 
BRANCH  14  17
HETATM   17  N   UNK     0      52.781 -10.114  28.832  0.00  0.00    -0.318 N 
HETATM   18  C   UNK     0      53.525 -11.016  29.728  0.00  0.00     0.132 C 
HETATM   19  C   UNK     0      54.437 -11.997  29.010  0.00  0.00     0.021 C 
HETATM   20  C   UNK     0      53.650 -12.711  27.934  0.00  0.00     0.011 C 
HETATM   21  C   UNK     0      53.148 -11.688  26.939  0.00  0.00     0.103 C 
HETATM   22  C   UNK     0      52.370 -10.537  27.555  0.00  0.00     0.224 C 
HETATM   23  O   UNK     0      51.479 -10.014  26.880  0.00  0.00    -0.273 OA
ENDBRANCH  14  17
ENDBRANCH   2  11
BRANCH   3  24
HETATM   24  C   UNK     0      48.270  -4.305  34.528  0.00  0.00     0.059 A 
HETATM   25  C   UNK     0      48.946  -4.397  35.737  0.00  0.00     0.034 A 
HETATM   26  C   UNK     0      48.439  -5.212  36.749  0.00  0.00     0.039 A 
HETATM   27  C   UNK     0      47.260  -5.927  36.544  0.00  0.00     0.068 A 
HETATM   28  C   UNK     0      46.587  -5.828  35.325  0.00  0.00     0.039 A 
HETATM   29  C   UNK     0      47.095  -5.013  34.313  0.00  0.00     0.034 A 
BRANCH  27  30
HETATM   30  O   UNK     0      46.764  -6.722  37.532  0.00  0.00    -0.356 OA
HETATM   31  C   UNK     0      45.796  -7.700  37.154  0.00  0.00     0.210 C 
ENDBRANCH  27  30
ENDBRANCH   3  24
BRANCH  10  32
HETATM   32  C   UNK     0      49.086  -0.312  32.134  0.00  0.00     0.270 C 
HETATM   33  O   UNK     0      48.510   0.138  31.121  0.00  0.00    -0.266 OA
HETATM   34  N   UNK     0      49.687   0.581  33.023  0.00  0.00    -0.365 N 
HETATM   35  H   UNK     0      50.160   0.268  33.865  0.00  0.00     0.159 HD
HETATM   36  H   UNK     0      49.668   1.580  32.850  0.00  0.00     0.159 HD
ENDBRANCH  10  32
TORSDOF 5
ENDMDL
MODEL 2
REMARK VINA RESULT:     -10.1      5.041      8.745
REMARK  5 active torsions:
REMARK  status: ('A' for Active; 'I' for Inactive)
REMARK    1  A    between atoms: O_4  and  C_33 
REMARK    2  A    between atoms: N_5  and  C_19 
REMARK    3  A    between atoms: N_6  and  C_20 
REMARK    4  A    between atoms: N_7  and  C_27 
REMARK       I    between atoms: N_9  and  C_28 
REMARK    5  A    between atoms: C_22  and  C_28 
ROOT
HETATM    1  O   UNK     0      48.428  -7.625  36.805  0.00  0.00    -0.265 OA
HETATM    2  N   UNK     0      46.653  -6.363  35.894  0.00  0.00    -0.312 N 
HETATM    3  N   UNK     0      46.439  -9.273  38.204  0.00  0.00    -0.227 N 
HETATM    4  N   UNK     0      45.299  -9.858  38.618  0.00  0.00    -0.161 NA
HETATM    5  C   UNK     0      44.280  -7.215  36.202  0.00  0.00     0.064 C 
HETATM    6  C   UNK     0      45.216  -6.001  36.065  0.00  0.00     0.137 C 
HETATM    7  C   UNK     0      44.882  -8.189  37.127  0.00  0.00     0.014 A 
HETATM    8  C   UNK     0      46.242  -8.258  37.312  0.00  0.00     0.136 A 
HETATM    9  C   UNK     0      47.224  -7.421  36.663  0.00  0.00     0.277 C 
HETATM   10  C   UNK     0      44.350  -9.191  37.953  0.00  0.00     0.153 A 
ENDROOT
BRANCH   2  11
HETATM   11  C   UNK     0      47.478  -5.500  35.087  0.00  0.00     0.037 A 
HETATM   12  C   UNK     0      48.057  -4.368  35.654  0.00  0.00     0.032 A 
HETATM   13  C   UNK     0      48.855  -3.532  34.873  0.00  0.00     0.032 A 
HETATM   14  C   UNK     0      49.071  -3.832  33.527  0.00  0.00     0.037 A 
HETATM   15  C   UNK     0      48.488  -4.968  32.963  0.00  0.00     0.032 A 
HETATM   16  C   UNK     0      47.691  -5.804  33.746  0.00  0.00     0.032 A 
BRANCH  14  17
HETATM   17  N   UNK     0      49.898  -2.966  32.716  0.00  0.00    -0.318 N 
HETATM   18  C   UNK     0      51.236  -3.458  32.347  0.00  0.00     0.132 C 
HETATM   19  C   UNK     0      52.228  -2.363  31.992  0.00  0.00     0.021 C 
HETATM   20  C   UNK     0      51.606  -1.443  30.965  0.00  0.00     0.011 C 
HETATM   21  C   UNK     0      50.369  -0.811  31.565  0.00  0.00     0.103 C 
HETATM   22  C   UNK     0      49.367  -1.801  32.134  0.00  0.00     0.224 C 
HETATM   23  O   UNK     0      48.171  -1.497  32.105  0.00  0.00    -0.273 OA
ENDBRANCH  14  17
ENDBRANCH   2  11
BRANCH   3  24
HETATM   24  C   UNK     0      47.661  -9.725  38.706  0.00  0.00     0.059 A 
HETATM   25  C   UNK     0      48.350 -10.724  38.033  0.00  0.00     0.034 A 
HETATM   26  C   UNK     0      49.570 -11.177  38.536  0.00  0.00     0.039 A 
HETATM   27  C   UNK     0      50.090 -10.625  39.706  0.00  0.00     0.068 A 
HETATM   28  C   UNK     0      49.390  -9.620  40.374  0.00  0.00     0.039 A 
HETATM   29  C   UNK     0      48.170  -9.168  39.872  0.00  0.00     0.034 A 
BRANCH  27  30
HETATM   30  O   UNK     0      51.282 -11.065  40.196  0.00  0.00    -0.356 OA
HETATM   31  C   UNK     0      52.464 -10.481  39.652  0.00  0.00     0.210 C 
ENDBRANCH  27  30
ENDBRANCH   3  24
BRANCH  10  32
HETATM   32  C   UNK     0      42.972  -9.548  38.133  0.00  0.00     0.270 C 
HETATM   33  O   UNK     0      42.025  -8.764  37.914  0.00  0.00    -0.266 OA
HETATM   34  N   UNK     0      42.689 -10.850  38.553  0.00  0.00    -0.365 N 
HETATM   35  H   UNK     0      43.421 -11.528  38.735  0.00  0.00     0.159 HD
HETATM   36  H   UNK     0      41.732 -11.156  38.688  0.00  0.00     0.159 HD
ENDBRANCH  10  32
TORSDOF 5
ENDMDL
MODEL 3
REMARK VINA RESULT:      -9.7      4.525      7.869
REMARK  5 active torsions:
REMARK  status: ('A' for Active; 'I' for Inactive)
REMARK    1  A    between atoms: O_4  and  C_33 
REMARK    2  A    between atoms: N_5  and  C_19 
REMARK    3  A    between atoms: N_6  and  C_20 
REMARK    4  A    between atoms: N_7  and  C_27 
REMARK       I    between atoms: N_9  and  C_28 
REMARK    5  A    between atoms: C_22  and  C_28 
ROOT
HETATM    1  O   UNK     0      49.162  -7.661  36.249  0.00  0.00    -0.265 OA
HETATM    2  N   UNK     0      51.428  -7.433  35.628  0.00  0.00    -0.312 N 
HETATM    3  N   UNK     0      50.027  -9.311  38.519  0.00  0.00    -0.227 N 
HETATM    4  N   UNK     0      50.751  -9.935  39.468  0.00  0.00    -0.161 NA
HETATM    5  C   UNK     0      53.212  -8.251  37.239  0.00  0.00     0.064 C 
HETATM    6  C   UNK     0      52.787  -8.029  35.777  0.00  0.00     0.137 C 
HETATM    7  C   UNK     0      52.090  -8.844  37.985  0.00  0.00     0.014 A 
HETATM    8  C   UNK     0      50.787  -8.647  37.599  0.00  0.00     0.136 A 
HETATM    9  C   UNK     0      50.354  -7.875  36.458  0.00  0.00     0.277 C 
HETATM   10  C   UNK     0      52.013  -9.643  39.137  0.00  0.00     0.153 A 
ENDROOT
BRANCH   2  11
HETATM   11  C   UNK     0      51.192  -6.555  34.509  0.00  0.00     0.037 A 
HETATM   12  C   UNK     0      50.677  -7.070  33.323  0.00  0.00     0.032 A 
HETATM   13  C   UNK     0      50.449  -6.221  32.240  0.00  0.00     0.032 A 
HETATM   14  C   UNK     0      50.737  -4.860  32.348  0.00  0.00     0.037 A 
HETATM   15  C   UNK     0      51.253  -4.349  33.540  0.00  0.00     0.032 A 
HETATM   16  C   UNK     0      51.480  -5.199  34.623  0.00  0.00     0.032 A 
BRANCH  14  17
HETATM   17  N   UNK     0      50.502  -3.979  31.227  0.00  0.00    -0.318 N 
HETATM   18  C   UNK     0      51.389  -4.115  30.059  0.00  0.00     0.132 C 
HETATM   19  C   UNK     0      51.466  -2.875  29.184  0.00  0.00     0.021 C 
HETATM   20  C   UNK     0      50.064  -2.420  28.842  0.00  0.00     0.011 C 
HETATM   21  C   UNK     0      49.340  -2.074  30.124  0.00  0.00     0.103 C 
HETATM   22  C   UNK     0      49.349  -3.174  31.172  0.00  0.00     0.224 C 
HETATM   23  O   UNK     0      48.385  -3.253  31.938  0.00  0.00    -0.273 OA
ENDBRANCH  14  17
ENDBRANCH   2  11
BRANCH   3  24
HETATM   24  C   UNK     0      48.635  -9.404  38.550  0.00  0.00     0.059 A 
HETATM   25  C   UNK     0      47.880  -8.275  38.837  0.00  0.00     0.034 A 
HETATM   26  C   UNK     0      46.488  -8.367  38.869  0.00  0.00     0.039 A 
HETATM   27  C   UNK     0      45.864  -9.587  38.614  0.00  0.00     0.068 A 
HETATM   28  C   UNK     0      46.632 -10.717  38.325  0.00  0.00     0.039 A 
HETATM   29  C   UNK     0      48.023 -10.624  38.294  0.00  0.00     0.034 A 
BRANCH  27  30
HETATM   30  O   UNK     0      44.506  -9.678  38.644  0.00  0.00    -0.356 OA
HETATM   31  C   UNK     0      43.779  -8.851  37.736  0.00  0.00     0.210 C 
ENDBRANCH  27  30
ENDBRANCH   3  24
BRANCH  10  32
HETATM   32  C   UNK     0      53.092 -10.137  39.944  0.00  0.00     0.270 C 
HETATM   33  O   UNK     0      53.586 -11.276  39.807  0.00  0.00    -0.266 OA
HETATM   34  N   UNK     0      53.621  -9.282  40.913  0.00  0.00    -0.365 N 
HETATM   35  H   UNK     0      53.262  -8.344  41.058  0.00  0.00     0.159 HD
HETATM   36  H   UNK     0      54.389  -9.579  41.505  0.00  0.00     0.159 HD
ENDBRANCH  10  32
TORSDOF 5
ENDMDL
