MODEL 1
REMARK VINA RESULT:     -11.1      0.000      0.000
REMARK  5 active torsions:
REMARK  status: ('A' for Active; 'I' for Inactive)
REMARK    1  A    between atoms: O_4  and  C_33 
REMARK    2  A    between atoms: N_5  and  C_19 
REMARK    3  A    between atoms: N_6  and  C_20 
REMARK    4  A    between atoms: N_7  and  C_27 
REMARK       I    between atoms: N_9  and  C_28 
REMARK    5  A    between atoms: C_22  and  C_28 
ROOT
HETATM    1  O   UNK     0     -23.366 -14.868  30.962  0.00  0.00    -0.265 OA
HETATM    2  N   UNK     0     -24.852 -14.888  29.128  0.00  0.00    -0.312 N 
HETATM    3  N   UNK     0     -25.369 -16.361  32.505  0.00  0.00    -0.227 N 
HETATM    4  N   UNK     0     -26.437 -17.089  32.884  0.00  0.00    -0.161 NA
HETATM    5  C   UNK     0     -26.929 -16.342  29.270  0.00  0.00     0.064 C 
HETATM    6  C   UNK     0     -26.280 -15.054  28.732  0.00  0.00     0.137 C 
HETATM    7  C   UNK     0     -26.559 -16.517  30.684  0.00  0.00     0.014 A 
HETATM    8  C   UNK     0     -25.398 -15.986  31.193  0.00  0.00     0.136 A 
HETATM    9  C   UNK     0     -24.430 -15.211  30.452  0.00  0.00     0.277 C 
HETATM   10  C   UNK     0     -27.160 -17.183  31.763  0.00  0.00     0.153 A 
ENDROOT
BRANCH   2  11
HETATM   11  C   UNK     0     -23.966 -14.219  28.207  0.00  0.00     0.037 A 
HETATM   12  C   UNK     0     -24.293 -14.160  26.855  0.00  0.00     0.032 A 
HETATM   13  C   UNK     0     -23.436 -13.513  25.964  0.00  0.00     0.032 A 
HETATM   14  C   UNK     0     -22.257 -12.929  26.428  0.00  0.00     0.037 A 
HETATM   15  C   UNK     0     -21.935 -12.992  27.785  0.00  0.00     0.032 A 
HETATM   16  C   UNK     0     -22.793 -13.638  28.676  0.00  0.00     0.032 A 
BRANCH  14  17
HETATM   17  N   UNK     0     -21.368 -12.259  25.506  0.00  0.00    -0.318 N 
HETATM   18  C   UNK     0     -19.928 -12.284  25.812  0.00  0.00     0.132 C 
HETATM   19  C   UNK     0     -19.132 -11.163  25.164  0.00  0.00     0.021 C 
HETATM   20  C   UNK     0     -19.446 -11.121  23.685  0.00  0.00     0.011 C 
HETATM   21  C   UNK     0     -20.922 -10.842  23.509  0.00  0.00     0.103 C 
HETATM   22  C   UNK     0     -21.839 -11.788  24.267  0.00  0.00     0.224 C 
HETATM   23  O   UNK     0     -22.947 -12.032  23.782  0.00  0.00    -0.273 OA
ENDBRANCH  14  17
ENDBRANCH   2  11
BRANCH   3  24
HETATM   24  C   UNK     0     -24.381 -16.059  33.444  0.00  0.00     0.059 A 
HETATM   25  C   UNK     0     -23.339 -16.952  33.652  0.00  0.00     0.034 A 
HETATM   26  C   UNK     0     -22.352 -16.650  34.591  0.00  0.00     0.039 A 
HETATM   27  C   UNK     0     -22.416 -15.459  35.312  0.00  0.00     0.068 A 
HETATM   28  C   UNK     0     -23.468 -14.568  35.096  0.00  0.00     0.039 A 
HETATM   29  C   UNK     0     -24.455 -14.870  34.158  0.00  0.00     0.034 A 
BRANCH  27  30
HETATM   30  O   UNK     0     -21.452 -15.164  36.228  0.00  0.00    -0.356 OA
HETATM   31  C   UNK     0     -20.727 -16.259  36.784  0.00  0.00     0.210 C 
ENDBRANCH  27  30
ENDBRANCH   3  24
BRANCH  10  32
HETATM   32  C   UNK     0     -28.395 -17.914  31.773  0.00  0.00     0.270 C 
HETATM   33  O   UNK     0     -29.504 -17.392  31.534  0.00  0.00    -0.266 OA
HETATM   34  N   UNK     0     -28.336 -19.283  32.042  0.00  0.00    -0.365 N 
HETATM   35  H   UNK     0     -27.460 -19.758  32.233  0.00  0.00     0.159 HD
HETATM   36  H   UNK     0     -29.178 -19.848  32.054  0.00  0.00     0.159 HD
ENDBRANCH  10  32
TORSDOF 5
ENDMDL
MODEL 2
REMARK VINA RESULT:     -10.9      3.555      7.535
REMARK  5 active torsions:
REMARK  status: ('A' for Active; 'I' for Inactive)
REMARK    1  A    between atoms: O_4  and  C_33 
REMARK    2  A    between atoms: N_5  and  C_19 
REMARK    3  A    between atoms: N_6  and  C_20 
REMARK    4  A    between atoms: N_7  and  C_27 
REMARK       I    between atoms: N_9  and  C_28 
REMARK    5  A    between atoms: C_22  and  C_28 
ROOT
HETATM    1  O   UNK     0     -24.830 -15.041  28.531  0.00  0.00    -0.265 OA
HETATM    2  N   UNK     0     -26.555 -15.838  29.931  0.00  0.00    -0.312 N 
HETATM    3  N   UNK     0     -23.018 -15.123  30.841  0.00  0.00    -0.227 N 
HETATM    4  N   UNK     0     -22.461 -15.355  32.045  0.00  0.00    -0.161 NA
HETATM    5  C   UNK     0     -25.946 -16.645  32.261  0.00  0.00     0.064 C 
HETATM    6  C   UNK     0     -26.992 -15.977  31.350  0.00  0.00     0.137 C 
HETATM    7  C   UNK     0     -24.620 -16.070  31.979  0.00  0.00     0.014 A 
HETATM    8  C   UNK     0     -24.319 -15.529  30.752  0.00  0.00     0.136 A 
HETATM    9  C   UNK     0     -25.218 -15.443  29.625  0.00  0.00     0.277 C 
HETATM   10  C   UNK     0     -23.446 -15.937  32.736  0.00  0.00     0.153 A 
ENDROOT
BRANCH   2  11
HETATM   11  C   UNK     0     -27.560 -15.925  28.901  0.00  0.00     0.037 A 
HETATM   12  C   UNK     0     -28.720 -15.163  29.001  0.00  0.00     0.032 A 
HETATM   13  C   UNK     0     -29.693 -15.247  28.005  0.00  0.00     0.032 A 
HETATM   14  C   UNK     0     -29.501 -16.094  26.913  0.00  0.00     0.037 A 
HETATM   15  C   UNK     0     -28.336 -16.856  26.818  0.00  0.00     0.032 A 
HETATM   16  C   UNK     0     -27.363 -16.771  27.814  0.00  0.00     0.032 A 
BRANCH  14  17
HETATM   17  N   UNK     0     -30.509 -16.183  25.880  0.00  0.00    -0.318 N 
HETATM   18  C   UNK     0     -30.244 -15.480  24.613  0.00  0.00     0.132 C 
HETATM   19  C   UNK     0     -31.491 -15.148  23.810  0.00  0.00     0.021 C 
HETATM   20  C   UNK     0     -32.331 -16.396  23.658  0.00  0.00     0.011 C 
HETATM   21  C   UNK     0     -32.744 -16.875  25.032  0.00  0.00     0.103 C 
HETATM   22  C   UNK     0     -31.593 -17.070  26.005  0.00  0.00     0.224 C 
HETATM   23  O   UNK     0     -31.707 -17.944  26.870  0.00  0.00    -0.273 OA
ENDBRANCH  14  17
ENDBRANCH   2  11
BRANCH   3  24
HETATM   24  C   UNK     0     -22.260 -14.509  29.843  0.00  0.00     0.059 A 
HETATM   25  C   UNK     0     -20.943 -14.902  29.645  0.00  0.00     0.034 A 
HETATM   26  C   UNK     0     -20.184 -14.287  28.648  0.00  0.00     0.039 A 
HETATM   27  C   UNK     0     -20.749 -13.287  27.859  0.00  0.00     0.068 A 
HETATM   28  C   UNK     0     -22.074 -12.900  28.065  0.00  0.00     0.039 A 
HETATM   29  C   UNK     0     -22.832 -13.514  29.062  0.00  0.00     0.034 A 
BRANCH  27  30
HETATM   30  O   UNK     0     -20.010 -12.688  26.885  0.00  0.00    -0.356 OA
HETATM   31  C   UNK     0     -20.712 -12.197  25.745  0.00  0.00     0.210 C 
ENDBRANCH  27  30
ENDBRANCH   3  24
BRANCH  10  32
HETATM   32  C   UNK     0     -23.217 -16.347  34.092  0.00  0.00     0.270 C 
HETATM   33  O   UNK     0     -23.610 -15.695  35.082  0.00  0.00    -0.266 OA
HETATM   34  N   UNK     0     -22.539 -17.550  34.299  0.00  0.00    -0.365 N 
HETATM   35  H   UNK     0     -22.207 -18.122  33.529  0.00  0.00     0.159 HD
HETATM   36  H   UNK     0     -22.358 -17.890  35.238  0.00  0.00     0.159 HD
ENDBRANCH  10  32
TORSDOF 5
ENDMDL
MODEL 3
REMARK VINA RESULT:     -10.6      2.556      5.641
REMARK  5 active torsions:
REMARK  status: ('A' for Active; 'I' for Inactive)
REMARK    1  A    between atoms: O_4  and  C_33 
REMARK    2  A    between atoms: N_5  and  C_19 
REMARK    3  A    between atoms: N_6  and  C_20 
REMARK    4  A    between atoms: N_7  and  C_27 
REMARK       I    between atoms: N_9  and  C_28 
REMARK    5  A    between atoms: C_22  and  C_28 
ROOT
HETATM    1  O   UNK     0     -26.668 -14.513  28.133  0.00  0.00    -0.265 OA
HETATM    2  N   UNK     0     -24.658 -14.868  29.318  0.00  0.00    -0.312 N 
HETATM    3  N   UNK     0     -28.110 -15.810  30.339  0.00  0.00    -0.227 N 
HETATM    4  N   UNK     0     -28.451 -16.361  31.519  0.00  0.00    -0.161 NA
HETATM    5  C   UNK     0     -24.796 -15.681  31.720  0.00  0.00     0.064 C 
HETATM    6  C   UNK     0     -24.016 -15.678  30.394  0.00  0.00     0.137 C 
HETATM    7  C   UNK     0     -26.228 -15.878  31.440  0.00  0.00     0.014 A 
HETATM    8  C   UNK     0     -26.782 -15.508  30.238  0.00  0.00     0.136 A 
HETATM    9  C   UNK     0     -26.072 -14.912  29.131  0.00  0.00     0.277 C 
HETATM   10  C   UNK     0     -27.295 -16.397  32.190  0.00  0.00     0.153 A 
ENDROOT
BRANCH   2  11
HETATM   11  C   UNK     0     -23.801 -14.204  28.367  0.00  0.00     0.037 A 
HETATM   12  C   UNK     0     -22.639 -13.575  28.806  0.00  0.00     0.032 A 
HETATM   13  C   UNK     0     -21.811 -12.931  27.887  0.00  0.00     0.032 A 
HETATM   14  C   UNK     0     -22.147 -12.919  26.533  0.00  0.00     0.037 A 
HETATM   15  C   UNK     0     -23.314 -13.551  26.099  0.00  0.00     0.032 A 
HETATM   16  C   UNK     0     -24.141 -14.196  27.018  0.00  0.00     0.032 A 
BRANCH  14  17
HETATM   17  N   UNK     0     -21.289 -12.253  25.579  0.00  0.00    -0.318 N 
HETATM   18  C   UNK     0     -19.843 -12.250  25.854  0.00  0.00     0.132 C 
HETATM   19  C   UNK     0     -19.078 -11.129  25.170  0.00  0.00     0.021 C 
HETATM   20  C   UNK     0     -19.424 -11.119  23.698  0.00  0.00     0.011 C 
HETATM   21  C   UNK     0     -20.908 -10.865  23.549  0.00  0.00     0.103 C 
HETATM   22  C   UNK     0     -21.794 -11.811  24.342  0.00  0.00     0.224 C 
HETATM   23  O   UNK     0     -22.908 -12.080  23.886  0.00  0.00    -0.273 OA
ENDBRANCH  14  17
ENDBRANCH   2  11
BRANCH   3  24
HETATM   24  C   UNK     0     -29.092 -15.617  29.366  0.00  0.00     0.059 A 
HETATM   25  C   UNK     0     -29.353 -16.625  28.448  0.00  0.00     0.034 A 
HETATM   26  C   UNK     0     -30.334 -16.432  27.474  0.00  0.00     0.039 A 
HETATM   27  C   UNK     0     -31.045 -15.234  27.429  0.00  0.00     0.068 A 
HETATM   28  C   UNK     0     -30.775 -14.227  28.357  0.00  0.00     0.039 A 
HETATM   29  C   UNK     0     -29.794 -14.420  29.329  0.00  0.00     0.034 A 
BRANCH  27  30
HETATM   30  O   UNK     0     -32.003 -15.045  26.480  0.00  0.00    -0.356 OA
HETATM   31  C   UNK     0     -31.561 -14.675  25.175  0.00  0.00     0.210 C 
ENDBRANCH  27  30
ENDBRANCH   3  24
BRANCH  10  32
HETATM   32  C   UNK     0     -27.263 -16.922  33.525  0.00  0.00     0.270 C 
HETATM   33  O   UNK     0     -27.029 -16.223  34.533  0.00  0.00    -0.266 OA
HETATM   34  N   UNK     0     -27.533 -18.282  33.693  0.00  0.00    -0.365 N 
HETATM   35  H   UNK     0     -27.738 -18.892  32.908  0.00  0.00     0.159 HD
HETATM   36  H   UNK     0     -27.531 -18.703  34.616  0.00  0.00     0.159 HD
ENDBRANCH  10  32
TORSDOF 5
ENDMDL
