MODEL 1
REMARK VINA RESULT:     -10.7      0.000      0.000
REMARK  5 active torsions:
REMARK  status: ('A' for Active; 'I' for Inactive)
REMARK    1  A    between atoms: O_4  and  C_33 
REMARK    2  A    between atoms: N_5  and  C_19 
REMARK    3  A    between atoms: N_6  and  C_20 
REMARK    4  A    between atoms: N_7  and  C_27 
REMARK       I    between atoms: N_9  and  C_28 
REMARK    5  A    between atoms: C_22  and  C_28 
ROOT
HETATM    1  O   UNK     0     -37.658  49.638  17.330  0.00  0.00    -0.265 OA
HETATM    2  N   UNK     0     -39.315  47.957  17.305  0.00  0.00    -0.312 N 
HETATM    3  N   UNK     0     -38.818  50.712  14.855  0.00  0.00    -0.227 N 
HETATM    4  N   UNK     0     -39.623  50.981  13.809  0.00  0.00    -0.161 NA
HETATM    5  C   UNK     0     -41.222  48.161  15.641  0.00  0.00     0.064 C 
HETATM    6  C   UNK     0     -40.289  47.233  16.438  0.00  0.00     0.137 C 
HETATM    7  C   UNK     0     -40.432  49.259  15.059  0.00  0.00     0.014 A 
HETATM    8  C   UNK     0     -39.257  49.680  15.634  0.00  0.00     0.136 A 
HETATM    9  C   UNK     0     -38.656  49.127  16.825  0.00  0.00     0.277 C 
HETATM   10  C   UNK     0     -40.611  50.089  13.942  0.00  0.00     0.153 A 
ENDROOT
BRANCH   2  11
HETATM   11  C   UNK     0     -38.923  47.338  18.547  0.00  0.00     0.037 A 
HETATM   12  C   UNK     0     -38.555  48.132  19.629  0.00  0.00     0.032 A 
HETATM   13  C   UNK     0     -38.174  47.534  20.830  0.00  0.00     0.032 A 
HETATM   14  C   UNK     0     -38.163  46.143  20.944  0.00  0.00     0.037 A 
HETATM   15  C   UNK     0     -38.533  45.352  19.856  0.00  0.00     0.032 A 
HETATM   16  C   UNK     0     -38.914  45.951  18.655  0.00  0.00     0.032 A 
BRANCH  14  17
HETATM   17  N   UNK     0     -37.768  45.522  22.188  0.00  0.00    -0.318 N 
HETATM   18  C   UNK     0     -38.831  44.927  23.016  0.00  0.00     0.132 C 
HETATM   19  C   UNK     0     -38.475  44.790  24.487  0.00  0.00     0.021 C 
HETATM   20  C   UNK     0     -37.137  44.096  24.611  0.00  0.00     0.011 C 
HETATM   21  C   UNK     0     -36.086  44.941  23.927  0.00  0.00     0.103 C 
HETATM   22  C   UNK     0     -36.410  45.312  22.490  0.00  0.00     0.224 C 
HETATM   23  O   UNK     0     -35.471  45.463  21.704  0.00  0.00    -0.273 OA
ENDBRANCH  14  17
ENDBRANCH   2  11
BRANCH   3  24
HETATM   24  C   UNK     0     -37.658  51.467  15.035  0.00  0.00     0.059 A 
HETATM   25  C   UNK     0     -37.735  52.700  15.668  0.00  0.00     0.034 A 
HETATM   26  C   UNK     0     -36.575  53.455  15.848  0.00  0.00     0.039 A 
HETATM   27  C   UNK     0     -35.350  52.970  15.394  0.00  0.00     0.068 A 
HETATM   28  C   UNK     0     -35.283  51.729  14.759  0.00  0.00     0.039 A 
HETATM   29  C   UNK     0     -36.442  50.975  14.579  0.00  0.00     0.034 A 
BRANCH  27  30
HETATM   30  O   UNK     0     -34.218  53.706  15.570  0.00  0.00    -0.356 OA
HETATM   31  C   UNK     0     -32.973  53.013  15.490  0.00  0.00     0.210 C 
ENDBRANCH  27  30
ENDBRANCH   3  24
BRANCH  10  32
HETATM   32  C   UNK     0     -41.688  50.075  12.993  0.00  0.00     0.270 C 
HETATM   33  O   UNK     0     -42.882  49.899  13.314  0.00  0.00    -0.266 OA
HETATM   34  N   UNK     0     -41.373  50.295  11.651  0.00  0.00    -0.365 N 
HETATM   35  H   UNK     0     -40.420  50.453  11.340  0.00  0.00     0.159 HD
HETATM   36  H   UNK     0     -42.097  50.303  10.941  0.00  0.00     0.159 HD
ENDBRANCH  10  32
TORSDOF 5
ENDMDL
MODEL 2
REMARK VINA RESULT:      -9.2      2.934      7.924
REMARK  5 active torsions:
REMARK  status: ('A' for Active; 'I' for Inactive)
REMARK    1  A    between atoms: O_4  and  C_33 
REMARK    2  A    between atoms: N_5  and  C_19 
REMARK    3  A    between atoms: N_6  and  C_20 
REMARK    4  A    between atoms: N_7  and  C_27 
REMARK       I    between atoms: N_9  and  C_28 
REMARK    5  A    between atoms: C_22  and  C_28 
ROOT
HETATM    1  O   UNK     0     -39.107  49.008  16.834  0.00  0.00    -0.265 OA
HETATM    2  N   UNK     0     -39.131  50.518  15.021  0.00  0.00    -0.312 N 
HETATM    3  N   UNK     0     -41.917  48.382  16.253  0.00  0.00    -0.227 N 
HETATM    4  N   UNK     0     -43.130  48.273  15.678  0.00  0.00    -0.161 NA
HETATM    5  C   UNK     0     -41.140  50.511  13.467  0.00  0.00     0.064 C 
HETATM    6  C   UNK     0     -40.017  51.325  14.132  0.00  0.00     0.137 C 
HETATM    7  C   UNK     0     -41.756  49.626  14.469  0.00  0.00     0.014 A 
HETATM    8  C   UNK     0     -41.056  49.191  15.568  0.00  0.00     0.136 A 
HETATM    9  C   UNK     0     -39.689  49.530  15.886  0.00  0.00     0.277 C 
HETATM   10  C   UNK     0     -43.024  49.035  14.584  0.00  0.00     0.153 A 
ENDROOT
BRANCH   2  11
HETATM   11  C   UNK     0     -37.743  50.895  15.118  0.00  0.00     0.037 A 
HETATM   12  C   UNK     0     -37.272  51.502  16.278  0.00  0.00     0.032 A 
HETATM   13  C   UNK     0     -35.929  51.868  16.372  0.00  0.00     0.032 A 
HETATM   14  C   UNK     0     -35.063  51.625  15.305  0.00  0.00     0.037 A 
HETATM   15  C   UNK     0     -35.542  51.016  14.144  0.00  0.00     0.032 A 
HETATM   16  C   UNK     0     -36.885  50.650  14.051  0.00  0.00     0.032 A 
BRANCH  14  17
HETATM   17  N   UNK     0     -33.671  52.004  15.401  0.00  0.00    -0.318 N 
HETATM   18  C   UNK     0     -32.666  50.942  15.222  0.00  0.00     0.132 C 
HETATM   19  C   UNK     0     -31.315  51.249  15.848  0.00  0.00     0.021 C 
HETATM   20  C   UNK     0     -30.855  52.615  15.392  0.00  0.00     0.011 C 
HETATM   21  C   UNK     0     -31.859  53.647  15.857  0.00  0.00     0.103 C 
HETATM   22  C   UNK     0     -33.295  53.358  15.454  0.00  0.00     0.224 C 
HETATM   23  O   UNK     0     -34.046  54.318  15.259  0.00  0.00    -0.273 OA
ENDBRANCH  14  17
ENDBRANCH   2  11
BRANCH   3  24
HETATM   24  C   UNK     0     -41.663  47.702  17.446  0.00  0.00     0.059 A 
HETATM   25  C   UNK     0     -41.204  46.392  17.402  0.00  0.00     0.034 A 
HETATM   26  C   UNK     0     -40.951  45.712  18.594  0.00  0.00     0.039 A 
HETATM   27  C   UNK     0     -41.158  46.348  19.818  0.00  0.00     0.068 A 
HETATM   28  C   UNK     0     -41.618  47.665  19.850  0.00  0.00     0.039 A 
HETATM   29  C   UNK     0     -41.872  48.345  18.659  0.00  0.00     0.034 A 
BRANCH  27  30
HETATM   30  O   UNK     0     -40.910  45.686  20.981  0.00  0.00    -0.356 OA
HETATM   31  C   UNK     0     -41.113  46.406  22.195  0.00  0.00     0.210 C 
ENDBRANCH  27  30
ENDBRANCH   3  24
BRANCH  10  32
HETATM   32  C   UNK     0     -44.141  49.158  13.693  0.00  0.00     0.270 C 
HETATM   33  O   UNK     0     -44.132  49.886  12.678  0.00  0.00    -0.266 OA
HETATM   34  N   UNK     0     -45.282  48.404  13.975  0.00  0.00    -0.365 N 
HETATM   35  H   UNK     0     -45.337  47.790  14.781  0.00  0.00     0.159 HD
HETATM   36  H   UNK     0     -46.097  48.448  13.373  0.00  0.00     0.159 HD
ENDBRANCH  10  32
TORSDOF 5
ENDMDL
MODEL 3
REMARK VINA RESULT:      -8.9      3.874      8.954
REMARK  5 active torsions:
REMARK  status: ('A' for Active; 'I' for Inactive)
REMARK    1  A    between atoms: O_4  and  C_33 
REMARK    2  A    between atoms: N_5  and  C_19 
REMARK    3  A    between atoms: N_6  and  C_20 
REMARK    4  A    between atoms: N_7  and  C_27 
REMARK       I    between atoms: N_9  and  C_28 
REMARK    5  A    between atoms: C_22  and  C_28 
ROOT
HETATM    1  O   UNK     0     -41.378  47.544  17.428  0.00  0.00    -0.265 OA
HETATM    2  N   UNK     0     -41.510  48.576  15.310  0.00  0.00    -0.312 N 
HETATM    3  N   UNK     0     -38.667  48.637  17.709  0.00  0.00    -0.227 N 
HETATM    4  N   UNK     0     -37.528  49.338  17.551  0.00  0.00    -0.161 NA
HETATM    5  C   UNK     0     -39.684  50.211  14.644  0.00  0.00     0.064 C 
HETATM    6  C   UNK     0     -40.705  49.151  14.194  0.00  0.00     0.137 C 
HETATM    7  C   UNK     0     -38.987  49.731  15.849  0.00  0.00     0.014 A 
HETATM    8  C   UNK     0     -39.574  48.833  16.708  0.00  0.00     0.136 A 
HETATM    9  C   UNK     0     -40.889  48.256  16.554  0.00  0.00     0.277 C 
HETATM   10  C   UNK     0     -37.731  50.007  16.411  0.00  0.00     0.153 A 
ENDROOT
BRANCH   2  11
HETATM   11  C   UNK     0     -42.868  48.181  15.032  0.00  0.00     0.037 A 
HETATM   12  C   UNK     0     -43.819  49.148  14.718  0.00  0.00     0.032 A 
HETATM   13  C   UNK     0     -45.134  48.766  14.450  0.00  0.00     0.032 A 
HETATM   14  C   UNK     0     -45.492  47.418  14.497  0.00  0.00     0.037 A 
HETATM   15  C   UNK     0     -44.535  46.453  14.813  0.00  0.00     0.032 A 
HETATM   16  C   UNK     0     -43.220  46.836  15.080  0.00  0.00     0.032 A 
BRANCH  14  17
HETATM   17  N   UNK     0     -46.854  47.022  14.220  0.00  0.00    -0.318 N 
HETATM   18  C   UNK     0     -47.728  46.743  15.372  0.00  0.00     0.132 C 
HETATM   19  C   UNK     0     -48.911  45.843  15.057  0.00  0.00     0.021 C 
HETATM   20  C   UNK     0     -49.640  46.386  13.849  0.00  0.00     0.011 C 
HETATM   21  C   UNK     0     -48.694  46.386  12.669  0.00  0.00     0.103 C 
HETATM   22  C   UNK     0     -47.376  47.102  12.916  0.00  0.00     0.224 C 
HETATM   23  O   UNK     0     -46.825  47.649  11.957  0.00  0.00    -0.273 OA
ENDBRANCH  14  17
ENDBRANCH   2  11
BRANCH   3  24
HETATM   24  C   UNK     0     -38.808  47.805  18.821  0.00  0.00     0.059 A 
HETATM   25  C   UNK     0     -39.197  48.348  20.038  0.00  0.00     0.034 A 
HETATM   26  C   UNK     0     -39.337  47.516  21.149  0.00  0.00     0.039 A 
HETATM   27  C   UNK     0     -39.089  46.150  21.033  0.00  0.00     0.068 A 
HETATM   28  C   UNK     0     -38.699  45.613  19.805  0.00  0.00     0.039 A 
HETATM   29  C   UNK     0     -38.558  46.445  18.695  0.00  0.00     0.034 A 
BRANCH  27  30
HETATM   30  O   UNK     0     -39.227  45.337  22.117  0.00  0.00    -0.356 OA
HETATM   31  C   UNK     0     -38.097  45.205  22.978  0.00  0.00     0.210 C 
ENDBRANCH  27  30
ENDBRANCH   3  24
BRANCH  10  32
HETATM   32  C   UNK     0     -36.714  50.889  15.914  0.00  0.00     0.270 C 
HETATM   33  O   UNK     0     -36.927  52.083  15.615  0.00  0.00    -0.266 OA
HETATM   34  N   UNK     0     -35.421  50.379  15.783  0.00  0.00    -0.365 N 
HETATM   35  H   UNK     0     -35.194  49.419  16.020  0.00  0.00     0.159 HD
HETATM   36  H   UNK     0     -34.664  50.961  15.443  0.00  0.00     0.159 HD
ENDBRANCH  10  32
TORSDOF 5
ENDMDL
