MODEL 1
REMARK VINA RESULT:      -7.5      0.000      0.000
REMARK  5 active torsions:
REMARK  status: ('A' for Active; 'I' for Inactive)
REMARK    1  A    between atoms: O_4  and  C_33 
REMARK    2  A    between atoms: N_5  and  C_19 
REMARK    3  A    between atoms: N_6  and  C_20 
REMARK    4  A    between atoms: N_7  and  C_27 
REMARK       I    between atoms: N_9  and  C_28 
REMARK    5  A    between atoms: C_22  and  C_28 
ROOT
HETATM    1  O   UNK     0      14.709  22.235   3.183  0.00  0.00    -0.265 OA
HETATM    2  N   UNK     0      14.640  20.743   1.356  0.00  0.00    -0.312 N 
HETATM    3  N   UNK     0      17.183  20.921   4.067  0.00  0.00    -0.227 N 
HETATM    4  N   UNK     0      18.301  20.175   4.138  0.00  0.00    -0.161 NA
HETATM    5  C   UNK     0      16.663  19.271   0.919  0.00  0.00     0.064 C 
HETATM    6  C   UNK     0      15.134  19.430   0.849  0.00  0.00     0.137 C 
HETATM    7  C   UNK     0      17.141  19.754   2.225  0.00  0.00     0.014 A 
HETATM    8  C   UNK     0      16.446  20.700   2.939  0.00  0.00     0.136 A 
HETATM    9  C   UNK     0      15.205  21.318   2.533  0.00  0.00     0.277 C 
HETATM   10  C   UNK     0      18.271  19.464   3.006  0.00  0.00     0.153 A 
ENDROOT
BRANCH   2  11
HETATM   11  C   UNK     0      13.465  21.308   0.742  0.00  0.00     0.037 A 
HETATM   12  C   UNK     0      12.221  21.137   1.344  0.00  0.00     0.032 A 
HETATM   13  C   UNK     0      11.083  21.682   0.750  0.00  0.00     0.032 A 
HETATM   14  C   UNK     0      11.193  22.396  -0.444  0.00  0.00     0.037 A 
HETATM   15  C   UNK     0      12.442  22.564  -1.043  0.00  0.00     0.032 A 
HETATM   16  C   UNK     0      13.581  22.020  -0.448  0.00  0.00     0.032 A 
BRANCH  14  17
HETATM   17  N   UNK     0      10.014  22.962  -1.061  0.00  0.00    -0.318 N 
HETATM   18  C   UNK     0       8.861  22.070  -1.265  0.00  0.00     0.132 C 
HETATM   19  C   UNK     0       7.905  22.523  -2.356  0.00  0.00     0.021 C 
HETATM   20  C   UNK     0       7.530  23.969  -2.118  0.00  0.00     0.011 C 
HETATM   21  C   UNK     0       8.783  24.813  -2.179  0.00  0.00     0.103 C 
HETATM   22  C   UNK     0       9.903  24.350  -1.262  0.00  0.00     0.224 C 
HETATM   23  O   UNK     0      10.669  25.203  -0.807  0.00  0.00    -0.273 OA
ENDBRANCH  14  17
ENDBRANCH   2  11
BRANCH   3  24
HETATM   24  C   UNK     0      16.883  21.803   5.107  0.00  0.00     0.059 A 
HETATM   25  C   UNK     0      16.168  21.347   6.206  0.00  0.00     0.034 A 
HETATM   26  C   UNK     0      15.868  22.230   7.245  0.00  0.00     0.039 A 
HETATM   27  C   UNK     0      16.286  23.557   7.175  0.00  0.00     0.068 A 
HETATM   28  C   UNK     0      17.005  24.005   6.066  0.00  0.00     0.039 A 
HETATM   29  C   UNK     0      17.304  23.124   5.027  0.00  0.00     0.034 A 
BRANCH  27  30
HETATM   30  O   UNK     0      15.994  24.418   8.189  0.00  0.00    -0.356 OA
HETATM   31  C   UNK     0      15.963  25.809   7.873  0.00  0.00     0.210 C 
ENDBRANCH  27  30
ENDBRANCH   3  24
BRANCH  10  32
HETATM   32  C   UNK     0      19.332  18.541   2.717  0.00  0.00     0.270 C 
HETATM   33  O   UNK     0      19.909  18.482   1.612  0.00  0.00    -0.266 OA
HETATM   34  N   UNK     0      19.743  17.686   3.742  0.00  0.00    -0.365 N 
HETATM   35  H   UNK     0      19.313  17.700   4.661  0.00  0.00     0.159 HD
HETATM   36  H   UNK     0      20.494  17.020   3.594  0.00  0.00     0.159 HD
ENDBRANCH  10  32
TORSDOF 5
ENDMDL
MODEL 2
REMARK VINA RESULT:      -7.4     13.430     16.736
REMARK  5 active torsions:
REMARK  status: ('A' for Active; 'I' for Inactive)
REMARK    1  A    between atoms: O_4  and  C_33 
REMARK    2  A    between atoms: N_5  and  C_19 
REMARK    3  A    between atoms: N_6  and  C_20 
REMARK    4  A    between atoms: N_7  and  C_27 
REMARK       I    between atoms: N_9  and  C_28 
REMARK    5  A    between atoms: C_22  and  C_28 
ROOT
HETATM    1  O   UNK     0      17.431  21.910  17.965  0.00  0.00    -0.265 OA
HETATM    2  N   UNK     0      17.785  22.314  15.667  0.00  0.00    -0.312 N 
HETATM    3  N   UNK     0      16.196  24.567  18.167  0.00  0.00    -0.227 N 
HETATM    4  N   UNK     0      15.634  25.760  17.896  0.00  0.00    -0.161 NA
HETATM    5  C   UNK     0      16.696  24.354  14.616  0.00  0.00     0.064 C 
HETATM    6  C   UNK     0      17.888  23.382  14.631  0.00  0.00     0.137 C 
HETATM    7  C   UNK     0      16.365  24.736  15.999  0.00  0.00     0.014 A 
HETATM    8  C   UNK     0      16.658  23.914  17.060  0.00  0.00     0.136 A 
HETATM    9  C   UNK     0      17.306  22.626  16.975  0.00  0.00     0.277 C 
HETATM   10  C   UNK     0      15.739  25.857  16.566  0.00  0.00     0.153 A 
ENDROOT
BRANCH   2  11
HETATM   11  C   UNK     0      18.355  21.024  15.371  0.00  0.00     0.037 A 
HETATM   12  C   UNK     0      17.518  19.938  15.131  0.00  0.00     0.032 A 
HETATM   13  C   UNK     0      18.070  18.688  14.845  0.00  0.00     0.032 A 
HETATM   14  C   UNK     0      19.456  18.531  14.801  0.00  0.00     0.037 A 
HETATM   15  C   UNK     0      20.289  19.624  15.043  0.00  0.00     0.032 A 
HETATM   16  C   UNK     0      19.737  20.873  15.328  0.00  0.00     0.032 A 
BRANCH  14  17
HETATM   17  N   UNK     0      20.028  17.237  14.505  0.00  0.00    -0.318 N 
HETATM   18  C   UNK     0      20.101  16.260  15.605  0.00  0.00     0.132 C 
HETATM   19  C   UNK     0      21.154  15.181  15.413  0.00  0.00     0.021 C 
HETATM   20  C   UNK     0      20.982  14.557  14.047  0.00  0.00     0.011 C 
HETATM   21  C   UNK     0      21.178  15.627  12.996  0.00  0.00     0.103 C 
HETATM   22  C   UNK     0      20.309  16.860  13.180  0.00  0.00     0.224 C 
HETATM   23  O   UNK     0      19.958  17.477  12.170  0.00  0.00    -0.273 OA
ENDBRANCH  14  17
ENDBRANCH   2  11
BRANCH   3  24
HETATM   24  C   UNK     0      16.263  24.128  19.491  0.00  0.00     0.059 A 
HETATM   25  C   UNK     0      15.245  23.335  20.001  0.00  0.00     0.034 A 
HETATM   26  C   UNK     0      15.312  22.897  21.325  0.00  0.00     0.039 A 
HETATM   27  C   UNK     0      16.396  23.257  22.124  0.00  0.00     0.068 A 
HETATM   28  C   UNK     0      17.415  24.054  21.601  0.00  0.00     0.039 A 
HETATM   29  C   UNK     0      17.348  24.492  20.278  0.00  0.00     0.034 A 
BRANCH  27  30
HETATM   30  O   UNK     0      16.463  22.829  23.415  0.00  0.00    -0.356 OA
HETATM   31  C   UNK     0      15.610  23.476  24.359  0.00  0.00     0.210 C 
ENDBRANCH  27  30
ENDBRANCH   3  24
BRANCH  10  32
HETATM   32  C   UNK     0      15.228  27.018  15.895  0.00  0.00     0.270 C 
HETATM   33  O   UNK     0      15.927  28.016  15.622  0.00  0.00    -0.266 OA
HETATM   34  N   UNK     0      13.885  27.008  15.515  0.00  0.00    -0.365 N 
HETATM   35  H   UNK     0      13.276  26.218  15.705  0.00  0.00     0.159 HD
HETATM   36  H   UNK     0      13.474  27.799  15.032  0.00  0.00     0.159 HD
ENDBRANCH  10  32
TORSDOF 5
ENDMDL
MODEL 3
REMARK VINA RESULT:      -7.2      3.336      8.764
REMARK  5 active torsions:
REMARK  status: ('A' for Active; 'I' for Inactive)
REMARK    1  A    between atoms: O_4  and  C_33 
REMARK    2  A    between atoms: N_5  and  C_19 
REMARK    3  A    between atoms: N_6  and  C_20 
REMARK    4  A    between atoms: N_7  and  C_27 
REMARK       I    between atoms: N_9  and  C_28 
REMARK    5  A    between atoms: C_22  and  C_28 
ROOT
HETATM    1  O   UNK     0      14.121  23.373   3.158  0.00  0.00    -0.265 OA
HETATM    2  N   UNK     0      14.373  21.208   2.252  0.00  0.00    -0.312 N 
HETATM    3  N   UNK     0      11.309  23.319   2.311  0.00  0.00    -0.227 N 
HETATM    4  N   UNK     0      10.092  22.940   1.876  0.00  0.00    -0.161 NA
HETATM    5  C   UNK     0      12.292  19.959   1.505  0.00  0.00     0.064 C 
HETATM    6  C   UNK     0      13.792  20.225   1.293  0.00  0.00     0.137 C 
HETATM    7  C   UNK     0      11.598  21.240   1.717  0.00  0.00     0.014 A 
HETATM    8  C   UNK     0      12.252  22.334   2.230  0.00  0.00     0.136 A 
HETATM    9  C   UNK     0      13.645  22.383   2.606  0.00  0.00     0.277 C 
HETATM   10  C   UNK     0      10.275  21.665   1.516  0.00  0.00     0.153 A 
ENDROOT
BRANCH   2  11
HETATM   11  C   UNK     0      15.747  21.034   2.652  0.00  0.00     0.037 A 
HETATM   12  C   UNK     0      16.071  20.976   4.005  0.00  0.00     0.032 A 
HETATM   13  C   UNK     0      17.401  20.809   4.392  0.00  0.00     0.032 A 
HETATM   14  C   UNK     0      18.401  20.701   3.425  0.00  0.00     0.037 A 
HETATM   15  C   UNK     0      18.070  20.760   2.071  0.00  0.00     0.032 A 
HETATM   16  C   UNK     0      16.740  20.926   1.684  0.00  0.00     0.032 A 
BRANCH  14  17
HETATM   17  N   UNK     0      19.779  20.528   3.826  0.00  0.00    -0.318 N 
HETATM   18  C   UNK     0      20.464  21.689   4.418  0.00  0.00     0.132 C 
HETATM   19  C   UNK     0      21.980  21.640   4.315  0.00  0.00     0.021 C 
HETATM   20  C   UNK     0      22.470  20.306   4.834  0.00  0.00     0.011 C 
HETATM   21  C   UNK     0      21.882  19.206   3.977  0.00  0.00     0.103 C 
HETATM   22  C   UNK     0      20.369  19.251   3.841  0.00  0.00     0.224 C 
HETATM   23  O   UNK     0      19.769  18.183   3.695  0.00  0.00    -0.273 OA
ENDBRANCH  14  17
ENDBRANCH   2  11
BRANCH   3  24
HETATM   24  C   UNK     0      11.494  24.623   2.773  0.00  0.00     0.059 A 
HETATM   25  C   UNK     0      11.210  24.926   4.098  0.00  0.00     0.034 A 
HETATM   26  C   UNK     0      11.393  26.230   4.560  0.00  0.00     0.039 A 
HETATM   27  C   UNK     0      11.860  27.218   3.694  0.00  0.00     0.068 A 
HETATM   28  C   UNK     0      12.144  26.902   2.364  0.00  0.00     0.039 A 
HETATM   29  C   UNK     0      11.959  25.599   1.902  0.00  0.00     0.034 A 
BRANCH  27  30
HETATM   30  O   UNK     0      12.041  28.490   4.144  0.00  0.00    -0.356 OA
HETATM   31  C   UNK     0      11.203  28.925   5.214  0.00  0.00     0.210 C 
ENDBRANCH  27  30
ENDBRANCH   3  24
BRANCH  10  32
HETATM   32  C   UNK     0       9.172  20.907   1.000  0.00  0.00     0.270 C 
HETATM   33  O   UNK     0       8.768  19.844   1.517  0.00  0.00    -0.266 OA
HETATM   34  N   UNK     0       8.510  21.407  -0.123  0.00  0.00    -0.365 N 
HETATM   35  H   UNK     0       8.793  22.271  -0.575  0.00  0.00     0.159 HD
HETATM   36  H   UNK     0       7.719  20.914  -0.524  0.00  0.00     0.159 HD
ENDBRANCH  10  32
TORSDOF 5
ENDMDL
