MODEL 1
REMARK VINA RESULT:      -8.9      0.000      0.000
REMARK  5 active torsions:
REMARK  status: ('A' for Active; 'I' for Inactive)
REMARK    1  A    between atoms: O_4  and  C_33 
REMARK    2  A    between atoms: N_5  and  C_19 
REMARK    3  A    between atoms: N_6  and  C_20 
REMARK    4  A    between atoms: N_7  and  C_27 
REMARK       I    between atoms: N_9  and  C_28 
REMARK    5  A    between atoms: C_22  and  C_28 
ROOT
HETATM    1  O   UNK     0      30.579  16.418  -2.295  0.00  0.00    -0.265 OA
HETATM    2  N   UNK     0      28.685  15.514  -3.376  0.00  0.00    -0.312 N 
HETATM    3  N   UNK     0      29.162  16.133   0.262  0.00  0.00    -0.227 N 
HETATM    4  N   UNK     0      28.289  15.799   1.231  0.00  0.00    -0.161 NA
HETATM    5  C   UNK     0      26.839  14.513  -1.948  0.00  0.00     0.064 C 
HETATM    6  C   UNK     0      27.222  15.259  -3.238  0.00  0.00     0.137 C 
HETATM    7  C   UNK     0      27.569  15.102  -0.813  0.00  0.00     0.014 A 
HETATM    8  C   UNK     0      28.771  15.743  -0.987  0.00  0.00     0.136 A 
HETATM    9  C   UNK     0      29.453  15.927  -2.247  0.00  0.00     0.277 C 
HETATM   10  C   UNK     0      27.317  15.165   0.567  0.00  0.00     0.153 A 
ENDROOT
BRANCH   2  11
HETATM   11  C   UNK     0      29.250  15.519  -4.703  0.00  0.00     0.037 A 
HETATM   12  C   UNK     0      29.904  14.386  -5.179  0.00  0.00     0.032 A 
HETATM   13  C   UNK     0      30.452  14.391  -6.462  0.00  0.00     0.032 A 
HETATM   14  C   UNK     0      30.343  15.528  -7.263  0.00  0.00     0.037 A 
HETATM   15  C   UNK     0      29.686  16.660  -6.780  0.00  0.00     0.032 A 
HETATM   16  C   UNK     0      29.138  16.655  -5.497  0.00  0.00     0.032 A 
BRANCH  14  17
HETATM   17  N   UNK     0      30.910  15.534  -8.593  0.00  0.00    -0.318 N 
HETATM   18  C   UNK     0      30.010  15.857  -9.713  0.00  0.00     0.132 C 
HETATM   19  C   UNK     0      30.478  15.336 -11.061  0.00  0.00     0.021 C 
HETATM   20  C   UNK     0      31.913  15.756 -11.285  0.00  0.00     0.011 C 
HETATM   21  C   UNK     0      32.773  15.150 -10.198  0.00  0.00     0.103 C 
HETATM   22  C   UNK     0      32.301  15.441  -8.783  0.00  0.00     0.224 C 
HETATM   23  O   UNK     0      33.152  15.517  -7.893  0.00  0.00    -0.273 OA
ENDBRANCH  14  17
ENDBRANCH   2  11
BRANCH   3  24
HETATM   24  C   UNK     0      30.326  16.825   0.600  0.00  0.00     0.059 A 
HETATM   25  C   UNK     0      31.541  16.152   0.621  0.00  0.00     0.034 A 
HETATM   26  C   UNK     0      32.704  16.844   0.960  0.00  0.00     0.039 A 
HETATM   27  C   UNK     0      32.643  18.200   1.274  0.00  0.00     0.068 A 
HETATM   28  C   UNK     0      31.418  18.867   1.250  0.00  0.00     0.039 A 
HETATM   29  C   UNK     0      30.254  18.176   0.912  0.00  0.00     0.034 A 
BRANCH  27  30
HETATM   30  O   UNK     0      33.778  18.875   1.604  0.00  0.00    -0.356 OA
HETATM   31  C   UNK     0      33.666  19.885   2.606  0.00  0.00     0.210 C 
ENDBRANCH  27  30
ENDBRANCH   3  24
BRANCH  10  32
HETATM   32  C   UNK     0      26.190  14.642   1.285  0.00  0.00     0.270 C 
HETATM   33  O   UNK     0      26.168  13.501   1.791  0.00  0.00    -0.266 OA
HETATM   34  N   UNK     0      25.076  15.471   1.436  0.00  0.00    -0.365 N 
HETATM   35  H   UNK     0      25.046  16.409   1.052  0.00  0.00     0.159 HD
HETATM   36  H   UNK     0      24.256  15.153   1.941  0.00  0.00     0.159 HD
ENDBRANCH  10  32
TORSDOF 5
ENDMDL
MODEL 2
REMARK VINA RESULT:      -8.3      2.578      3.046
REMARK  5 active torsions:
REMARK  status: ('A' for Active; 'I' for Inactive)
REMARK    1  A    between atoms: O_4  and  C_33 
REMARK    2  A    between atoms: N_5  and  C_19 
REMARK    3  A    between atoms: N_6  and  C_20 
REMARK    4  A    between atoms: N_7  and  C_27 
REMARK       I    between atoms: N_9  and  C_28 
REMARK    5  A    between atoms: C_22  and  C_28 
ROOT
HETATM    1  O   UNK     0      32.350  16.071  -1.964  0.00  0.00    -0.265 OA
HETATM    2  N   UNK     0      30.985  14.836  -3.440  0.00  0.00    -0.312 N 
HETATM    3  N   UNK     0      30.048  16.315  -0.156  0.00  0.00    -0.227 N 
HETATM    4  N   UNK     0      28.857  16.169   0.454  0.00  0.00    -0.161 NA
HETATM    5  C   UNK     0      28.692  14.096  -2.635  0.00  0.00     0.064 C 
HETATM    6  C   UNK     0      29.572  14.539  -3.816  0.00  0.00     0.137 C 
HETATM    7  C   UNK     0      28.951  14.974  -1.481  0.00  0.00     0.014 A 
HETATM    8  C   UNK     0      30.153  15.622  -1.328  0.00  0.00     0.136 A 
HETATM    9  C   UNK     0      31.274  15.544  -2.235  0.00  0.00     0.277 C 
HETATM   10  C   UNK     0      28.190  15.344  -0.362  0.00  0.00     0.153 A 
ENDROOT
BRANCH   2  11
HETATM   11  C   UNK     0      32.016  14.561  -4.409  0.00  0.00     0.037 A 
HETATM   12  C   UNK     0      32.870  13.478  -4.220  0.00  0.00     0.032 A 
HETATM   13  C   UNK     0      33.869  13.213  -5.157  0.00  0.00     0.032 A 
HETATM   14  C   UNK     0      34.010  14.032  -6.278  0.00  0.00     0.037 A 
HETATM   15  C   UNK     0      33.151  15.116  -6.461  0.00  0.00     0.032 A 
HETATM   16  C   UNK     0      32.151  15.380  -5.525  0.00  0.00     0.032 A 
BRANCH  14  17
HETATM   17  N   UNK     0      35.045  13.757  -7.249  0.00  0.00    -0.318 N 
HETATM   18  C   UNK     0      34.626  13.211  -8.551  0.00  0.00     0.132 C 
HETATM   19  C   UNK     0      35.717  12.456  -9.292  0.00  0.00     0.021 C 
HETATM   20  C   UNK     0      36.959  13.315  -9.357  0.00  0.00     0.011 C 
HETATM   21  C   UNK     0      37.429  13.598  -7.947  0.00  0.00     0.103 C 
HETATM   22  C   UNK     0      36.367  14.189  -7.035  0.00  0.00     0.224 C 
HETATM   23  O   UNK     0      36.733  14.954  -6.138  0.00  0.00    -0.273 OA
ENDBRANCH  14  17
ENDBRANCH   2  11
BRANCH   3  24
HETATM   24  C   UNK     0      31.019  17.130   0.428  0.00  0.00     0.059 A 
HETATM   25  C   UNK     0      32.299  16.632   0.630  0.00  0.00     0.034 A 
HETATM   26  C   UNK     0      33.270  17.447   1.215  0.00  0.00     0.039 A 
HETATM   27  C   UNK     0      32.951  18.751   1.590  0.00  0.00     0.068 A 
HETATM   28  C   UNK     0      31.662  19.243   1.382  0.00  0.00     0.039 A 
HETATM   29  C   UNK     0      30.692  18.428   0.798  0.00  0.00     0.034 A 
BRANCH  27  30
HETATM   30  O   UNK     0      33.898  19.547   2.159  0.00  0.00    -0.356 OA
HETATM   31  C   UNK     0      33.496  20.339   3.276  0.00  0.00     0.210 C 
ENDBRANCH  27  30
ENDBRANCH   3  24
BRANCH  10  32
HETATM   32  C   UNK     0      26.854  14.942  -0.028  0.00  0.00     0.270 C 
HETATM   33  O   UNK     0      26.093  14.358  -0.828  0.00  0.00    -0.266 OA
HETATM   34  N   UNK     0      26.402  15.202   1.267  0.00  0.00    -0.365 N 
HETATM   35  H   UNK     0      26.984  15.666   1.958  0.00  0.00     0.159 HD
HETATM   36  H   UNK     0      25.469  14.932   1.557  0.00  0.00     0.159 HD
ENDBRANCH  10  32
TORSDOF 5
ENDMDL
MODEL 3
REMARK VINA RESULT:      -7.7      5.537      9.580
REMARK  5 active torsions:
REMARK  status: ('A' for Active; 'I' for Inactive)
REMARK    1  A    between atoms: O_4  and  C_33 
REMARK    2  A    between atoms: N_5  and  C_19 
REMARK    3  A    between atoms: N_6  and  C_20 
REMARK    4  A    between atoms: N_7  and  C_27 
REMARK       I    between atoms: N_9  and  C_28 
REMARK    5  A    between atoms: C_22  and  C_28 
ROOT
HETATM    1  O   UNK     0      24.034  15.206   1.715  0.00  0.00    -0.265 OA
HETATM    2  N   UNK     0      25.630  13.747   2.661  0.00  0.00    -0.312 N 
HETATM    3  N   UNK     0      21.922  13.495   2.827  0.00  0.00    -0.227 N 
HETATM    4  N   UNK     0      21.233  12.571   3.524  0.00  0.00    -0.161 NA
HETATM    5  C   UNK     0      24.828  11.956   4.273  0.00  0.00     0.064 C 
HETATM    6  C   UNK     0      25.843  12.370   3.193  0.00  0.00     0.137 C 
HETATM    7  C   UNK     0      23.476  12.351   3.844  0.00  0.00     0.014 A 
HETATM    8  C   UNK     0      23.275  13.400   2.980  0.00  0.00     0.136 A 
HETATM    9  C   UNK     0      24.310  14.218   2.392  0.00  0.00     0.277 C 
HETATM   10  C   UNK     0      22.191  11.875   4.146  0.00  0.00     0.153 A 
ENDROOT
BRANCH   2  11
HETATM   11  C   UNK     0      26.788  14.502   2.251  0.00  0.00     0.037 A 
HETATM   12  C   UNK     0      26.926  14.886   0.920  0.00  0.00     0.032 A 
HETATM   13  C   UNK     0      28.047  15.616   0.522  0.00  0.00     0.032 A 
HETATM   14  C   UNK     0      29.025  15.958   1.458  0.00  0.00     0.037 A 
HETATM   15  C   UNK     0      28.881  15.569   2.790  0.00  0.00     0.032 A 
HETATM   16  C   UNK     0      27.759  14.841   3.187  0.00  0.00     0.032 A 
BRANCH  14  17
HETATM   17  N   UNK     0      30.187  16.714   1.047  0.00  0.00    -0.318 N 
HETATM   18  C   UNK     0      30.388  18.036   1.664  0.00  0.00     0.132 C 
HETATM   19  C   UNK     0      31.255  18.980   0.847  0.00  0.00     0.021 C 
HETATM   20  C   UNK     0      32.538  18.276   0.469  0.00  0.00     0.011 C 
HETATM   21  C   UNK     0      32.199  17.067  -0.374  0.00  0.00     0.103 C 
HETATM   22  C   UNK     0      31.186  16.123   0.253  0.00  0.00     0.224 C 
HETATM   23  O   UNK     0      31.268  14.922  -0.019  0.00  0.00    -0.273 OA
ENDBRANCH  14  17
ENDBRANCH   2  11
BRANCH   3  24
HETATM   24  C   UNK     0      21.227  14.414   2.040  0.00  0.00     0.059 A 
HETATM   25  C   UNK     0      20.817  15.619   2.595  0.00  0.00     0.034 A 
HETATM   26  C   UNK     0      20.122  16.538   1.808  0.00  0.00     0.039 A 
HETATM   27  C   UNK     0      19.843  16.244   0.474  0.00  0.00     0.068 A 
HETATM   28  C   UNK     0      20.260  15.030  -0.075  0.00  0.00     0.039 A 
HETATM   29  C   UNK     0      20.954  14.111   0.712  0.00  0.00     0.034 A 
BRANCH  27  30
HETATM   30  O   UNK     0      19.166  17.140  -0.295  0.00  0.00    -0.356 OA
HETATM   31  C   UNK     0      19.136  16.900  -1.701  0.00  0.00     0.210 C 
ENDBRANCH  27  30
ENDBRANCH   3  24
BRANCH  10  32
HETATM   32  C   UNK     0      21.832  10.787   5.010  0.00  0.00     0.270 C 
HETATM   33  O   UNK     0      21.309  10.946   6.133  0.00  0.00    -0.266 OA
HETATM   34  N   UNK     0      22.064   9.490   4.549  0.00  0.00    -0.365 N 
HETATM   35  H   UNK     0      22.477   9.306   3.641  0.00  0.00     0.159 HD
HETATM   36  H   UNK     0      21.821   8.685   5.117  0.00  0.00     0.159 HD
ENDBRANCH  10  32
TORSDOF 5
ENDMDL
