MODEL 1
REMARK VINA RESULT:      -8.8      0.000      0.000
REMARK  5 active torsions:
REMARK  status: ('A' for Active; 'I' for Inactive)
REMARK    1  A    between atoms: O_4  and  C_33 
REMARK    2  A    between atoms: N_5  and  C_19 
REMARK    3  A    between atoms: N_6  and  C_20 
REMARK    4  A    between atoms: N_7  and  C_27 
REMARK       I    between atoms: N_9  and  C_28 
REMARK    5  A    between atoms: C_22  and  C_28 
ROOT
HETATM    1  O   UNK     0      18.459  57.306  26.618  0.00  0.00    -0.265 OA
HETATM    2  N   UNK     0      16.905  56.399  28.145  0.00  0.00    -0.312 N 
HETATM    3  N   UNK     0      17.284  55.610  24.529  0.00  0.00    -0.227 N 
HETATM    4  N   UNK     0      16.483  54.790  23.821  0.00  0.00    -0.161 NA
HETATM    5  C   UNK     0      15.019  54.959  27.240  0.00  0.00     0.064 C 
HETATM    6  C   UNK     0      15.990  55.248  28.398  0.00  0.00     0.137 C 
HETATM    7  C   UNK     0      15.754  55.016  25.966  0.00  0.00     0.014 A 
HETATM    8  C   UNK     0      16.892  55.773  25.827  0.00  0.00     0.136 A 
HETATM    9  C   UNK     0      17.503  56.574  26.861  0.00  0.00     0.277 C 
HETATM   10  C   UNK     0      15.547  54.431  24.706  0.00  0.00     0.153 A 
ENDROOT
BRANCH   2  11
HETATM   11  C   UNK     0      17.310  57.203  29.271  0.00  0.00     0.037 A 
HETATM   12  C   UNK     0      18.485  56.897  29.951  0.00  0.00     0.032 A 
HETATM   13  C   UNK     0      18.878  57.673  31.042  0.00  0.00     0.032 A 
HETATM   14  C   UNK     0      18.093  58.754  31.447  0.00  0.00     0.037 A 
HETATM   15  C   UNK     0      16.916  59.056  30.761  0.00  0.00     0.032 A 
HETATM   16  C   UNK     0      16.524  58.280  29.670  0.00  0.00     0.032 A 
BRANCH  14  17
HETATM   17  N   UNK     0      18.498  59.559  32.576  0.00  0.00    -0.318 N 
HETATM   18  C   UNK     0      18.070  59.116  33.914  0.00  0.00     0.132 C 
HETATM   19  C   UNK     0      18.039  60.221  34.958  0.00  0.00     0.021 C 
HETATM   20  C   UNK     0      19.362  60.953  34.947  0.00  0.00     0.011 C 
HETATM   21  C   UNK     0      19.564  61.572  33.581  0.00  0.00     0.103 C 
HETATM   22  C   UNK     0      19.433  60.599  32.421  0.00  0.00     0.224 C 
HETATM   23  O   UNK     0      20.102  60.814  31.406  0.00  0.00    -0.273 OA
ENDBRANCH  14  17
ENDBRANCH   2  11
BRANCH   3  24
HETATM   24  C   UNK     0      18.394  56.184  23.907  0.00  0.00     0.059 A 
HETATM   25  C   UNK     0      18.300  57.467  23.386  0.00  0.00     0.034 A 
HETATM   26  C   UNK     0      19.410  58.040  22.764  0.00  0.00     0.039 A 
HETATM   27  C   UNK     0      20.603  57.326  22.671  0.00  0.00     0.068 A 
HETATM   28  C   UNK     0      20.688  56.037  23.199  0.00  0.00     0.039 A 
HETATM   29  C   UNK     0      19.578  55.464  23.820  0.00  0.00     0.034 A 
BRANCH  27  30
HETATM   30  O   UNK     0      21.687  57.885  22.065  0.00  0.00    -0.356 OA
HETATM   31  C   UNK     0      22.902  57.921  22.812  0.00  0.00     0.210 C 
ENDBRANCH  27  30
ENDBRANCH   3  24
BRANCH  10  32
HETATM   32  C   UNK     0      14.490  53.548  24.304  0.00  0.00     0.270 C 
HETATM   33  O   UNK     0      13.283  53.774  24.532  0.00  0.00    -0.266 OA
HETATM   34  N   UNK     0      14.842  52.392  23.604  0.00  0.00    -0.365 N 
HETATM   35  H   UNK     0      15.807  52.167  23.386  0.00  0.00     0.159 HD
HETATM   36  H   UNK     0      14.134  51.738  23.290  0.00  0.00     0.159 HD
ENDBRANCH  10  32
TORSDOF 5
ENDMDL
MODEL 2
REMARK VINA RESULT:      -8.6      2.015      4.968
REMARK  5 active torsions:
REMARK  status: ('A' for Active; 'I' for Inactive)
REMARK    1  A    between atoms: O_4  and  C_33 
REMARK    2  A    between atoms: N_5  and  C_19 
REMARK    3  A    between atoms: N_6  and  C_20 
REMARK    4  A    between atoms: N_7  and  C_27 
REMARK       I    between atoms: N_9  and  C_28 
REMARK    5  A    between atoms: C_22  and  C_28 
ROOT
HETATM    1  O   UNK     0      17.963  56.880  27.151  0.00  0.00    -0.265 OA
HETATM    2  N   UNK     0      19.612  58.566  27.260  0.00  0.00    -0.312 N 
HETATM    3  N   UNK     0      18.749  56.396  24.363  0.00  0.00    -0.227 N 
HETATM    4  N   UNK     0      19.394  56.380  23.181  0.00  0.00    -0.161 NA
HETATM    5  C   UNK     0      21.260  58.773  25.339  0.00  0.00     0.064 C 
HETATM    6  C   UNK     0      20.457  59.483  26.443  0.00  0.00     0.137 C 
HETATM    7  C   UNK     0      20.386  57.809  24.650  0.00  0.00     0.014 A 
HETATM    8  C   UNK     0      19.302  57.245  25.278  0.00  0.00     0.136 A 
HETATM    9  C   UNK     0      18.882  57.512  26.634  0.00  0.00     0.277 C 
HETATM   10  C   UNK     0      20.397  57.246  23.364  0.00  0.00     0.153 A 
ENDROOT
BRANCH   2  11
HETATM   11  C   UNK     0      19.405  58.891  28.649  0.00  0.00     0.037 A 
HETATM   12  C   UNK     0      18.827  60.109  28.995  0.00  0.00     0.032 A 
HETATM   13  C   UNK     0      18.628  60.425  30.339  0.00  0.00     0.032 A 
HETATM   14  C   UNK     0      19.008  59.521  31.332  0.00  0.00     0.037 A 
HETATM   15  C   UNK     0      19.587  58.301  30.979  0.00  0.00     0.032 A 
HETATM   16  C   UNK     0      19.785  57.986  29.635  0.00  0.00     0.032 A 
BRANCH  14  17
HETATM   17  N   UNK     0      18.802  59.847  32.725  0.00  0.00    -0.318 N 
HETATM   18  C   UNK     0      17.733  59.128  33.439  0.00  0.00     0.132 C 
HETATM   19  C   UNK     0      17.206  59.851  34.668  0.00  0.00     0.021 C 
HETATM   20  C   UNK     0      18.371  60.251  35.546  0.00  0.00     0.011 C 
HETATM   21  C   UNK     0      19.266  61.190  34.768  0.00  0.00     0.103 C 
HETATM   22  C   UNK     0      19.718  60.659  33.418  0.00  0.00     0.224 C 
HETATM   23  O   UNK     0      20.820  61.018  32.994  0.00  0.00    -0.273 OA
ENDBRANCH  14  17
ENDBRANCH   2  11
BRANCH   3  24
HETATM   24  C   UNK     0      17.621  55.593  24.536  0.00  0.00     0.059 A 
HETATM   25  C   UNK     0      17.774  54.221  24.682  0.00  0.00     0.034 A 
HETATM   26  C   UNK     0      16.646  53.417  24.854  0.00  0.00     0.039 A 
HETATM   27  C   UNK     0      15.377  53.993  24.880  0.00  0.00     0.068 A 
HETATM   28  C   UNK     0      15.234  55.373  24.733  0.00  0.00     0.039 A 
HETATM   29  C   UNK     0      16.361  56.176  24.560  0.00  0.00     0.034 A 
BRANCH  27  30
HETATM   30  O   UNK     0      14.277  53.209  25.049  0.00  0.00    -0.356 OA
HETATM   31  C   UNK     0      13.074  53.858  25.459  0.00  0.00     0.210 C 
ENDBRANCH  27  30
ENDBRANCH   3  24
BRANCH  10  32
HETATM   32  C   UNK     0      21.328  57.491  22.299  0.00  0.00     0.270 C 
HETATM   33  O   UNK     0      22.565  57.529  22.464  0.00  0.00    -0.266 OA
HETATM   34  N   UNK     0      20.811  57.671  21.015  0.00  0.00    -0.365 N 
HETATM   35  H   UNK     0      19.814  57.640  20.826  0.00  0.00     0.159 HD
HETATM   36  H   UNK     0      21.425  57.840  20.225  0.00  0.00     0.159 HD
ENDBRANCH  10  32
TORSDOF 5
ENDMDL
MODEL 3
REMARK VINA RESULT:      -8.5      4.337      6.579
REMARK  5 active torsions:
REMARK  status: ('A' for Active; 'I' for Inactive)
REMARK    1  A    between atoms: O_4  and  C_33 
REMARK    2  A    between atoms: N_5  and  C_19 
REMARK    3  A    between atoms: N_6  and  C_20 
REMARK    4  A    between atoms: N_7  and  C_27 
REMARK       I    between atoms: N_9  and  C_28 
REMARK    5  A    between atoms: C_22  and  C_28 
ROOT
HETATM    1  O   UNK     0      16.728  59.024  26.490  0.00  0.00    -0.265 OA
HETATM    2  N   UNK     0      18.124  60.763  25.717  0.00  0.00    -0.312 N 
HETATM    3  N   UNK     0      18.242  57.158  24.802  0.00  0.00    -0.227 N 
HETATM    4  N   UNK     0      19.166  56.584  24.007  0.00  0.00    -0.161 NA
HETATM    5  C   UNK     0      20.180  60.149  24.358  0.00  0.00     0.064 C 
HETATM    6  C   UNK     0      19.058  61.167  24.627  0.00  0.00     0.137 C 
HETATM    7  C   UNK     0      19.608  58.793  24.336  0.00  0.00     0.014 A 
HETATM    8  C   UNK     0      18.459  58.487  25.024  0.00  0.00     0.136 A 
HETATM    9  C   UNK     0      17.683  59.410  25.820  0.00  0.00     0.277 C 
HETATM   10  C   UNK     0      20.001  57.591  23.728  0.00  0.00     0.153 A 
ENDROOT
BRANCH   2  11
HETATM   11  C   UNK     0      17.540  61.800  26.529  0.00  0.00     0.037 A 
HETATM   12  C   UNK     0      16.701  62.745  25.945  0.00  0.00     0.032 A 
HETATM   13  C   UNK     0      16.136  63.750  26.731  0.00  0.00     0.032 A 
HETATM   14  C   UNK     0      16.413  63.806  28.097  0.00  0.00     0.037 A 
HETATM   15  C   UNK     0      17.255  62.856  28.677  0.00  0.00     0.032 A 
HETATM   16  C   UNK     0      17.819  61.851  27.891  0.00  0.00     0.032 A 
BRANCH  14  17
HETATM   17  N   UNK     0      15.828  64.847  28.912  0.00  0.00    -0.318 N 
HETATM   18  C   UNK     0      14.686  64.478  29.766  0.00  0.00     0.132 C 
HETATM   19  C   UNK     0      13.797  65.646  30.159  0.00  0.00     0.021 C 
HETATM   20  C   UNK     0      14.655  66.756  30.724  0.00  0.00     0.011 C 
HETATM   21  C   UNK     0      15.624  67.213  29.657  0.00  0.00     0.103 C 
HETATM   22  C   UNK     0      16.455  66.100  29.039  0.00  0.00     0.224 C 
HETATM   23  O   UNK     0      17.589  66.377  28.639  0.00  0.00    -0.273 OA
ENDBRANCH  14  17
ENDBRANCH   2  11
BRANCH   3  24
HETATM   24  C   UNK     0      17.189  56.384  25.294  0.00  0.00     0.059 A 
HETATM   25  C   UNK     0      17.353  55.681  26.479  0.00  0.00     0.034 A 
HETATM   26  C   UNK     0      16.301  54.907  26.971  0.00  0.00     0.039 A 
HETATM   27  C   UNK     0      15.096  54.844  26.274  0.00  0.00     0.068 A 
HETATM   28  C   UNK     0      14.941  55.556  25.083  0.00  0.00     0.039 A 
HETATM   29  C   UNK     0      15.993  56.329  24.591  0.00  0.00     0.034 A 
BRANCH  27  30
HETATM   30  O   UNK     0      14.069  54.090  26.753  0.00  0.00    -0.356 OA
HETATM   31  C   UNK     0      12.972  53.851  25.873  0.00  0.00     0.210 C 
ENDBRANCH  27  30
ENDBRANCH   3  24
BRANCH  10  32
HETATM   32  C   UNK     0      21.145  57.354  22.894  0.00  0.00     0.270 C 
HETATM   33  O   UNK     0      22.322  57.485  23.289  0.00  0.00    -0.266 OA
HETATM   34  N   UNK     0      20.914  56.935  21.582  0.00  0.00    -0.365 N 
HETATM   35  H   UNK     0      19.977  56.804  21.214  0.00  0.00     0.159 HD
HETATM   36  H   UNK     0      21.687  56.746  20.952  0.00  0.00     0.159 HD
ENDBRANCH  10  32
TORSDOF 5
ENDMDL
