MODEL 1
REMARK VINA RESULT:      -9.4      0.000      0.000
REMARK  5 active torsions:
REMARK  status: ('A' for Active; 'I' for Inactive)
REMARK    1  A    between atoms: O_4  and  C_33 
REMARK    2  A    between atoms: N_5  and  C_19 
REMARK    3  A    between atoms: N_6  and  C_20 
REMARK    4  A    between atoms: N_7  and  C_27 
REMARK       I    between atoms: N_9  and  C_28 
REMARK    5  A    between atoms: C_22  and  C_28 
ROOT
HETATM    1  O   UNK     0      23.852  27.654  36.038  0.00  0.00    -0.265 OA
HETATM    2  N   UNK     0      22.767  28.941  37.692  0.00  0.00    -0.312 N 
HETATM    3  N   UNK     0      21.212  26.832  35.050  0.00  0.00    -0.227 N 
HETATM    4  N   UNK     0      19.890  26.727  34.813  0.00  0.00    -0.161 NA
HETATM    5  C   UNK     0      20.251  29.250  37.527  0.00  0.00     0.064 C 
HETATM    6  C   UNK     0      21.487  29.120  38.436  0.00  0.00     0.137 C 
HETATM    7  C   UNK     0      20.321  28.230  36.467  0.00  0.00     0.014 A 
HETATM    8  C   UNK     0      21.522  27.718  36.041  0.00  0.00     0.136 A 
HETATM    9  C   UNK     0      22.823  28.083  36.553  0.00  0.00     0.277 C 
HETATM   10  C   UNK     0      19.350  27.587  35.683  0.00  0.00     0.153 A 
ENDROOT
BRANCH   2  11
HETATM   11  C   UNK     0      23.967  29.497  38.264  0.00  0.00     0.037 A 
HETATM   12  C   UNK     0      24.430  30.736  37.829  0.00  0.00     0.032 A 
HETATM   13  C   UNK     0      25.592  31.275  38.382  0.00  0.00     0.032 A 
HETATM   14  C   UNK     0      26.286  30.572  39.367  0.00  0.00     0.037 A 
HETATM   15  C   UNK     0      25.818  29.331  39.799  0.00  0.00     0.032 A 
HETATM   16  C   UNK     0      24.655  28.793  39.247  0.00  0.00     0.032 A 
BRANCH  14  17
HETATM   17  N   UNK     0      27.491  31.130  39.941  0.00  0.00    -0.318 N 
HETATM   18  C   UNK     0      28.677  31.219  39.073  0.00  0.00     0.132 C 
HETATM   19  C   UNK     0      29.997  31.283  39.823  0.00  0.00     0.021 C 
HETATM   20  C   UNK     0      29.919  32.370  40.872  0.00  0.00     0.011 C 
HETATM   21  C   UNK     0      28.815  32.026  41.848  0.00  0.00     0.103 C 
HETATM   22  C   UNK     0      27.467  31.749  41.204  0.00  0.00     0.224 C 
HETATM   23  O   UNK     0      26.451  32.026  41.846  0.00  0.00    -0.273 OA
ENDBRANCH  14  17
ENDBRANCH   2  11
BRANCH   3  24
HETATM   24  C   UNK     0      22.103  26.056  34.307  0.00  0.00     0.059 A 
HETATM   25  C   UNK     0      22.411  26.426  33.005  0.00  0.00     0.034 A 
HETATM   26  C   UNK     0      23.301  25.649  32.261  0.00  0.00     0.039 A 
HETATM   27  C   UNK     0      23.875  24.512  32.827  0.00  0.00     0.068 A 
HETATM   28  C   UNK     0      23.559  24.149  34.137  0.00  0.00     0.039 A 
HETATM   29  C   UNK     0      22.669  24.924  34.880  0.00  0.00     0.034 A 
BRANCH  27  30
HETATM   30  O   UNK     0      24.744  23.755  32.102  0.00  0.00    -0.356 OA
HETATM   31  C   UNK     0      25.918  23.295  32.770  0.00  0.00     0.210 C 
ENDBRANCH  27  30
ENDBRANCH   3  24
BRANCH  10  32
HETATM   32  C   UNK     0      17.926  27.762  35.719  0.00  0.00     0.270 C 
HETATM   33  O   UNK     0      17.357  28.614  36.432  0.00  0.00    -0.266 OA
HETATM   34  N   UNK     0      17.152  26.944  34.893  0.00  0.00    -0.365 N 
HETATM   35  H   UNK     0      17.566  26.243  34.288  0.00  0.00     0.159 HD
HETATM   36  H   UNK     0      16.142  27.031  34.875  0.00  0.00     0.159 HD
ENDBRANCH  10  32
TORSDOF 5
ENDMDL
MODEL 2
REMARK VINA RESULT:      -9.3      2.997      9.244
REMARK  5 active torsions:
REMARK  status: ('A' for Active; 'I' for Inactive)
REMARK    1  A    between atoms: O_4  and  C_33 
REMARK    2  A    between atoms: N_5  and  C_19 
REMARK    3  A    between atoms: N_6  and  C_20 
REMARK    4  A    between atoms: N_7  and  C_27 
REMARK       I    between atoms: N_9  and  C_28 
REMARK    5  A    between atoms: C_22  and  C_28 
ROOT
HETATM    1  O   UNK     0      25.394  28.604  37.856  0.00  0.00    -0.265 OA
HETATM    2  N   UNK     0      23.854  26.831  38.092  0.00  0.00    -0.312 N 
HETATM    3  N   UNK     0      26.031  28.333  40.710  0.00  0.00    -0.227 N 
HETATM    4  N   UNK     0      26.140  27.896  41.979  0.00  0.00    -0.161 NA
HETATM    5  C   UNK     0      23.851  25.513  40.263  0.00  0.00     0.064 C 
HETATM    6  C   UNK     0      23.040  26.061  39.076  0.00  0.00     0.137 C 
HETATM    7  C   UNK     0      24.757  26.563  40.757  0.00  0.00     0.014 A 
HETATM    8  C   UNK     0      25.205  27.569  39.936  0.00  0.00     0.136 A 
HETATM    9  C   UNK     0      24.861  27.737  38.543  0.00  0.00     0.277 C 
HETATM   10  C   UNK     0      25.359  26.810  42.001  0.00  0.00     0.153 A 
ENDROOT
BRANCH   2  11
HETATM   11  C   UNK     0      23.469  26.777  36.704  0.00  0.00     0.037 A 
HETATM   12  C   UNK     0      23.996  25.788  35.878  0.00  0.00     0.032 A 
HETATM   13  C   UNK     0      23.624  25.737  34.535  0.00  0.00     0.032 A 
HETATM   14  C   UNK     0      22.727  26.675  34.023  0.00  0.00     0.037 A 
HETATM   15  C   UNK     0      22.202  27.664  34.855  0.00  0.00     0.032 A 
HETATM   16  C   UNK     0      22.574  27.715  36.199  0.00  0.00     0.032 A 
BRANCH  14  17
HETATM   17  N   UNK     0      22.341  26.622  32.630  0.00  0.00    -0.318 N 
HETATM   18  C   UNK     0      23.402  26.805  31.625  0.00  0.00     0.132 C 
HETATM   19  C   UNK     0      22.902  27.275  30.269  0.00  0.00     0.021 C 
HETATM   20  C   UNK     0      21.774  26.377  29.816  0.00  0.00     0.011 C 
HETATM   21  C   UNK     0      20.643  26.474  30.817  0.00  0.00     0.103 C 
HETATM   22  C   UNK     0      21.050  26.208  32.256  0.00  0.00     0.224 C 
HETATM   23  O   UNK     0      20.212  25.706  33.011  0.00  0.00    -0.273 OA
ENDBRANCH  14  17
ENDBRANCH   2  11
BRANCH   3  24
HETATM   24  C   UNK     0      26.728  29.477  40.319  0.00  0.00     0.059 A 
HETATM   25  C   UNK     0      26.093  30.711  40.356  0.00  0.00     0.034 A 
HETATM   26  C   UNK     0      26.790  31.855  39.965  0.00  0.00     0.039 A 
HETATM   27  C   UNK     0      28.114  31.755  39.542  0.00  0.00     0.068 A 
HETATM   28  C   UNK     0      28.744  30.510  39.510  0.00  0.00     0.039 A 
HETATM   29  C   UNK     0      28.048  29.366  39.900  0.00  0.00     0.034 A 
BRANCH  27  30
HETATM   30  O   UNK     0      28.795  32.871  39.162  0.00  0.00    -0.356 OA
HETATM   31  C   UNK     0      30.155  32.699  38.764  0.00  0.00     0.210 C 
ENDBRANCH  27  30
ENDBRANCH   3  24
BRANCH  10  32
HETATM   32  C   UNK     0      25.229  26.052  43.212  0.00  0.00     0.270 C 
HETATM   33  O   UNK     0      25.638  24.879  43.335  0.00  0.00    -0.266 OA
HETATM   34  N   UNK     0      24.633  26.679  44.308  0.00  0.00    -0.365 N 
HETATM   35  H   UNK     0      24.293  27.634  44.264  0.00  0.00     0.159 HD
HETATM   36  H   UNK     0      24.524  26.192  45.191  0.00  0.00     0.159 HD
ENDBRANCH  10  32
TORSDOF 5
ENDMDL
MODEL 3
REMARK VINA RESULT:      -9.2      2.950      9.992
REMARK  5 active torsions:
REMARK  status: ('A' for Active; 'I' for Inactive)
REMARK    1  A    between atoms: O_4  and  C_33 
REMARK    2  A    between atoms: N_5  and  C_19 
REMARK    3  A    between atoms: N_6  and  C_20 
REMARK    4  A    between atoms: N_7  and  C_27 
REMARK       I    between atoms: N_9  and  C_28 
REMARK    5  A    between atoms: C_22  and  C_28 
ROOT
HETATM    1  O   UNK     0      24.466  28.899  40.362  0.00  0.00    -0.265 OA
HETATM    2  N   UNK     0      25.005  29.416  38.123  0.00  0.00    -0.312 N 
HETATM    3  N   UNK     0      27.060  30.016  41.167  0.00  0.00    -0.227 N 
HETATM    4  N   UNK     0      28.245  30.656  41.194  0.00  0.00    -0.161 NA
HETATM    5  C   UNK     0      27.055  30.845  37.671  0.00  0.00     0.064 C 
HETATM    6  C   UNK     0      26.129  29.715  37.190  0.00  0.00     0.137 C 
HETATM    7  C   UNK     0      27.351  30.653  39.101  0.00  0.00     0.014 A 
HETATM    8  C   UNK     0      26.485  29.980  39.929  0.00  0.00     0.136 A 
HETATM    9  C   UNK     0      25.229  29.388  39.533  0.00  0.00     0.277 C 
HETATM   10  C   UNK     0      28.416  31.046  39.927  0.00  0.00     0.153 A 
ENDROOT
BRANCH   2  11
HETATM   11  C   UNK     0      23.754  28.973  37.559  0.00  0.00     0.037 A 
HETATM   12  C   UNK     0      23.717  27.819  36.782  0.00  0.00     0.032 A 
HETATM   13  C   UNK     0      22.507  27.391  36.234  0.00  0.00     0.032 A 
HETATM   14  C   UNK     0      21.340  28.119  36.468  0.00  0.00     0.037 A 
HETATM   15  C   UNK     0      21.383  29.274  37.249  0.00  0.00     0.032 A 
HETATM   16  C   UNK     0      22.593  29.702  37.796  0.00  0.00     0.032 A 
BRANCH  14  17
HETATM   17  N   UNK     0      20.086  27.676  35.902  0.00  0.00    -0.318 N 
HETATM   18  C   UNK     0      20.141  26.636  34.861  0.00  0.00     0.132 C 
HETATM   19  C   UNK     0      18.926  26.600  33.948  0.00  0.00     0.021 C 
HETATM   20  C   UNK     0      17.672  26.559  34.791  0.00  0.00     0.011 C 
HETATM   21  C   UNK     0      17.615  27.812  35.638  0.00  0.00     0.103 C 
HETATM   22  C   UNK     0      18.860  28.070  36.469  0.00  0.00     0.224 C 
HETATM   23  O   UNK     0      18.726  28.655  37.547  0.00  0.00    -0.273 OA
ENDBRANCH  14  17
ENDBRANCH   2  11
BRANCH   3  24
HETATM   24  C   UNK     0      26.555  29.462  42.345  0.00  0.00     0.059 A 
HETATM   25  C   UNK     0      26.729  28.108  42.593  0.00  0.00     0.034 A 
HETATM   26  C   UNK     0      26.223  27.554  43.771  0.00  0.00     0.039 A 
HETATM   27  C   UNK     0      25.550  28.360  44.687  0.00  0.00     0.068 A 
HETATM   28  C   UNK     0      25.382  29.721  44.428  0.00  0.00     0.039 A 
HETATM   29  C   UNK     0      25.886  30.274  43.251  0.00  0.00     0.034 A 
BRANCH  27  30
HETATM   30  O   UNK     0      25.058  27.821  45.836  0.00  0.00    -0.356 OA
HETATM   31  C   UNK     0      25.719  28.167  47.052  0.00  0.00     0.210 C 
ENDBRANCH  27  30
ENDBRANCH   3  24
BRANCH  10  32
HETATM   32  C   UNK     0      29.591  31.785  39.562  0.00  0.00     0.270 C 
HETATM   33  O   UNK     0      30.736  31.287  39.542  0.00  0.00    -0.266 OA
HETATM   34  N   UNK     0      29.427  33.121  39.193  0.00  0.00    -0.365 N 
HETATM   35  H   UNK     0      28.517  33.571  39.184  0.00  0.00     0.159 HD
HETATM   36  H   UNK     0      30.223  33.687  38.919  0.00  0.00     0.159 HD
ENDBRANCH  10  32
TORSDOF 5
ENDMDL
