MODEL 1
REMARK VINA RESULT:      -8.5      0.000      0.000
REMARK  5 active torsions:
REMARK  status: ('A' for Active; 'I' for Inactive)
REMARK    1  A    between atoms: O_4  and  C_33 
REMARK    2  A    between atoms: N_5  and  C_19 
REMARK    3  A    between atoms: N_6  and  C_20 
REMARK    4  A    between atoms: N_7  and  C_27 
REMARK       I    between atoms: N_9  and  C_28 
REMARK    5  A    between atoms: C_22  and  C_28 
ROOT
HETATM    1  O   UNK     0     -11.445   5.401  -3.590  0.00  0.00    -0.265 OA
HETATM    2  N   UNK     0      -9.440   4.206  -3.244  0.00  0.00    -0.312 N 
HETATM    3  N   UNK     0     -11.256   6.373  -0.825  0.00  0.00    -0.227 N 
HETATM    4  N   UNK     0     -10.831   6.685   0.414  0.00  0.00    -0.161 NA
HETATM    5  C   UNK     0      -8.119   4.647  -1.120  0.00  0.00     0.064 C 
HETATM    6  C   UNK     0      -8.538   3.636  -2.202  0.00  0.00     0.137 C 
HETATM    7  C   UNK     0      -9.300   5.417  -0.695  0.00  0.00     0.014 A 
HETATM    8  C   UNK     0     -10.374   5.605  -1.530  0.00  0.00     0.136 A 
HETATM    9  C   UNK     0     -10.495   5.092  -2.875  0.00  0.00     0.277 C 
HETATM   10  C   UNK     0      -9.631   6.099   0.487  0.00  0.00     0.153 A 
ENDROOT
BRANCH   2  11
HETATM   11  C   UNK     0      -9.337   3.689  -4.586  0.00  0.00     0.037 A 
HETATM   12  C   UNK     0      -9.382   4.564  -5.668  0.00  0.00     0.032 A 
HETATM   13  C   UNK     0      -9.283   4.065  -6.967  0.00  0.00     0.032 A 
HETATM   14  C   UNK     0      -9.139   2.693  -7.179  0.00  0.00     0.037 A 
HETATM   15  C   UNK     0      -9.094   1.821  -6.090  0.00  0.00     0.032 A 
HETATM   16  C   UNK     0      -9.192   2.321  -4.791  0.00  0.00     0.032 A 
BRANCH  14  17
HETATM   17  N   UNK     0      -9.036   2.175  -8.524  0.00  0.00    -0.318 N 
HETATM   18  C   UNK     0      -7.690   2.085  -9.115  0.00  0.00     0.132 C 
HETATM   19  C   UNK     0      -7.675   2.066 -10.635  0.00  0.00     0.021 C 
HETATM   20  C   UNK     0      -8.636   1.007 -11.128  0.00  0.00     0.011 C 
HETATM   21  C   UNK     0     -10.029   1.356 -10.654  0.00  0.00     0.103 C 
HETATM   22  C   UNK     0     -10.148   1.589  -9.157  0.00  0.00     0.224 C 
HETATM   23  O   UNK     0     -11.218   1.309  -8.610  0.00  0.00    -0.273 OA
ENDBRANCH  14  17
ENDBRANCH   2  11
BRANCH   3  24
HETATM   24  C   UNK     0     -12.503   6.829  -1.255  0.00  0.00     0.059 A 
HETATM   25  C   UNK     0     -13.624   6.031  -1.069  0.00  0.00     0.034 A 
HETATM   26  C   UNK     0     -14.871   6.486  -1.500  0.00  0.00     0.039 A 
HETATM   27  C   UNK     0     -14.986   7.734  -2.110  0.00  0.00     0.068 A 
HETATM   28  C   UNK     0     -13.853   8.529  -2.291  0.00  0.00     0.039 A 
HETATM   29  C   UNK     0     -12.606   8.073  -1.862  0.00  0.00     0.034 A 
BRANCH  27  30
HETATM   30  O   UNK     0     -16.202   8.179  -2.528  0.00  0.00    -0.356 OA
HETATM   31  C   UNK     0     -17.347   7.703  -1.822  0.00  0.00     0.210 C 
ENDBRANCH  27  30
ENDBRANCH   3  24
BRANCH  10  32
HETATM   32  C   UNK     0      -8.851   6.223   1.685  0.00  0.00     0.270 C 
HETATM   33  O   UNK     0      -8.405   5.244   2.318  0.00  0.00    -0.266 OA
HETATM   34  N   UNK     0      -8.565   7.511   2.141  0.00  0.00    -0.365 N 
HETATM   35  H   UNK     0      -8.895   8.340   1.657  0.00  0.00     0.159 HD
HETATM   36  H   UNK     0      -8.011   7.656   2.978  0.00  0.00     0.159 HD
ENDBRANCH  10  32
TORSDOF 5
ENDMDL
MODEL 2
REMARK VINA RESULT:      -8.2      3.175      5.372
REMARK  5 active torsions:
REMARK  status: ('A' for Active; 'I' for Inactive)
REMARK    1  A    between atoms: O_4  and  C_33 
REMARK    2  A    between atoms: N_5  and  C_19 
REMARK    3  A    between atoms: N_6  and  C_20 
REMARK    4  A    between atoms: N_7  and  C_27 
REMARK       I    between atoms: N_9  and  C_28 
REMARK    5  A    between atoms: C_22  and  C_28 
ROOT
HETATM    1  O   UNK     0      -9.160   3.577  -1.486  0.00  0.00    -0.265 OA
HETATM    2  N   UNK     0      -9.030   4.154  -3.770  0.00  0.00    -0.312 N 
HETATM    3  N   UNK     0     -10.789   5.980  -1.046  0.00  0.00    -0.227 N 
HETATM    4  N   UNK     0     -11.552   7.078  -1.209  0.00  0.00    -0.161 NA
HETATM    5  C   UNK     0     -10.501   6.040  -4.627  0.00  0.00     0.064 C 
HETATM    6  C   UNK     0      -9.169   5.278  -4.742  0.00  0.00     0.137 C 
HETATM    7  C   UNK     0     -10.794   6.289  -3.206  0.00  0.00     0.014 A 
HETATM    8  C   UNK     0     -10.303   5.472  -2.217  0.00  0.00     0.136 A 
HETATM    9  C   UNK     0      -9.464   4.314  -2.420  0.00  0.00     0.277 C 
HETATM   10  C   UNK     0     -11.553   7.261  -2.534  0.00  0.00     0.153 A 
ENDROOT
BRANCH   2  11
HETATM   11  C   UNK     0      -8.281   2.993  -4.180  0.00  0.00     0.037 A 
HETATM   12  C   UNK     0      -8.894   2.013  -4.956  0.00  0.00     0.032 A 
HETATM   13  C   UNK     0      -8.170   0.888  -5.351  0.00  0.00     0.032 A 
HETATM   14  C   UNK     0      -6.836   0.748  -4.968  0.00  0.00     0.037 A 
HETATM   15  C   UNK     0      -6.226   1.733  -4.190  0.00  0.00     0.032 A 
HETATM   16  C   UNK     0      -6.951   2.858  -3.796  0.00  0.00     0.032 A 
BRANCH  14  17
HETATM   17  N   UNK     0      -6.084  -0.417  -5.378  0.00  0.00    -0.318 N 
HETATM   18  C   UNK     0      -6.399  -1.695  -4.715  0.00  0.00     0.132 C 
HETATM   19  C   UNK     0      -5.277  -2.718  -4.765  0.00  0.00     0.021 C 
HETATM   20  C   UNK     0      -4.802  -2.866  -6.193  0.00  0.00     0.011 C 
HETATM   21  C   UNK     0      -4.273  -1.532  -6.670  0.00  0.00     0.103 C 
HETATM   22  C   UNK     0      -5.240  -0.372  -6.502  0.00  0.00     0.224 C 
HETATM   23  O   UNK     0      -5.183   0.553  -7.317  0.00  0.00    -0.273 OA
ENDBRANCH  14  17
ENDBRANCH   2  11
BRANCH   3  24
HETATM   24  C   UNK     0     -10.563   5.490   0.241  0.00  0.00     0.059 A 
HETATM   25  C   UNK     0     -11.459   4.587   0.796  0.00  0.00     0.034 A 
HETATM   26  C   UNK     0     -11.234   4.097   2.083  0.00  0.00     0.039 A 
HETATM   27  C   UNK     0     -10.116   4.514   2.802  0.00  0.00     0.068 A 
HETATM   28  C   UNK     0      -9.220   5.422   2.235  0.00  0.00     0.039 A 
HETATM   29  C   UNK     0      -9.446   5.912   0.949  0.00  0.00     0.034 A 
BRANCH  27  30
HETATM   30  O   UNK     0      -9.895   4.036   4.058  0.00  0.00    -0.356 OA
HETATM   31  C   UNK     0     -10.281   2.687   4.316  0.00  0.00     0.210 C 
ENDBRANCH  27  30
ENDBRANCH   3  24
BRANCH  10  32
HETATM   32  C   UNK     0     -12.288   8.356  -3.100  0.00  0.00     0.270 C 
HETATM   33  O   UNK     0     -12.975   8.258  -4.137  0.00  0.00    -0.266 OA
HETATM   34  N   UNK     0     -12.241   9.581  -2.432  0.00  0.00    -0.365 N 
HETATM   35  H   UNK     0     -11.705   9.711  -1.581  0.00  0.00     0.159 HD
HETATM   36  H   UNK     0     -12.748  10.386  -2.785  0.00  0.00     0.159 HD
ENDBRANCH  10  32
TORSDOF 5
ENDMDL
MODEL 3
REMARK VINA RESULT:      -8.1      3.966     11.236
REMARK  5 active torsions:
REMARK  status: ('A' for Active; 'I' for Inactive)
REMARK    1  A    between atoms: O_4  and  C_33 
REMARK    2  A    between atoms: N_5  and  C_19 
REMARK    3  A    between atoms: N_6  and  C_20 
REMARK    4  A    between atoms: N_7  and  C_27 
REMARK       I    between atoms: N_9  and  C_28 
REMARK    5  A    between atoms: C_22  and  C_28 
ROOT
HETATM    1  O   UNK     0      -6.792   0.155  -5.529  0.00  0.00    -0.265 OA
HETATM    2  N   UNK     0      -8.324   1.828  -6.181  0.00  0.00    -0.312 N 
HETATM    3  N   UNK     0      -6.766  -0.799  -8.307  0.00  0.00    -0.227 N 
HETATM    4  N   UNK     0      -6.921  -0.918  -9.639  0.00  0.00    -0.161 NA
HETATM    5  C   UNK     0      -8.767   2.163  -8.660  0.00  0.00     0.064 C 
HETATM    6  C   UNK     0      -9.318   2.215  -7.224  0.00  0.00     0.137 C 
HETATM    7  C   UNK     0      -7.998   0.920  -8.838  0.00  0.00     0.014 A 
HETATM    8  C   UNK     0      -7.401   0.286  -7.776  0.00  0.00     0.136 A 
HETATM    9  C   UNK     0      -7.447   0.723  -6.400  0.00  0.00     0.277 C 
HETATM   10  C   UNK     0      -7.674   0.139  -9.959  0.00  0.00     0.153 A 
ENDROOT
BRANCH   2  11
HETATM   11  C   UNK     0      -8.408   2.468  -4.893  0.00  0.00     0.037 A 
HETATM   12  C   UNK     0      -9.426   2.115  -4.011  0.00  0.00     0.032 A 
HETATM   13  C   UNK     0      -9.508   2.736  -2.764  0.00  0.00     0.032 A 
HETATM   14  C   UNK     0      -8.572   3.706  -2.404  0.00  0.00     0.037 A 
HETATM   15  C   UNK     0      -7.554   4.055  -3.292  0.00  0.00     0.032 A 
HETATM   16  C   UNK     0      -7.472   3.434  -4.539  0.00  0.00     0.032 A 
BRANCH  14  17
HETATM   17  N   UNK     0      -8.657   4.349  -1.112  0.00  0.00    -0.318 N 
HETATM   18  C   UNK     0      -7.765   3.855  -0.049  0.00  0.00     0.132 C 
HETATM   19  C   UNK     0      -8.246   4.158   1.360  0.00  0.00     0.021 C 
HETATM   20  C   UNK     0      -8.575   5.630   1.468  0.00  0.00     0.011 C 
HETATM   21  C   UNK     0      -9.683   5.953   0.490  0.00  0.00     0.103 C 
HETATM   22  C   UNK     0      -9.406   5.528  -0.942  0.00  0.00     0.224 C 
HETATM   23  O   UNK     0      -9.899   6.200  -1.852  0.00  0.00    -0.273 OA
ENDBRANCH  14  17
ENDBRANCH   2  11
BRANCH   3  24
HETATM   24  C   UNK     0      -6.016  -1.755  -7.618  0.00  0.00     0.059 A 
HETATM   25  C   UNK     0      -4.646  -1.580  -7.479  0.00  0.00     0.034 A 
HETATM   26  C   UNK     0      -3.897  -2.536  -6.792  0.00  0.00     0.039 A 
HETATM   27  C   UNK     0      -4.525  -3.656  -6.249  0.00  0.00     0.068 A 
HETATM   28  C   UNK     0      -5.903  -3.822  -6.394  0.00  0.00     0.039 A 
HETATM   29  C   UNK     0      -6.652  -2.867  -7.082  0.00  0.00     0.034 A 
BRANCH  27  30
HETATM   30  O   UNK     0      -3.795  -4.588  -5.578  0.00  0.00    -0.356 OA
HETATM   31  C   UNK     0      -2.375  -4.512  -5.697  0.00  0.00     0.210 C 
ENDBRANCH  27  30
ENDBRANCH   3  24
BRANCH  10  32
HETATM   32  C   UNK     0      -8.047   0.359 -11.327  0.00  0.00     0.270 C 
HETATM   33  O   UNK     0      -8.901  -0.328 -11.925  0.00  0.00    -0.266 OA
HETATM   34  N   UNK     0      -7.430   1.413 -12.005  0.00  0.00    -0.365 N 
HETATM   35  H   UNK     0      -6.737   2.007 -11.562  0.00  0.00     0.159 HD
HETATM   36  H   UNK     0      -7.663   1.617 -12.971  0.00  0.00     0.159 HD
ENDBRANCH  10  32
TORSDOF 5
ENDMDL
