MODEL 1
REMARK VINA RESULT:      -6.9      0.000      0.000
REMARK  5 active torsions:
REMARK  status: ('A' for Active; 'I' for Inactive)
REMARK    1  A    between atoms: O_4  and  C_33 
REMARK    2  A    between atoms: N_5  and  C_19 
REMARK    3  A    between atoms: N_6  and  C_20 
REMARK    4  A    between atoms: N_7  and  C_27 
REMARK       I    between atoms: N_9  and  C_28 
REMARK    5  A    between atoms: C_22  and  C_28 
ROOT
HETATM    1  O   UNK     0      22.952  23.349  39.650  0.00  0.00    -0.265 OA
HETATM    2  N   UNK     0      22.110  22.870  37.498  0.00  0.00    -0.312 N 
HETATM    3  N   UNK     0      21.218  21.235  40.720  0.00  0.00    -0.227 N 
HETATM    4  N   UNK     0      20.390  20.181  40.857  0.00  0.00    -0.161 NA
HETATM    5  C   UNK     0      20.673  20.798  37.196  0.00  0.00     0.064 C 
HETATM    6  C   UNK     0      20.980  22.240  36.756  0.00  0.00     0.137 C 
HETATM    7  C   UNK     0      20.685  20.727  38.666  0.00  0.00     0.014 A 
HETATM    8  C   UNK     0      21.421  21.607  39.422  0.00  0.00     0.136 A 
HETATM    9  C   UNK     0      22.241  22.678  38.906  0.00  0.00     0.277 C 
HETATM   10  C   UNK     0      20.069  19.873  39.595  0.00  0.00     0.153 A 
ENDROOT
BRANCH   2  11
HETATM   11  C   UNK     0      22.938  23.818  36.796  0.00  0.00     0.037 A 
HETATM   12  C   UNK     0      24.096  23.383  36.156  0.00  0.00     0.032 A 
HETATM   13  C   UNK     0      24.898  24.300  35.477  0.00  0.00     0.032 A 
HETATM   14  C   UNK     0      24.539  25.648  35.440  0.00  0.00     0.037 A 
HETATM   15  C   UNK     0      23.377  26.078  36.083  0.00  0.00     0.032 A 
HETATM   16  C   UNK     0      22.575  25.160  36.761  0.00  0.00     0.032 A 
BRANCH  14  17
HETATM   17  N   UNK     0      25.369  26.600  34.736  0.00  0.00    -0.318 N 
HETATM   18  C   UNK     0      26.820  26.548  34.985  0.00  0.00     0.132 C 
HETATM   19  C   UNK     0      27.553  27.844  34.680  0.00  0.00     0.021 C 
HETATM   20  C   UNK     0      27.184  28.308  33.289  0.00  0.00     0.011 C 
HETATM   21  C   UNK     0      25.693  28.563  33.241  0.00  0.00     0.103 C 
HETATM   22  C   UNK     0      24.838  27.396  33.706  0.00  0.00     0.224 C 
HETATM   23  O   UNK     0      23.721  27.258  33.198  0.00  0.00    -0.273 OA
ENDBRANCH  14  17
ENDBRANCH   2  11
BRANCH   3  24
HETATM   24  C   UNK     0      21.758  21.832  41.860  0.00  0.00     0.059 A 
HETATM   25  C   UNK     0      22.918  21.314  42.418  0.00  0.00     0.034 A 
HETATM   26  C   UNK     0      23.458  21.910  43.559  0.00  0.00     0.039 A 
HETATM   27  C   UNK     0      22.833  23.018  44.129  0.00  0.00     0.068 A 
HETATM   28  C   UNK     0      21.668  23.532  43.559  0.00  0.00     0.039 A 
HETATM   29  C   UNK     0      21.128  22.935  42.420  0.00  0.00     0.034 A 
BRANCH  27  30
HETATM   30  O   UNK     0      23.360  23.601  45.241  0.00  0.00    -0.356 OA
HETATM   31  C   UNK     0      22.542  24.544  45.930  0.00  0.00     0.210 C 
ENDBRANCH  27  30
ENDBRANCH   3  24
BRANCH  10  32
HETATM   32  C   UNK     0      19.191  18.769  39.335  0.00  0.00     0.270 C 
HETATM   33  O   UNK     0      18.088  18.621  39.901  0.00  0.00    -0.266 OA
HETATM   34  N   UNK     0      19.593  17.832  38.381  0.00  0.00    -0.365 N 
HETATM   35  H   UNK     0      20.476  17.911  37.886  0.00  0.00     0.159 HD
HETATM   36  H   UNK     0      19.007  17.036  38.153  0.00  0.00     0.159 HD
ENDBRANCH  10  32
TORSDOF 5
ENDMDL
MODEL 2
REMARK VINA RESULT:      -6.8     26.836     28.180
REMARK  5 active torsions:
REMARK  status: ('A' for Active; 'I' for Inactive)
REMARK    1  A    between atoms: O_4  and  C_33 
REMARK    2  A    between atoms: N_5  and  C_19 
REMARK    3  A    between atoms: N_6  and  C_20 
REMARK    4  A    between atoms: N_7  and  C_27 
REMARK       I    between atoms: N_9  and  C_28 
REMARK    5  A    between atoms: C_22  and  C_28 
ROOT
HETATM    1  O   UNK     0      39.888   3.530  32.039  0.00  0.00    -0.265 OA
HETATM    2  N   UNK     0      41.299   3.129  30.190  0.00  0.00    -0.312 N 
HETATM    3  N   UNK     0      42.237   3.299  33.787  0.00  0.00    -0.227 N 
HETATM    4  N   UNK     0      43.491   3.217  34.270  0.00  0.00    -0.161 NA
HETATM    5  C   UNK     0      43.811   3.130  30.562  0.00  0.00     0.064 C 
HETATM    6  C   UNK     0      42.616   2.565  29.775  0.00  0.00     0.137 C 
HETATM    7  C   UNK     0      43.474   3.167  31.995  0.00  0.00     0.014 A 
HETATM    8  C   UNK     0      42.172   3.266  32.423  0.00  0.00     0.136 A 
HETATM    9  C   UNK     0      41.007   3.334  31.572  0.00  0.00     0.277 C 
HETATM   10  C   UNK     0      44.244   3.140  33.168  0.00  0.00     0.153 A 
ENDROOT
BRANCH   2  11
HETATM   11  C   UNK     0      40.277   3.276  29.183  0.00  0.00     0.037 A 
HETATM   12  C   UNK     0      40.204   2.364  28.135  0.00  0.00     0.032 A 
HETATM   13  C   UNK     0      39.216   2.507  27.160  0.00  0.00     0.032 A 
HETATM   14  C   UNK     0      38.305   3.561  27.239  0.00  0.00     0.037 A 
HETATM   15  C   UNK     0      38.383   4.472  28.293  0.00  0.00     0.032 A 
HETATM   16  C   UNK     0      39.371   4.328  29.268  0.00  0.00     0.032 A 
BRANCH  14  17
HETATM   17  N   UNK     0      37.281   3.709  26.229  0.00  0.00    -0.318 N 
HETATM   18  C   UNK     0      35.996   3.027  26.462  0.00  0.00     0.132 C 
HETATM   19  C   UNK     0      35.194   2.759  25.199  0.00  0.00     0.021 C 
HETATM   20  C   UNK     0      35.076   4.040  24.404  0.00  0.00     0.011 C 
HETATM   21  C   UNK     0      36.464   4.501  24.016  0.00  0.00     0.103 C 
HETATM   22  C   UNK     0      37.434   4.632  25.179  0.00  0.00     0.224 C 
HETATM   23  O   UNK     0      38.319   5.488  25.101  0.00  0.00    -0.273 OA
ENDBRANCH  14  17
ENDBRANCH   2  11
BRANCH   3  24
HETATM   24  C   UNK     0      41.166   3.394  34.677  0.00  0.00     0.059 A 
HETATM   25  C   UNK     0      40.197   4.368  34.481  0.00  0.00     0.034 A 
HETATM   26  C   UNK     0      39.127   4.464  35.372  0.00  0.00     0.039 A 
HETATM   27  C   UNK     0      39.035   3.583  36.449  0.00  0.00     0.068 A 
HETATM   28  C   UNK     0      40.014   2.606  36.636  0.00  0.00     0.039 A 
HETATM   29  C   UNK     0      41.084   2.512  35.747  0.00  0.00     0.034 A 
BRANCH  27  30
HETATM   30  O   UNK     0      37.991   3.675  37.317  0.00  0.00    -0.356 OA
HETATM   31  C   UNK     0      37.077   4.753  37.122  0.00  0.00     0.210 C 
ENDBRANCH  27  30
ENDBRANCH   3  24
BRANCH  10  32
HETATM   32  C   UNK     0      45.671   3.048  33.287  0.00  0.00     0.270 C 
HETATM   33  O   UNK     0      46.446   3.110  32.310  0.00  0.00    -0.266 OA
HETATM   34  N   UNK     0      46.207   2.907  34.568  0.00  0.00    -0.365 N 
HETATM   35  H   UNK     0      45.621   2.861  35.396  0.00  0.00     0.159 HD
HETATM   36  H   UNK     0      47.209   2.845  34.709  0.00  0.00     0.159 HD
ENDBRANCH  10  32
TORSDOF 5
ENDMDL
MODEL 3
REMARK VINA RESULT:      -6.7      0.530      1.286
REMARK  5 active torsions:
REMARK  status: ('A' for Active; 'I' for Inactive)
REMARK    1  A    between atoms: O_4  and  C_33 
REMARK    2  A    between atoms: N_5  and  C_19 
REMARK    3  A    between atoms: N_6  and  C_20 
REMARK    4  A    between atoms: N_7  and  C_27 
REMARK       I    between atoms: N_9  and  C_28 
REMARK    5  A    between atoms: C_22  and  C_28 
ROOT
HETATM    1  O   UNK     0      23.047  23.372  39.727  0.00  0.00    -0.265 OA
HETATM    2  N   UNK     0      22.260  22.804  37.575  0.00  0.00    -0.312 N 
HETATM    3  N   UNK     0      21.347  21.246  40.829  0.00  0.00    -0.227 N 
HETATM    4  N   UNK     0      20.544  20.176  40.983  0.00  0.00    -0.161 NA
HETATM    5  C   UNK     0      20.883  20.686  37.311  0.00  0.00     0.064 C 
HETATM    6  C   UNK     0      21.162  22.122  36.832  0.00  0.00     0.137 C 
HETATM    7  C   UNK     0      20.868  20.661  38.783  0.00  0.00     0.014 A 
HETATM    8  C   UNK     0      21.566  21.583  39.524  0.00  0.00     0.136 A 
HETATM    9  C   UNK     0      22.368  22.660  38.991  0.00  0.00     0.277 C 
HETATM   10  C   UNK     0      20.256  19.821  39.726  0.00  0.00     0.153 A 
ENDROOT
BRANCH   2  11
HETATM   11  C   UNK     0      23.077  23.751  36.859  0.00  0.00     0.037 A 
HETATM   12  C   UNK     0      22.739  25.102  36.869  0.00  0.00     0.032 A 
HETATM   13  C   UNK     0      23.529  26.019  36.175  0.00  0.00     0.032 A 
HETATM   14  C   UNK     0      24.654  25.581  35.474  0.00  0.00     0.037 A 
HETATM   15  C   UNK     0      24.988  24.226  35.468  0.00  0.00     0.032 A 
HETATM   16  C   UNK     0      24.198  23.310  36.163  0.00  0.00     0.032 A 
BRANCH  14  17
HETATM   17  N   UNK     0      25.473  26.531  34.755  0.00  0.00    -0.318 N 
HETATM   18  C   UNK     0      26.926  26.486  34.989  0.00  0.00     0.132 C 
HETATM   19  C   UNK     0      27.651  27.782  34.667  0.00  0.00     0.021 C 
HETATM   20  C   UNK     0      27.265  28.236  33.277  0.00  0.00     0.011 C 
HETATM   21  C   UNK     0      25.773  28.485  33.244  0.00  0.00     0.103 C 
HETATM   22  C   UNK     0      24.927  27.318  33.725  0.00  0.00     0.224 C 
HETATM   23  O   UNK     0      23.806  27.173  33.231  0.00  0.00    -0.273 OA
ENDBRANCH  14  17
ENDBRANCH   2  11
BRANCH   3  24
HETATM   24  C   UNK     0      21.849  21.892  41.960  0.00  0.00     0.059 A 
HETATM   25  C   UNK     0      21.188  23.006  42.461  0.00  0.00     0.034 A 
HETATM   26  C   UNK     0      21.691  23.652  43.591  0.00  0.00     0.039 A 
HETATM   27  C   UNK     0      22.847  23.179  44.209  0.00  0.00     0.068 A 
HETATM   28  C   UNK     0      23.503  22.058  43.698  0.00  0.00     0.039 A 
HETATM   29  C   UNK     0      23.001  21.412  42.568  0.00  0.00     0.034 A 
BRANCH  27  30
HETATM   30  O   UNK     0      23.337  23.808  45.313  0.00  0.00    -0.356 OA
HETATM   31  C   UNK     0      22.426  24.613  46.060  0.00  0.00     0.210 C 
ENDBRANCH  27  30
ENDBRANCH   3  24
BRANCH  10  32
HETATM   32  C   UNK     0      19.412  18.686  39.484  0.00  0.00     0.270 C 
HETATM   33  O   UNK     0      19.030  18.346  38.345  0.00  0.00    -0.266 OA
HETATM   34  N   UNK     0      19.026  17.919  40.585  0.00  0.00    -0.365 N 
HETATM   35  H   UNK     0      19.317  18.147  41.530  0.00  0.00     0.159 HD
HETATM   36  H   UNK     0      18.436  17.102  40.468  0.00  0.00     0.159 HD
ENDBRANCH  10  32
TORSDOF 5
ENDMDL
