MODEL 1
REMARK VINA RESULT:     -10.9      0.000      0.000
REMARK  5 active torsions:
REMARK  status: ('A' for Active; 'I' for Inactive)
REMARK    1  A    between atoms: O_4  and  C_33 
REMARK    2  A    between atoms: N_5  and  C_19 
REMARK    3  A    between atoms: N_6  and  C_20 
REMARK    4  A    between atoms: N_7  and  C_27 
REMARK       I    between atoms: N_9  and  C_28 
REMARK    5  A    between atoms: C_22  and  C_28 
ROOT
HETATM    1  O   UNK     0     -21.224  11.947  16.580  0.00  0.00    -0.265 OA
HETATM    2  N   UNK     0     -22.507  10.634  15.096  0.00  0.00    -0.312 N 
HETATM    3  N   UNK     0     -22.111  14.334  15.117  0.00  0.00    -0.227 N 
HETATM    4  N   UNK     0     -22.755  15.192  14.304  0.00  0.00    -0.161 NA
HETATM    5  C   UNK     0     -24.096  11.812  13.504  0.00  0.00     0.064 C 
HETATM    6  C   UNK     0     -23.161  10.617  13.756  0.00  0.00     0.137 C 
HETATM    7  C   UNK     0     -23.435  13.048  13.956  0.00  0.00     0.014 A 
HETATM    8  C   UNK     0     -22.479  13.031  14.942  0.00  0.00     0.136 A 
HETATM    9  C   UNK     0     -22.004  11.856  15.635  0.00  0.00     0.277 C 
HETATM   10  C   UNK     0     -23.567  14.398  13.597  0.00  0.00     0.153 A 
ENDROOT
BRANCH   2  11
HETATM   11  C   UNK     0     -22.230   9.370  15.732  0.00  0.00     0.037 A 
HETATM   12  C   UNK     0     -23.268   8.474  15.969  0.00  0.00     0.032 A 
HETATM   13  C   UNK     0     -23.001   7.251  16.585  0.00  0.00     0.032 A 
HETATM   14  C   UNK     0     -21.697   6.930  16.962  0.00  0.00     0.037 A 
HETATM   15  C   UNK     0     -20.660   7.833  16.722  0.00  0.00     0.032 A 
HETATM   16  C   UNK     0     -20.927   9.055  16.105  0.00  0.00     0.032 A 
BRANCH  14  17
HETATM   17  N   UNK     0     -21.418   5.663  17.601  0.00  0.00    -0.318 N 
HETATM   18  C   UNK     0     -22.341   4.549  17.327  0.00  0.00     0.132 C 
HETATM   19  C   UNK     0     -22.339   3.461  18.388  0.00  0.00     0.021 C 
HETATM   20  C   UNK     0     -20.915   3.029  18.654  0.00  0.00     0.011 C 
HETATM   21  C   UNK     0     -20.134   4.219  19.168  0.00  0.00     0.103 C 
HETATM   22  C   UNK     0     -20.207   5.452  18.283  0.00  0.00     0.224 C 
HETATM   23  O   UNK     0     -19.233   6.210  18.265  0.00  0.00    -0.273 OA
ENDBRANCH  14  17
ENDBRANCH   2  11
BRANCH   3  24
HETATM   24  C   UNK     0     -21.162  14.826  16.015  0.00  0.00     0.059 A 
HETATM   25  C   UNK     0     -21.574  15.307  17.251  0.00  0.00     0.034 A 
HETATM   26  C   UNK     0     -20.626  15.799  18.148  0.00  0.00     0.039 A 
HETATM   27  C   UNK     0     -19.275  15.805  17.802  0.00  0.00     0.068 A 
HETATM   28  C   UNK     0     -18.871  15.319  16.558  0.00  0.00     0.039 A 
HETATM   29  C   UNK     0     -19.820  14.827  15.661  0.00  0.00     0.034 A 
BRANCH  27  30
HETATM   30  O   UNK     0     -18.350  16.285  18.678  0.00  0.00    -0.356 OA
HETATM   31  C   UNK     0     -18.802  16.600  19.994  0.00  0.00     0.210 C 
ENDBRANCH  27  30
ENDBRANCH   3  24
BRANCH  10  32
HETATM   32  C   UNK     0     -24.439  14.970  12.611  0.00  0.00     0.270 C 
HETATM   33  O   UNK     0     -25.108  16.006  12.805  0.00  0.00    -0.266 OA
HETATM   34  N   UNK     0     -24.515  14.339  11.368  0.00  0.00    -0.365 N 
HETATM   35  H   UNK     0     -23.984  13.500  11.156  0.00  0.00     0.159 HD
HETATM   36  H   UNK     0     -25.110  14.706  10.633  0.00  0.00     0.159 HD
ENDBRANCH  10  32
TORSDOF 5
ENDMDL
MODEL 2
REMARK VINA RESULT:      -9.9      2.936     10.431
REMARK  5 active torsions:
REMARK  status: ('A' for Active; 'I' for Inactive)
REMARK    1  A    between atoms: O_4  and  C_33 
REMARK    2  A    between atoms: N_5  and  C_19 
REMARK    3  A    between atoms: N_6  and  C_20 
REMARK    4  A    between atoms: N_7  and  C_27 
REMARK       I    between atoms: N_9  and  C_28 
REMARK    5  A    between atoms: C_22  and  C_28 
ROOT
HETATM    1  O   UNK     0     -23.939   7.270  16.442  0.00  0.00    -0.265 OA
HETATM    2  N   UNK     0     -21.761   8.152  16.226  0.00  0.00    -0.312 N 
HETATM    3  N   UNK     0     -22.774   4.909  17.743  0.00  0.00    -0.227 N 
HETATM    4  N   UNK     0     -21.945   4.041  18.353  0.00  0.00    -0.161 NA
HETATM    5  C   UNK     0     -19.856   6.981  17.431  0.00  0.00     0.064 C 
HETATM    6  C   UNK     0     -20.311   7.801  16.210  0.00  0.00     0.137 C 
HETATM    7  C   UNK     0     -20.842   5.920  17.696  0.00  0.00     0.014 A 
HETATM    8  C   UNK     0     -22.157   6.052  17.322  0.00  0.00     0.136 A 
HETATM    9  C   UNK     0     -22.729   7.190  16.641  0.00  0.00     0.277 C 
HETATM   10  C   UNK     0     -20.764   4.667  18.324  0.00  0.00     0.153 A 
ENDROOT
BRANCH   2  11
HETATM   11  C   UNK     0     -22.161   9.404  15.634  0.00  0.00     0.037 A 
HETATM   12  C   UNK     0     -21.236  10.156  14.916  0.00  0.00     0.032 A 
HETATM   13  C   UNK     0     -21.623  11.369  14.344  0.00  0.00     0.032 A 
HETATM   14  C   UNK     0     -22.934  11.823  14.492  0.00  0.00     0.037 A 
HETATM   15  C   UNK     0     -23.857  11.065  15.213  0.00  0.00     0.032 A 
HETATM   16  C   UNK     0     -23.470   9.852  15.784  0.00  0.00     0.032 A 
BRANCH  14  17
HETATM   17  N   UNK     0     -23.336  13.079  13.900  0.00  0.00    -0.318 N 
HETATM   18  C   UNK     0     -24.300  13.026  12.788  0.00  0.00     0.132 C 
HETATM   19  C   UNK     0     -24.271  14.244  11.878  0.00  0.00     0.021 C 
HETATM   20  C   UNK     0     -24.372  15.495  12.720  0.00  0.00     0.011 C 
HETATM   21  C   UNK     0     -23.182  15.551  13.653  0.00  0.00     0.103 C 
HETATM   22  C   UNK     0     -22.983  14.303  14.497  0.00  0.00     0.224 C 
HETATM   23  O   UNK     0     -22.475  14.434  15.614  0.00  0.00    -0.273 OA
ENDBRANCH  14  17
ENDBRANCH   2  11
BRANCH   3  24
HETATM   24  C   UNK     0     -24.120   4.575  17.590  0.00  0.00     0.059 A 
HETATM   25  C   UNK     0     -25.060   5.107  18.462  0.00  0.00     0.034 A 
HETATM   26  C   UNK     0     -26.407   4.773  18.310  0.00  0.00     0.039 A 
HETATM   27  C   UNK     0     -26.800   3.912  17.288  0.00  0.00     0.068 A 
HETATM   28  C   UNK     0     -25.848   3.383  16.416  0.00  0.00     0.039 A 
HETATM   29  C   UNK     0     -24.502   3.716  16.568  0.00  0.00     0.034 A 
BRANCH  27  30
HETATM   30  O   UNK     0     -28.114   3.586  17.139  0.00  0.00    -0.356 OA
HETATM   31  C   UNK     0     -28.719   2.829  18.186  0.00  0.00     0.210 C 
ENDBRANCH  27  30
ENDBRANCH   3  24
BRANCH  10  32
HETATM   32  C   UNK     0     -19.612   4.040  18.905  0.00  0.00     0.270 C 
HETATM   33  O   UNK     0     -18.531   4.634  19.099  0.00  0.00    -0.266 OA
HETATM   34  N   UNK     0     -19.727   2.703  19.291  0.00  0.00    -0.365 N 
HETATM   35  H   UNK     0     -20.586   2.177  19.165  0.00  0.00     0.159 HD
HETATM   36  H   UNK     0     -18.946   2.214  19.714  0.00  0.00     0.159 HD
ENDBRANCH  10  32
TORSDOF 5
ENDMDL
MODEL 3
REMARK VINA RESULT:      -9.7      1.372      1.848
REMARK  5 active torsions:
REMARK  status: ('A' for Active; 'I' for Inactive)
REMARK    1  A    between atoms: O_4  and  C_33 
REMARK    2  A    between atoms: N_5  and  C_19 
REMARK    3  A    between atoms: N_6  and  C_20 
REMARK    4  A    between atoms: N_7  and  C_27 
REMARK       I    between atoms: N_9  and  C_28 
REMARK    5  A    between atoms: C_22  and  C_28 
ROOT
HETATM    1  O   UNK     0     -21.295  12.509  16.490  0.00  0.00    -0.265 OA
HETATM    2  N   UNK     0     -22.630  11.430  14.870  0.00  0.00    -0.312 N 
HETATM    3  N   UNK     0     -21.846  15.058  15.139  0.00  0.00    -0.227 N 
HETATM    4  N   UNK     0     -22.351  16.026  14.351  0.00  0.00    -0.161 NA
HETATM    5  C   UNK     0     -23.999  12.863  13.281  0.00  0.00     0.064 C 
HETATM    6  C   UNK     0     -23.210  11.561  13.502  0.00  0.00     0.137 C 
HETATM    7  C   UNK     0     -23.235  13.992  13.839  0.00  0.00     0.014 A 
HETATM    8  C   UNK     0     -22.340  13.815  14.866  0.00  0.00     0.136 A 
HETATM    9  C   UNK     0     -22.029  12.558  15.506  0.00  0.00     0.277 C 
HETATM   10  C   UNK     0     -23.204  15.367  13.559  0.00  0.00     0.153 A 
ENDROOT
BRANCH   2  11
HETATM   11  C   UNK     0     -22.523  10.110  15.438  0.00  0.00     0.037 A 
HETATM   12  C   UNK     0     -23.647   9.292  15.502  0.00  0.00     0.032 A 
HETATM   13  C   UNK     0     -23.544   8.014  16.053  0.00  0.00     0.032 A 
HETATM   14  C   UNK     0     -22.317   7.560  16.537  0.00  0.00     0.037 A 
HETATM   15  C   UNK     0     -21.193   8.385  16.470  0.00  0.00     0.032 A 
HETATM   16  C   UNK     0     -21.296   9.662  15.918  0.00  0.00     0.032 A 
BRANCH  14  17
HETATM   17  N   UNK     0     -22.209   6.237  17.108  0.00  0.00    -0.318 N 
HETATM   18  C   UNK     0     -20.978   5.917  17.851  0.00  0.00     0.132 C 
HETATM   19  C   UNK     0     -20.675   4.431  17.949  0.00  0.00     0.021 C 
HETATM   20  C   UNK     0     -21.904   3.706  18.453  0.00  0.00     0.011 C 
HETATM   21  C   UNK     0     -23.030   3.915  17.465  0.00  0.00     0.103 C 
HETATM   22  C   UNK     0     -23.316   5.369  17.130  0.00  0.00     0.224 C 
HETATM   23  O   UNK     0     -24.475   5.681  16.844  0.00  0.00    -0.273 OA
ENDBRANCH  14  17
ENDBRANCH   2  11
BRANCH   3  24
HETATM   24  C   UNK     0     -20.899  15.392  16.109  0.00  0.00     0.059 A 
HETATM   25  C   UNK     0     -19.551  15.389  15.778  0.00  0.00     0.034 A 
HETATM   26  C   UNK     0     -18.604  15.721  16.749  0.00  0.00     0.039 A 
HETATM   27  C   UNK     0     -19.014  16.055  18.038  0.00  0.00     0.068 A 
HETATM   28  C   UNK     0     -20.372  16.056  18.360  0.00  0.00     0.039 A 
HETATM   29  C   UNK     0     -21.318  15.722  17.391  0.00  0.00     0.034 A 
BRANCH  27  30
HETATM   30  O   UNK     0     -18.092  16.381  18.984  0.00  0.00    -0.356 OA
HETATM   31  C   UNK     0     -18.566  16.576  20.316  0.00  0.00     0.210 C 
ENDBRANCH  27  30
ENDBRANCH   3  24
BRANCH  10  32
HETATM   32  C   UNK     0     -23.957  16.086  12.571  0.00  0.00     0.270 C 
HETATM   33  O   UNK     0     -23.806  15.925  11.342  0.00  0.00    -0.266 OA
HETATM   34  N   UNK     0     -24.920  16.991  13.022  0.00  0.00    -0.365 N 
HETATM   35  H   UNK     0     -25.088  17.151  14.010  0.00  0.00     0.159 HD
HETATM   36  H   UNK     0     -25.485  17.519  12.367  0.00  0.00     0.159 HD
ENDBRANCH  10  32
TORSDOF 5
ENDMDL
