MODEL 1
REMARK VINA RESULT:      -8.4      0.000      0.000
REMARK  5 active torsions:
REMARK  status: ('A' for Active; 'I' for Inactive)
REMARK    1  A    between atoms: O_4  and  C_33 
REMARK    2  A    between atoms: N_5  and  C_19 
REMARK    3  A    between atoms: N_6  and  C_20 
REMARK    4  A    between atoms: N_7  and  C_27 
REMARK       I    between atoms: N_9  and  C_28 
REMARK    5  A    between atoms: C_22  and  C_28 
ROOT
HETATM    1  O   UNK     0      -5.935  28.776  53.623  0.00  0.00    -0.265 OA
HETATM    2  N   UNK     0      -7.371  28.987  55.484  0.00  0.00    -0.312 N 
HETATM    3  N   UNK     0      -8.179  29.558  51.897  0.00  0.00    -0.227 N 
HETATM    4  N   UNK     0      -9.356  30.011  51.426  0.00  0.00    -0.161 NA
HETATM    5  C   UNK     0      -9.656  30.038  55.137  0.00  0.00     0.064 C 
HETATM    6  C   UNK     0      -8.800  29.020  55.910  0.00  0.00     0.137 C 
HETATM    7  C   UNK     0      -9.344  29.942  53.701  0.00  0.00     0.014 A 
HETATM    8  C   UNK     0      -8.124  29.491  53.260  0.00  0.00     0.136 A 
HETATM    9  C   UNK     0      -7.031  29.061  54.100  0.00  0.00     0.277 C 
HETATM   10  C   UNK     0     -10.065  30.246  52.535  0.00  0.00     0.153 A 
ENDROOT
BRANCH   2  11
HETATM   11  C   UNK     0      -6.373  28.687  56.481  0.00  0.00     0.037 A 
HETATM   12  C   UNK     0      -6.385  27.450  57.120  0.00  0.00     0.032 A 
HETATM   13  C   UNK     0      -5.421  27.159  58.085  0.00  0.00     0.032 A 
HETATM   14  C   UNK     0      -4.449  28.107  58.408  0.00  0.00     0.037 A 
HETATM   15  C   UNK     0      -4.442  29.345  57.764  0.00  0.00     0.032 A 
HETATM   16  C   UNK     0      -5.406  29.635  56.798  0.00  0.00     0.032 A 
BRANCH  14  17
HETATM   17  N   UNK     0      -3.449  27.807  59.408  0.00  0.00    -0.318 N 
HETATM   18  C   UNK     0      -3.616  28.416  60.738  0.00  0.00     0.132 C 
HETATM   19  C   UNK     0      -2.331  28.525  61.541  0.00  0.00     0.021 C 
HETATM   20  C   UNK     0      -1.643  27.179  61.564  0.00  0.00     0.011 C 
HETATM   21  C   UNK     0      -1.304  26.783  60.144  0.00  0.00     0.103 C 
HETATM   22  C   UNK     0      -2.479  26.814  59.181  0.00  0.00     0.224 C 
HETATM   23  O   UNK     0      -2.478  26.016  58.239  0.00  0.00    -0.273 OA
ENDBRANCH  14  17
ENDBRANCH   2  11
BRANCH   3  24
HETATM   24  C   UNK     0      -7.173  29.204  50.997  0.00  0.00     0.059 A 
HETATM   25  C   UNK     0      -6.271  30.167  50.565  0.00  0.00     0.034 A 
HETATM   26  C   UNK     0      -5.266  29.813  49.664  0.00  0.00     0.039 A 
HETATM   27  C   UNK     0      -5.172  28.500  49.205  0.00  0.00     0.068 A 
HETATM   28  C   UNK     0      -6.083  27.539  49.646  0.00  0.00     0.039 A 
HETATM   29  C   UNK     0      -7.088  27.893  50.545  0.00  0.00     0.034 A 
BRANCH  27  30
HETATM   30  O   UNK     0      -4.190  28.154  48.327  0.00  0.00    -0.356 OA
HETATM   31  C   UNK     0      -3.176  27.270  48.801  0.00  0.00     0.210 C 
ENDBRANCH  27  30
ENDBRANCH   3  24
BRANCH  10  32
HETATM   32  C   UNK     0     -11.401  30.760  52.430  0.00  0.00     0.270 C 
HETATM   33  O   UNK     0     -11.832  31.698  53.132  0.00  0.00    -0.266 OA
HETATM   34  N   UNK     0     -12.242  30.187  51.474  0.00  0.00    -0.365 N 
HETATM   35  H   UNK     0     -11.936  29.429  50.872  0.00  0.00     0.159 HD
HETATM   36  H   UNK     0     -13.193  30.518  51.353  0.00  0.00     0.159 HD
ENDBRANCH  10  32
TORSDOF 5
ENDMDL
MODEL 2
REMARK VINA RESULT:      -7.8     10.724     17.589
REMARK  5 active torsions:
REMARK  status: ('A' for Active; 'I' for Inactive)
REMARK    1  A    between atoms: O_4  and  C_33 
REMARK    2  A    between atoms: N_5  and  C_19 
REMARK    3  A    between atoms: N_6  and  C_20 
REMARK    4  A    between atoms: N_7  and  C_27 
REMARK       I    between atoms: N_9  and  C_28 
REMARK    5  A    between atoms: C_22  and  C_28 
ROOT
HETATM    1  O   UNK     0     -17.385  35.184  48.345  0.00  0.00    -0.265 OA
HETATM    2  N   UNK     0     -18.694  36.876  47.349  0.00  0.00    -0.312 N 
HETATM    3  N   UNK     0     -18.392  36.048  50.965  0.00  0.00    -0.227 N 
HETATM    4  N   UNK     0     -19.091  36.628  51.959  0.00  0.00    -0.161 NA
HETATM    5  C   UNK     0     -20.378  38.111  48.796  0.00  0.00     0.064 C 
HETATM    6  C   UNK     0     -19.403  38.164  47.606  0.00  0.00     0.137 C 
HETATM    7  C   UNK     0     -19.730  37.419  49.923  0.00  0.00     0.014 A 
HETATM    8  C   UNK     0     -18.734  36.496  49.720  0.00  0.00     0.136 A 
HETATM    9  C   UNK     0     -18.200  36.098  48.439  0.00  0.00     0.277 C 
HETATM   10  C   UNK     0     -19.911  37.465  51.314  0.00  0.00     0.153 A 
ENDROOT
BRANCH   2  11
HETATM   11  C   UNK     0     -18.359  36.547  45.987  0.00  0.00     0.037 A 
HETATM   12  C   UNK     0     -17.243  37.126  45.390  0.00  0.00     0.032 A 
HETATM   13  C   UNK     0     -16.919  36.809  44.071  0.00  0.00     0.032 A 
HETATM   14  C   UNK     0     -17.713  35.913  43.354  0.00  0.00     0.037 A 
HETATM   15  C   UNK     0     -18.831  35.336  43.957  0.00  0.00     0.032 A 
HETATM   16  C   UNK     0     -19.154  35.653  45.277  0.00  0.00     0.032 A 
BRANCH  14  17
HETATM   17  N   UNK     0     -17.378  35.583  41.987  0.00  0.00    -0.318 N 
HETATM   18  C   UNK     0     -16.778  34.262  41.736  0.00  0.00     0.132 C 
HETATM   19  C   UNK     0     -15.973  34.176  40.450  0.00  0.00     0.021 C 
HETATM   20  C   UNK     0     -16.809  34.699  39.304  0.00  0.00     0.011 C 
HETATM   21  C   UNK     0     -17.151  36.148  39.574  0.00  0.00     0.103 C 
HETATM   22  C   UNK     0     -17.799  36.403  40.924  0.00  0.00     0.224 C 
HETATM   23  O   UNK     0     -18.599  37.339  41.015  0.00  0.00    -0.273 OA
ENDBRANCH  14  17
ENDBRANCH   2  11
BRANCH   3  24
HETATM   24  C   UNK     0     -17.419  35.097  51.278  0.00  0.00     0.059 A 
HETATM   25  C   UNK     0     -16.109  35.503  51.490  0.00  0.00     0.034 A 
HETATM   26  C   UNK     0     -15.136  34.552  51.802  0.00  0.00     0.039 A 
HETATM   27  C   UNK     0     -15.483  33.206  51.900  0.00  0.00     0.068 A 
HETATM   28  C   UNK     0     -16.804  32.808  51.686  0.00  0.00     0.039 A 
HETATM   29  C   UNK     0     -17.775  33.758  51.373  0.00  0.00     0.034 A 
BRANCH  27  30
HETATM   30  O   UNK     0     -14.535  32.278  52.206  0.00  0.00    -0.356 OA
HETATM   31  C   UNK     0     -13.669  32.570  53.301  0.00  0.00     0.210 C 
ENDBRANCH  27  30
ENDBRANCH   3  24
BRANCH  10  32
HETATM   32  C   UNK     0     -20.837  38.268  52.060  0.00  0.00     0.270 C 
HETATM   33  O   UNK     0     -21.939  37.845  52.466  0.00  0.00    -0.266 OA
HETATM   34  N   UNK     0     -20.463  39.580  52.358  0.00  0.00    -0.365 N 
HETATM   35  H   UNK     0     -19.575  39.968  52.060  0.00  0.00     0.159 HD
HETATM   36  H   UNK     0     -21.078  40.188  52.889  0.00  0.00     0.159 HD
ENDBRANCH  10  32
TORSDOF 5
ENDMDL
MODEL 3
REMARK VINA RESULT:      -7.6     15.528     19.377
REMARK  5 active torsions:
REMARK  status: ('A' for Active; 'I' for Inactive)
REMARK    1  A    between atoms: O_4  and  C_33 
REMARK    2  A    between atoms: N_5  and  C_19 
REMARK    3  A    between atoms: N_6  and  C_20 
REMARK    4  A    between atoms: N_7  and  C_27 
REMARK       I    between atoms: N_9  and  C_28 
REMARK    5  A    between atoms: C_22  and  C_28 
ROOT
HETATM    1  O   UNK     0     -18.853  39.250  47.098  0.00  0.00    -0.265 OA
HETATM    2  N   UNK     0     -18.425  36.955  47.440  0.00  0.00    -0.312 N 
HETATM    3  N   UNK     0     -19.090  39.564  50.008  0.00  0.00    -0.227 N 
HETATM    4  N   UNK     0     -19.050  39.375  51.341  0.00  0.00    -0.161 NA
HETATM    5  C   UNK     0     -18.025  36.139  49.812  0.00  0.00     0.064 C 
HETATM    6  C   UNK     0     -18.574  35.830  48.408  0.00  0.00     0.137 C 
HETATM    7  C   UNK     0     -18.460  37.486  50.216  0.00  0.00     0.014 A 
HETATM    8  C   UNK     0     -18.750  38.456  49.287  0.00  0.00     0.136 A 
HETATM    9  C   UNK     0     -18.681  38.297  47.853  0.00  0.00     0.277 C 
HETATM   10  C   UNK     0     -18.662  38.101  51.462  0.00  0.00     0.153 A 
ENDROOT
BRANCH   2  11
HETATM   11  C   UNK     0     -18.210  36.631  46.052  0.00  0.00     0.037 A 
HETATM   12  C   UNK     0     -17.020  37.003  45.433  0.00  0.00     0.032 A 
HETATM   13  C   UNK     0     -16.812  36.691  44.089  0.00  0.00     0.032 A 
HETATM   14  C   UNK     0     -17.794  36.008  43.371  0.00  0.00     0.037 A 
HETATM   15  C   UNK     0     -18.984  35.637  43.997  0.00  0.00     0.032 A 
HETATM   16  C   UNK     0     -19.192  35.948  45.341  0.00  0.00     0.032 A 
BRANCH  14  17
HETATM   17  N   UNK     0     -17.579  35.683  41.979  0.00  0.00    -0.318 N 
HETATM   18  C   UNK     0     -17.206  34.296  41.655  0.00  0.00     0.132 C 
HETATM   19  C   UNK     0     -16.484  34.136  40.327  0.00  0.00     0.021 C 
HETATM   20  C   UNK     0     -17.280  34.827  39.243  0.00  0.00     0.011 C 
HETATM   21  C   UNK     0     -17.378  36.300  39.576  0.00  0.00     0.103 C 
HETATM   22  C   UNK     0     -17.915  36.599  40.965  0.00  0.00     0.224 C 
HETATM   23  O   UNK     0     -18.553  37.643  41.127  0.00  0.00    -0.273 OA
ENDBRANCH  14  17
ENDBRANCH   2  11
BRANCH   3  24
HETATM   24  C   UNK     0     -19.466  40.811  49.506  0.00  0.00     0.059 A 
HETATM   25  C   UNK     0     -20.812  41.093  49.315  0.00  0.00     0.034 A 
HETATM   26  C   UNK     0     -21.189  42.339  48.812  0.00  0.00     0.039 A 
HETATM   27  C   UNK     0     -20.217  43.291  48.506  0.00  0.00     0.068 A 
HETATM   28  C   UNK     0     -18.867  42.998  48.703  0.00  0.00     0.039 A 
HETATM   29  C   UNK     0     -18.491  41.752  49.205  0.00  0.00     0.034 A 
BRANCH  27  30
HETATM   30  O   UNK     0     -20.584  44.507  48.017  0.00  0.00    -0.356 OA
HETATM   31  C   UNK     0     -19.948  44.944  46.817  0.00  0.00     0.210 C 
ENDBRANCH  27  30
ENDBRANCH   3  24
BRANCH  10  32
HETATM   32  C   UNK     0     -18.493  37.530  52.767  0.00  0.00     0.270 C 
HETATM   33  O   UNK     0     -19.186  36.584  53.197  0.00  0.00    -0.266 OA
HETATM   34  N   UNK     0     -17.485  38.054  53.579  0.00  0.00    -0.365 N 
HETATM   35  H   UNK     0     -16.889  38.816  53.274  0.00  0.00     0.159 HD
HETATM   36  H   UNK     0     -17.319  37.682  54.508  0.00  0.00     0.159 HD
ENDBRANCH  10  32
TORSDOF 5
ENDMDL
