MODEL 1
REMARK VINA RESULT:     -12.3      0.000      0.000
REMARK  5 active torsions:
REMARK  status: ('A' for Active; 'I' for Inactive)
REMARK    1  A    between atoms: O_4  and  C_33 
REMARK    2  A    between atoms: N_5  and  C_19 
REMARK    3  A    between atoms: N_6  and  C_20 
REMARK    4  A    between atoms: N_7  and  C_27 
REMARK       I    between atoms: N_9  and  C_28 
REMARK    5  A    between atoms: C_22  and  C_28 
ROOT
HETATM    1  O   UNK     0       9.387   6.515   7.774  0.00  0.00    -0.265 OA
HETATM    2  N   UNK     0       9.983   8.785   8.026  0.00  0.00    -0.312 N 
HETATM    3  N   UNK     0       9.499   6.238  10.696  0.00  0.00    -0.227 N 
HETATM    4  N   UNK     0       9.558   6.475  12.020  0.00  0.00    -0.161 NA
HETATM    5  C   UNK     0       9.994   9.781  10.363  0.00  0.00     0.064 C 
HETATM    6  C   UNK     0      10.607   9.775   8.952  0.00  0.00     0.137 C 
HETATM    7  C   UNK     0       9.818   8.392  10.821  0.00  0.00     0.014 A 
HETATM    8  C   UNK     0       9.657   7.358   9.931  0.00  0.00     0.136 A 
HETATM    9  C   UNK     0       9.646   7.479   8.492  0.00  0.00     0.277 C 
HETATM   10  C   UNK     0       9.751   7.797  12.090  0.00  0.00     0.153 A 
ENDROOT
BRANCH   2  11
HETATM   11  C   UNK     0       9.911   9.118   6.626  0.00  0.00     0.037 A 
HETATM   12  C   UNK     0       8.819   9.832   6.141  0.00  0.00     0.032 A 
HETATM   13  C   UNK     0       8.748  10.153   4.785  0.00  0.00     0.032 A 
HETATM   14  C   UNK     0       9.770   9.761   3.921  0.00  0.00     0.037 A 
HETATM   15  C   UNK     0      10.863   9.046   4.413  0.00  0.00     0.032 A 
HETATM   16  C   UNK     0      10.934   8.725   5.769  0.00  0.00     0.032 A 
BRANCH  14  17
HETATM   17  N   UNK     0       9.698  10.094   2.516  0.00  0.00    -0.318 N 
HETATM   18  C   UNK     0       8.792   9.293   1.674  0.00  0.00     0.132 C 
HETATM   19  C   UNK     0       9.142   9.303   0.195  0.00  0.00     0.021 C 
HETATM   20  C   UNK     0       9.307  10.733  -0.267  0.00  0.00     0.011 C 
HETATM   21  C   UNK     0      10.440  11.367   0.510  0.00  0.00     0.103 C 
HETATM   22  C   UNK     0      10.307  11.261   2.020  0.00  0.00     0.224 C 
HETATM   23  O   UNK     0      10.788  12.165   2.709  0.00  0.00    -0.273 OA
ENDBRANCH  14  17
ENDBRANCH   2  11
BRANCH   3  24
HETATM   24  C   UNK     0       9.303   4.932  10.244  0.00  0.00     0.059 A 
HETATM   25  C   UNK     0       8.017   4.492   9.960  0.00  0.00     0.034 A 
HETATM   26  C   UNK     0       7.821   3.186   9.509  0.00  0.00     0.039 A 
HETATM   27  C   UNK     0       8.912   2.334   9.345  0.00  0.00     0.068 A 
HETATM   28  C   UNK     0      10.200   2.786   9.632  0.00  0.00     0.039 A 
HETATM   29  C   UNK     0      10.396   4.091  10.084  0.00  0.00     0.034 A 
BRANCH  27  30
HETATM   30  O   UNK     0       8.721   1.060   8.904  0.00  0.00    -0.356 OA
HETATM   31  C   UNK     0       8.179   0.124   9.834  0.00  0.00     0.210 C 
ENDBRANCH  27  30
ENDBRANCH   3  24
BRANCH  10  32
HETATM   32  C   UNK     0       9.857   8.433  13.372  0.00  0.00     0.270 C 
HETATM   33  O   UNK     0      10.233   9.614  13.523  0.00  0.00    -0.266 OA
HETATM   34  N   UNK     0       9.495   7.689  14.497  0.00  0.00    -0.365 N 
HETATM   35  H   UNK     0       9.173   6.729  14.427  0.00  0.00     0.159 HD
HETATM   36  H   UNK     0       9.543   8.093  15.426  0.00  0.00     0.159 HD
ENDBRANCH  10  32
TORSDOF 5
ENDMDL
