MODEL 1
REMARK VINA RESULT:      -6.8      0.000      0.000
REMARK  1 active torsions:
REMARK  status: ('A' for Active; 'I' for Inactive)
REMARK    1  A    between atoms: C_9  and  C_14 
ROOT
HETATM    1 Cl   UNK     0      27.192  52.291  14.946  0.00  0.00    -0.084 Cl
HETATM    2  N   UNK     0      23.679  52.160  19.723  0.00  0.00    -0.282 N 
HETATM    3  N   UNK     0      25.800  54.049  20.841  0.00  0.00    -0.281 NA
HETATM    4  N   UNK     0      23.043  52.177  21.833  0.00  0.00    -0.133 NA
HETATM    5  N   UNK     0      21.989  51.733  21.071  0.00  0.00    -0.135 NA
HETATM    6  C   UNK     0      24.489  52.279  18.572  0.00  0.00     0.055 A 
HETATM    7  C   UNK     0      25.595  53.150  18.530  0.00  0.00     0.022 A 
HETATM    8  C   UNK     0      24.057  52.403  21.025  0.00  0.00     0.155 A 
HETATM    9  C   UNK     0      25.867  54.206  19.562  0.00  0.00     0.074 C 
HETATM   10  C   UNK     0      25.442  52.760  21.400  0.00  0.00     0.230 C 
HETATM   11  C   UNK     0      22.390  51.702  19.820  0.00  0.00     0.131 A 
HETATM   12  C   UNK     0      24.194  51.473  17.461  0.00  0.00     0.033 A 
HETATM   13  C   UNK     0      26.436  53.128  17.403  0.00  0.00     0.040 A 
HETATM   14  C   UNK     0      25.027  51.485  16.341  0.00  0.00     0.026 A 
HETATM   15  C   UNK     0      26.154  52.297  16.319  0.00  0.00     0.035 A 
HETATM   16  C   UNK     0      21.483  51.388  18.697  0.00  0.00     0.094 C 
ENDROOT
BRANCH   9  17
HETATM   17  C   UNK     0      26.219  55.578  19.089  0.00  0.00    -0.007 A 
HETATM   18  C   UNK     0      27.396  56.170  19.524  0.00  0.00     0.014 A 
HETATM   19  C   UNK     0      27.725  57.452  19.082  0.00  0.00     0.001 A 
HETATM   20  C   UNK     0      26.873  58.129  18.209  0.00  0.00     0.000 A 
HETATM   21  C   UNK     0      25.692  57.524  17.779  0.00  0.00     0.001 A 
HETATM   22  C   UNK     0      25.363  56.242  18.221  0.00  0.00     0.014 A 
ENDBRANCH   9  17
TORSDOF 1
ENDMDL
MODEL 2
REMARK VINA RESULT:      -6.6     21.865     23.501
REMARK  1 active torsions:
REMARK  status: ('A' for Active; 'I' for Inactive)
REMARK    1  A    between atoms: C_9  and  C_14 
ROOT
HETATM    1 Cl   UNK     0      18.483  70.492  30.836  0.00  0.00    -0.084 Cl
HETATM    2  N   UNK     0      19.530  69.697  36.620  0.00  0.00    -0.282 N 
HETATM    3  N   UNK     0      17.063  67.912  36.413  0.00  0.00    -0.281 NA
HETATM    4  N   UNK     0      19.169  69.364  38.768  0.00  0.00    -0.133 NA
HETATM    5  N   UNK     0      20.467  69.787  38.613  0.00  0.00    -0.135 NA
HETATM    6  C   UNK     0      19.307  69.799  35.229  0.00  0.00     0.055 A 
HETATM    7  C   UNK     0      18.301  69.055  34.583  0.00  0.00     0.022 A 
HETATM    8  C   UNK     0      18.608  69.340  37.578  0.00  0.00     0.155 A 
HETATM    9  C   UNK     0      17.561  67.917  35.224  0.00  0.00     0.074 C 
HETATM   10  C   UNK     0      17.187  69.083  37.260  0.00  0.00     0.230 C 
HETATM   11  C   UNK     0      20.661  70.008  37.332  0.00  0.00     0.131 A 
HETATM   12  C   UNK     0      20.093  70.698  34.490  0.00  0.00     0.033 A 
HETATM   13  C   UNK     0      18.045  69.297  33.221  0.00  0.00     0.040 A 
HETATM   14  C   UNK     0      19.839  70.904  33.134  0.00  0.00     0.026 A 
HETATM   15  C   UNK     0      18.807  70.218  32.505  0.00  0.00     0.035 A 
HETATM   16  C   UNK     0      21.981  70.361  36.772  0.00  0.00     0.094 C 
ENDROOT
BRANCH   9  17
HETATM   17  C   UNK     0      17.402  66.653  34.443  0.00  0.00    -0.007 A 
HETATM   18  C   UNK     0      16.191  66.380  33.824  0.00  0.00     0.014 A 
HETATM   19  C   UNK     0      16.042  65.199  33.095  0.00  0.00     0.001 A 
HETATM   20  C   UNK     0      17.107  64.305  32.992  0.00  0.00     0.000 A 
HETATM   21  C   UNK     0      18.320  64.590  33.619  0.00  0.00     0.001 A 
HETATM   22  C   UNK     0      18.469  65.769  34.348  0.00  0.00     0.014 A 
ENDBRANCH   9  17
TORSDOF 1
ENDMDL
MODEL 3
REMARK VINA RESULT:      -6.5      5.661      7.508
REMARK  1 active torsions:
REMARK  status: ('A' for Active; 'I' for Inactive)
REMARK    1  A    between atoms: C_9  and  C_14 
ROOT
HETATM    1 Cl   UNK     0      24.317  51.227  19.550  0.00  0.00    -0.084 Cl
HETATM    2  N   UNK     0      19.587  47.759  20.437  0.00  0.00    -0.282 N 
HETATM    3  N   UNK     0      20.666  47.699  23.292  0.00  0.00    -0.281 NA
HETATM    4  N   UNK     0      18.312  46.156  21.251  0.00  0.00    -0.133 NA
HETATM    5  N   UNK     0      17.718  46.640  20.110  0.00  0.00    -0.135 NA
HETATM    6  C   UNK     0      20.671  48.650  20.276  0.00  0.00     0.055 A 
HETATM    7  C   UNK     0      21.468  49.054  21.366  0.00  0.00     0.022 A 
HETATM    8  C   UNK     0      19.442  46.809  21.424  0.00  0.00     0.155 A 
HETATM    9  C   UNK     0      21.106  48.808  22.802  0.00  0.00     0.074 C 
HETATM   10  C   UNK     0      20.487  46.543  22.436  0.00  0.00     0.230 C 
HETATM   11  C   UNK     0      18.501  47.575  19.621  0.00  0.00     0.131 A 
HETATM   12  C   UNK     0      20.974  49.107  18.984  0.00  0.00     0.033 A 
HETATM   13  C   UNK     0      22.608  49.840  21.120  0.00  0.00     0.040 A 
HETATM   14  C   UNK     0      22.096  49.908  18.765  0.00  0.00     0.026 A 
HETATM   15  C   UNK     0      22.921  50.259  19.828  0.00  0.00     0.035 A 
HETATM   16  C   UNK     0      18.125  48.406  18.459  0.00  0.00     0.094 C 
ENDROOT
BRANCH   9  17
HETATM   17  C   UNK     0      21.230  49.945  23.763  0.00  0.00    -0.007 A 
HETATM   18  C   UNK     0      22.310  49.990  24.632  0.00  0.00     0.014 A 
HETATM   19  C   UNK     0      22.426  51.053  25.530  0.00  0.00     0.001 A 
HETATM   20  C   UNK     0      21.460  52.058  25.548  0.00  0.00     0.000 A 
HETATM   21  C   UNK     0      20.378  52.002  24.669  0.00  0.00     0.001 A 
HETATM   22  C   UNK     0      20.262  50.941  23.772  0.00  0.00     0.014 A 
ENDBRANCH   9  17
TORSDOF 1
ENDMDL
