MODEL 1
REMARK VINA RESULT:      -7.0      0.000      0.000
REMARK  1 active torsions:
REMARK  status: ('A' for Active; 'I' for Inactive)
REMARK    1  A    between atoms: C_9  and  C_14 
ROOT
HETATM    1 Cl   UNK     0      36.802  31.134  29.744  0.00  0.00    -0.084 Cl
HETATM    2  N   UNK     0      32.011  32.317  33.035  0.00  0.00    -0.282 N 
HETATM    3  N   UNK     0      31.531  34.410  30.866  0.00  0.00    -0.281 NA
HETATM    4  N   UNK     0      30.386  33.447  34.005  0.00  0.00    -0.133 NA
HETATM    5  N   UNK     0      30.470  32.215  34.607  0.00  0.00    -0.135 NA
HETATM    6  C   UNK     0      33.095  32.001  32.187  0.00  0.00     0.055 A 
HETATM    7  C   UNK     0      33.277  32.640  30.945  0.00  0.00     0.022 A 
HETATM    8  C   UNK     0      31.327  33.511  33.087  0.00  0.00     0.155 A 
HETATM    9  C   UNK     0      32.236  33.498  30.287  0.00  0.00     0.074 C 
HETATM   10  C   UNK     0      31.713  34.687  32.277  0.00  0.00     0.230 C 
HETATM   11  C   UNK     0      31.459  31.563  34.039  0.00  0.00     0.131 A 
HETATM   12  C   UNK     0      34.029  31.048  32.624  0.00  0.00     0.033 A 
HETATM   13  C   UNK     0      34.444  32.373  30.207  0.00  0.00     0.040 A 
HETATM   14  C   UNK     0      35.169  30.779  31.864  0.00  0.00     0.026 A 
HETATM   15  C   UNK     0      35.384  31.452  30.668  0.00  0.00     0.035 A 
HETATM   16  C   UNK     0      31.769  30.152  34.348  0.00  0.00     0.094 C 
ENDROOT
BRANCH   9  17
HETATM   17  C   UNK     0      31.952  33.273  28.838  0.00  0.00    -0.007 A 
HETATM   18  C   UNK     0      32.718  33.924  27.882  0.00  0.00     0.014 A 
HETATM   19  C   UNK     0      32.453  33.714  26.528  0.00  0.00     0.001 A 
HETATM   20  C   UNK     0      31.425  32.854  26.144  0.00  0.00     0.000 A 
HETATM   21  C   UNK     0      30.661  32.205  27.114  0.00  0.00     0.001 A 
HETATM   22  C   UNK     0      30.925  32.415  28.467  0.00  0.00     0.014 A 
ENDBRANCH   9  17
TORSDOF 1
ENDMDL
MODEL 2
REMARK VINA RESULT:      -6.7     19.079     20.305
REMARK  1 active torsions:
REMARK  status: ('A' for Active; 'I' for Inactive)
REMARK    1  A    between atoms: C_9  and  C_14 
ROOT
HETATM    1 Cl   UNK     0      35.387  19.288  18.037  0.00  0.00    -0.084 Cl
HETATM    2  N   UNK     0      36.111  15.061  22.135  0.00  0.00    -0.282 N 
HETATM    3  N   UNK     0      33.062  14.989  22.023  0.00  0.00    -0.281 NA
HETATM    4  N   UNK     0      35.735  13.792  23.896  0.00  0.00    -0.133 NA
HETATM    5  N   UNK     0      37.041  13.611  23.509  0.00  0.00    -0.135 NA
HETATM    6  C   UNK     0      35.912  16.001  21.100  0.00  0.00     0.055 A 
HETATM    7  C   UNK     0      34.630  16.272  20.580  0.00  0.00     0.022 A 
HETATM    8  C   UNK     0      35.195  14.680  23.089  0.00  0.00     0.155 A 
HETATM    9  C   UNK     0      33.419  15.434  20.866  0.00  0.00     0.074 C 
HETATM   10  C   UNK     0      33.854  15.294  23.198  0.00  0.00     0.230 C 
HETATM   11  C   UNK     0      37.259  14.392  22.476  0.00  0.00     0.131 A 
HETATM   12  C   UNK     0      37.024  16.705  20.612  0.00  0.00     0.033 A 
HETATM   13  C   UNK     0      34.482  17.310  19.643  0.00  0.00     0.040 A 
HETATM   14  C   UNK     0      36.859  17.714  19.662  0.00  0.00     0.026 A 
HETATM   15  C   UNK     0      35.590  18.027  19.192  0.00  0.00     0.035 A 
HETATM   16  C   UNK     0      38.525  14.376  21.713  0.00  0.00     0.094 C 
ENDROOT
BRANCH   9  17
HETATM   17  C   UNK     0      32.549  15.041  19.717  0.00  0.00    -0.007 A 
HETATM   18  C   UNK     0      32.974  14.050  18.845  0.00  0.00     0.014 A 
HETATM   19  C   UNK     0      32.161  13.683  17.771  0.00  0.00     0.001 A 
HETATM   20  C   UNK     0      30.930  14.311  17.583  0.00  0.00     0.000 A 
HETATM   21  C   UNK     0      30.512  15.305  18.467  0.00  0.00     0.001 A 
HETATM   22  C   UNK     0      31.325  15.673  19.540  0.00  0.00     0.014 A 
ENDBRANCH   9  17
TORSDOF 1
ENDMDL
MODEL 3
REMARK VINA RESULT:      -6.5      3.902      5.636
REMARK  1 active torsions:
REMARK  status: ('A' for Active; 'I' for Inactive)
REMARK    1  A    between atoms: C_9  and  C_14 
ROOT
HETATM    1 Cl   UNK     0      34.123  38.315  28.663  0.00  0.00    -0.084 Cl
HETATM    2  N   UNK     0      37.190  33.331  29.628  0.00  0.00    -0.282 N 
HETATM    3  N   UNK     0      34.403  32.183  30.109  0.00  0.00    -0.281 NA
HETATM    4  N   UNK     0      37.766  31.379  30.473  0.00  0.00    -0.133 NA
HETATM    5  N   UNK     0      38.847  31.889  29.797  0.00  0.00    -0.135 NA
HETATM    6  C   UNK     0      36.428  34.479  29.320  0.00  0.00     0.055 A 
HETATM    7  C   UNK     0      35.019  34.451  29.294  0.00  0.00     0.022 A 
HETATM    8  C   UNK     0      36.789  32.258  30.392  0.00  0.00     0.155 A 
HETATM    9  C   UNK     0      34.209  33.188  29.324  0.00  0.00     0.074 C 
HETATM   10  C   UNK     0      35.480  32.211  31.079  0.00  0.00     0.230 C 
HETATM   11  C   UNK     0      38.499  33.063  29.321  0.00  0.00     0.131 A 
HETATM   12  C   UNK     0      37.105  35.684  29.072  0.00  0.00     0.033 A 
HETATM   13  C   UNK     0      34.318  35.656  29.108  0.00  0.00     0.040 A 
HETATM   14  C   UNK     0      36.390  36.864  28.863  0.00  0.00     0.026 A 
HETATM   15  C   UNK     0      35.001  36.853  28.898  0.00  0.00     0.035 A 
HETATM   16  C   UNK     0      39.373  33.858  28.433  0.00  0.00     0.094 C 
ENDROOT
BRANCH   9  17
HETATM   17  C   UNK     0      33.090  33.047  28.346  0.00  0.00    -0.007 A 
HETATM   18  C   UNK     0      33.254  33.510  27.048  0.00  0.00     0.014 A 
HETATM   19  C   UNK     0      32.208  33.379  26.133  0.00  0.00     0.001 A 
HETATM   20  C   UNK     0      31.009  32.784  26.526  0.00  0.00     0.000 A 
HETATM   21  C   UNK     0      30.855  32.322  27.833  0.00  0.00     0.001 A 
HETATM   22  C   UNK     0      31.900  32.454  28.748  0.00  0.00     0.014 A 
ENDBRANCH   9  17
TORSDOF 1
ENDMDL
