MODEL 1
REMARK VINA RESULT:      -8.1      0.000      0.000
REMARK  1 active torsions:
REMARK  status: ('A' for Active; 'I' for Inactive)
REMARK    1  A    between atoms: C_9  and  C_14 
ROOT
HETATM    1 Cl   UNK     0       8.707  15.492  -0.351  0.00  0.00    -0.084 Cl
HETATM    2  N   UNK     0       9.198  13.383   5.172  0.00  0.00    -0.282 N 
HETATM    3  N   UNK     0      12.178  13.494   4.521  0.00  0.00    -0.281 NA
HETATM    4  N   UNK     0       9.967  12.257   6.902  0.00  0.00    -0.133 NA
HETATM    5  N   UNK     0       8.700  12.693   7.204  0.00  0.00    -0.135 NA
HETATM    6  C   UNK     0       9.116  13.965   3.888  0.00  0.00     0.055 A 
HETATM    7  C   UNK     0      10.269  14.329   3.163  0.00  0.00     0.022 A 
HETATM    8  C   UNK     0      10.247  12.649   5.678  0.00  0.00     0.155 A 
HETATM    9  C   UNK     0      11.646  14.387   3.757  0.00  0.00     0.074 C 
HETATM   10  C   UNK     0      11.437  12.299   4.873  0.00  0.00     0.230 C 
HETATM   11  C   UNK     0       8.243  13.339   6.155  0.00  0.00     0.131 A 
HETATM   12  C   UNK     0       7.847  14.146   3.315  0.00  0.00     0.033 A 
HETATM   13  C   UNK     0      10.125  14.784   1.840  0.00  0.00     0.040 A 
HETATM   14  C   UNK     0       7.725  14.624   2.009  0.00  0.00     0.026 A 
HETATM   15  C   UNK     0       8.861  14.925   1.268  0.00  0.00     0.035 A 
HETATM   16  C   UNK     0       6.951  14.055   6.156  0.00  0.00     0.094 C 
ENDROOT
BRANCH   9  17
HETATM   17  C   UNK     0      12.483  15.591   3.477  0.00  0.00    -0.007 A 
HETATM   18  C   UNK     0      13.642  15.459   2.726  0.00  0.00     0.014 A 
HETATM   19  C   UNK     0      14.424  16.586   2.465  0.00  0.00     0.001 A 
HETATM   20  C   UNK     0      14.038  17.832   2.956  0.00  0.00     0.000 A 
HETATM   21  C   UNK     0      12.870  17.953   3.710  0.00  0.00     0.001 A 
HETATM   22  C   UNK     0      12.089  16.828   3.972  0.00  0.00     0.014 A 
ENDBRANCH   9  17
TORSDOF 1
ENDMDL
MODEL 2
REMARK VINA RESULT:      -8.0      2.707      5.267
REMARK  1 active torsions:
REMARK  status: ('A' for Active; 'I' for Inactive)
REMARK    1  A    between atoms: C_9  and  C_14 
ROOT
HETATM    1 Cl   UNK     0       7.047  14.066   6.180  0.00  0.00    -0.084 Cl
HETATM    2  N   UNK     0      10.501  15.479   1.569  0.00  0.00    -0.282 N 
HETATM    3  N   UNK     0      12.724  14.672   3.499  0.00  0.00    -0.281 NA
HETATM    4  N   UNK     0      12.233  16.213   0.421  0.00  0.00    -0.133 NA
HETATM    5  N   UNK     0      11.170  16.089  -0.440  0.00  0.00    -0.135 NA
HETATM    6  C   UNK     0       9.701  15.054   2.652  0.00  0.00     0.055 A 
HETATM    7  C   UNK     0      10.263  14.475   3.808  0.00  0.00     0.022 A 
HETATM    8  C   UNK     0      11.819  15.874   1.623  0.00  0.00     0.155 A 
HETATM    9  C   UNK     0      11.689  14.016   3.903  0.00  0.00     0.074 C 
HETATM   10  C   UNK     0      12.568  15.980   2.894  0.00  0.00     0.230 C 
HETATM   11  C   UNK     0      10.138  15.677   0.261  0.00  0.00     0.131 A 
HETATM   12  C   UNK     0       8.314  15.254   2.578  0.00  0.00     0.033 A 
HETATM   13  C   UNK     0       9.427  14.192   4.902  0.00  0.00     0.040 A 
HETATM   14  C   UNK     0       7.497  14.942   3.666  0.00  0.00     0.026 A 
HETATM   15  C   UNK     0       8.055  14.429   4.831  0.00  0.00     0.035 A 
HETATM   16  C   UNK     0       8.844  15.316  -0.355  0.00  0.00     0.094 C 
ENDROOT
BRANCH   9  17
HETATM   17  C   UNK     0      11.956  12.668   4.487  0.00  0.00    -0.007 A 
HETATM   18  C   UNK     0      12.550  12.570   5.737  0.00  0.00     0.014 A 
HETATM   19  C   UNK     0      12.800  11.310   6.283  0.00  0.00     0.001 A 
HETATM   20  C   UNK     0      12.452  10.161   5.573  0.00  0.00     0.000 A 
HETATM   21  C   UNK     0      11.855  10.272   4.317  0.00  0.00     0.001 A 
HETATM   22  C   UNK     0      11.606  11.531   3.771  0.00  0.00     0.014 A 
ENDBRANCH   9  17
TORSDOF 1
ENDMDL
MODEL 3
REMARK VINA RESULT:      -7.4      1.693      2.416
REMARK  1 active torsions:
REMARK  status: ('A' for Active; 'I' for Inactive)
REMARK    1  A    between atoms: C_9  and  C_14 
ROOT
HETATM    1 Cl   UNK     0       6.517  15.671   3.441  0.00  0.00    -0.084 Cl
HETATM    2  N   UNK     0      10.327  12.257   6.443  0.00  0.00    -0.282 N 
HETATM    3  N   UNK     0      12.022  12.631   3.932  0.00  0.00    -0.281 NA
HETATM    4  N   UNK     0      11.888  10.758   6.858  0.00  0.00    -0.133 NA
HETATM    5  N   UNK     0      11.259  11.060   8.041  0.00  0.00    -0.135 NA
HETATM    6  C   UNK     0       9.479  13.141   5.741  0.00  0.00     0.055 A 
HETATM    7  C   UNK     0       9.858  13.715   4.511  0.00  0.00     0.022 A 
HETATM    8  C   UNK     0      11.309  11.455   5.904  0.00  0.00     0.155 A 
HETATM    9  C   UNK     0      11.255  13.669   3.964  0.00  0.00     0.074 C 
HETATM   10  C   UNK     0      11.552  11.361   4.449  0.00  0.00     0.230 C 
HETATM   11  C   UNK     0      10.314  11.933   7.776  0.00  0.00     0.131 A 
HETATM   12  C   UNK     0       8.210  13.416   6.275  0.00  0.00     0.033 A 
HETATM   13  C   UNK     0       8.919  14.483   3.800  0.00  0.00     0.040 A 
HETATM   14  C   UNK     0       7.301  14.202   5.566  0.00  0.00     0.026 A 
HETATM   15  C   UNK     0       7.649  14.720   4.324  0.00  0.00     0.035 A 
HETATM   16  C   UNK     0       9.503  12.581   8.828  0.00  0.00     0.094 C 
ENDROOT
BRANCH   9  17
HETATM   17  C   UNK     0      11.844  14.933   3.431  0.00  0.00    -0.007 A 
HETATM   18  C   UNK     0      11.808  15.182   2.067  0.00  0.00     0.014 A 
HETATM   19  C   UNK     0      12.359  16.364   1.569  0.00  0.00     0.001 A 
HETATM   20  C   UNK     0      12.938  17.285   2.441  0.00  0.00     0.000 A 
HETATM   21  C   UNK     0      12.968  17.025   3.811  0.00  0.00     0.001 A 
HETATM   22  C   UNK     0      12.419  15.843   4.309  0.00  0.00     0.014 A 
ENDBRANCH   9  17
TORSDOF 1
ENDMDL
