MODEL 1
REMARK VINA RESULT:     -10.6      0.000      0.000
REMARK  1 active torsions:
REMARK  status: ('A' for Active; 'I' for Inactive)
REMARK    1  A    between atoms: C_9  and  C_14 
ROOT
HETATM    1 Cl   UNK     0      52.538  -8.451  29.724  0.00  0.00    -0.084 Cl
HETATM    2  N   UNK     0      52.402 -14.171  31.287  0.00  0.00    -0.282 N 
HETATM    3  N   UNK     0      55.059 -13.460  32.611  0.00  0.00    -0.281 NA
HETATM    4  N   UNK     0      53.092 -16.205  31.782  0.00  0.00    -0.133 NA
HETATM    5  N   UNK     0      51.737 -16.253  31.563  0.00  0.00    -0.135 NA
HETATM    6  C   UNK     0      52.420 -12.788  31.004  0.00  0.00     0.055 A 
HETATM    7  C   UNK     0      53.431 -11.942  31.500  0.00  0.00     0.022 A 
HETATM    8  C   UNK     0      53.487 -14.964  31.587  0.00  0.00     0.155 A 
HETATM    9  C   UNK     0      54.412 -12.345  32.563  0.00  0.00     0.074 C 
HETATM   10  C   UNK     0      54.875 -14.456  31.573  0.00  0.00     0.230 C 
HETATM   11  C   UNK     0      51.343 -15.042  31.244  0.00  0.00     0.131 A 
HETATM   12  C   UNK     0      51.417 -12.263  30.173  0.00  0.00     0.033 A 
HETATM   13  C   UNK     0      53.464 -10.601  31.077  0.00  0.00     0.040 A 
HETATM   14  C   UNK     0      51.454 -10.922  29.786  0.00  0.00     0.026 A 
HETATM   15  C   UNK     0      52.484 -10.098  30.223  0.00  0.00     0.035 A 
HETATM   16  C   UNK     0      49.922 -14.685  31.055  0.00  0.00     0.094 C 
ENDROOT
BRANCH   9  17
HETATM   17  C   UNK     0      54.653 -11.400  33.693  0.00  0.00    -0.007 A 
HETATM   18  C   UNK     0      53.604 -10.633  34.179  0.00  0.00     0.014 A 
HETATM   19  C   UNK     0      53.830  -9.750  35.236  0.00  0.00     0.001 A 
HETATM   20  C   UNK     0      55.102  -9.643  35.795  0.00  0.00     0.000 A 
HETATM   21  C   UNK     0      56.150 -10.419  35.299  0.00  0.00     0.001 A 
HETATM   22  C   UNK     0      55.925 -11.302  34.243  0.00  0.00     0.014 A 
ENDBRANCH   9  17
TORSDOF 1
ENDMDL
MODEL 2
REMARK VINA RESULT:      -9.0      5.352      7.614
REMARK  1 active torsions:
REMARK  status: ('A' for Active; 'I' for Inactive)
REMARK    1  A    between atoms: C_9  and  C_14 
ROOT
HETATM    1 Cl   UNK     0      49.534 -11.281  37.922  0.00  0.00    -0.084 Cl
HETATM    2  N   UNK     0      52.249  -6.427  35.860  0.00  0.00    -0.282 N 
HETATM    3  N   UNK     0      54.755  -7.974  36.665  0.00  0.00    -0.281 NA
HETATM    4  N   UNK     0      53.732  -4.811  35.648  0.00  0.00    -0.133 NA
HETATM    5  N   UNK     0      52.610  -4.460  34.936  0.00  0.00    -0.135 NA
HETATM    6  C   UNK     0      51.636  -7.629  36.278  0.00  0.00     0.055 A 
HETATM    7  C   UNK     0      52.392  -8.751  36.670  0.00  0.00     0.022 A 
HETATM    8  C   UNK     0      53.499  -5.973  36.220  0.00  0.00     0.155 A 
HETATM    9  C   UNK     0      53.869  -8.884  36.441  0.00  0.00     0.074 C 
HETATM   10  C   UNK     0      54.357  -6.683  37.192  0.00  0.00     0.230 C 
HETATM   11  C   UNK     0      51.725  -5.418  35.093  0.00  0.00     0.131 A 
HETATM   12  C   UNK     0      50.234  -7.679  36.334  0.00  0.00     0.033 A 
HETATM   13  C   UNK     0      51.723  -9.871  37.197  0.00  0.00     0.040 A 
HETATM   14  C   UNK     0      49.589  -8.810  36.836  0.00  0.00     0.026 A 
HETATM   15  C   UNK     0      50.332  -9.896  37.282  0.00  0.00     0.035 A 
HETATM   16  C   UNK     0      50.435  -5.443  34.373  0.00  0.00     0.094 C 
ENDROOT
BRANCH   9  17
HETATM   17  C   UNK     0      54.380 -10.168  35.874  0.00  0.00    -0.007 A 
HETATM   18  C   UNK     0      54.314 -10.386  34.506  0.00  0.00     0.014 A 
HETATM   19  C   UNK     0      54.792 -11.586  33.977  0.00  0.00     0.001 A 
HETATM   20  C   UNK     0      55.331 -12.555  34.822  0.00  0.00     0.000 A 
HETATM   21  C   UNK     0      55.393 -12.325  36.196  0.00  0.00     0.001 A 
HETATM   22  C   UNK     0      54.915 -11.126  36.726  0.00  0.00     0.014 A 
ENDBRANCH   9  17
TORSDOF 1
ENDMDL
MODEL 3
REMARK VINA RESULT:      -8.1      7.571     10.005
REMARK  1 active torsions:
REMARK  status: ('A' for Active; 'I' for Inactive)
REMARK    1  A    between atoms: C_9  and  C_14 
ROOT
HETATM    1 Cl   UNK     0      54.313  -0.670  34.069  0.00  0.00    -0.084 Cl
HETATM    2  N   UNK     0      50.799  -5.387  34.831  0.00  0.00    -0.282 N 
HETATM    3  N   UNK     0      49.002  -3.861  32.893  0.00  0.00    -0.281 NA
HETATM    4  N   UNK     0      48.972  -6.604  35.028  0.00  0.00    -0.133 NA
HETATM    5  N   UNK     0      50.034  -7.348  35.483  0.00  0.00    -0.135 NA
HETATM    6  C   UNK     0      51.651  -4.293  34.564  0.00  0.00     0.055 A 
HETATM    7  C   UNK     0      51.317  -3.306  33.615  0.00  0.00     0.022 A 
HETATM    8  C   UNK     0      49.432  -5.425  34.667  0.00  0.00     0.155 A 
HETATM    9  C   UNK     0      50.193  -3.442  32.629  0.00  0.00     0.074 C 
HETATM   10  C   UNK     0      48.646  -4.246  34.245  0.00  0.00     0.230 C 
HETATM   11  C   UNK     0      51.111  -6.602  35.386  0.00  0.00     0.131 A 
HETATM   12  C   UNK     0      52.843  -4.180  35.297  0.00  0.00     0.033 A 
HETATM   13  C   UNK     0      52.145  -2.177  33.488  0.00  0.00     0.040 A 
HETATM   14  C   UNK     0      53.665  -3.063  35.136  0.00  0.00     0.026 A 
HETATM   15  C   UNK     0      53.308  -2.057  34.247  0.00  0.00     0.035 A 
HETATM   16  C   UNK     0      52.468  -7.113  35.673  0.00  0.00     0.094 C 
ENDROOT
BRANCH   9  17
HETATM   17  C   UNK     0      50.464  -3.095  31.202  0.00  0.00    -0.007 A 
HETATM   18  C   UNK     0      49.735  -2.083  30.594  0.00  0.00     0.014 A 
HETATM   19  C   UNK     0      49.988  -1.759  29.261  0.00  0.00     0.001 A 
HETATM   20  C   UNK     0      50.968  -2.450  28.549  0.00  0.00     0.000 A 
HETATM   21  C   UNK     0      51.695  -3.466  29.171  0.00  0.00     0.001 A 
HETATM   22  C   UNK     0      51.442  -3.790  30.504  0.00  0.00     0.014 A 
ENDBRANCH   9  17
TORSDOF 1
ENDMDL
