MODEL 1
REMARK VINA RESULT:      -8.8      0.000      0.000
REMARK  1 active torsions:
REMARK  status: ('A' for Active; 'I' for Inactive)
REMARK    1  A    between atoms: C_9  and  C_14 
ROOT
HETATM    1 Cl   UNK     0     -27.879 -15.697  30.713  0.00  0.00    -0.084 Cl
HETATM    2  N   UNK     0     -24.423 -15.500  25.896  0.00  0.00    -0.282 N 
HETATM    3  N   UNK     0     -26.588 -17.327  24.759  0.00  0.00    -0.281 NA
HETATM    4  N   UNK     0     -23.403 -16.129  24.047  0.00  0.00    -0.133 NA
HETATM    5  N   UNK     0     -22.795 -14.984  24.504  0.00  0.00    -0.135 NA
HETATM    6  C   UNK     0     -25.308 -15.496  26.997  0.00  0.00     0.055 A 
HETATM    7  C   UNK     0     -26.561 -16.139  26.944  0.00  0.00     0.022 A 
HETATM    8  C   UNK     0     -24.355 -16.447  24.898  0.00  0.00     0.155 A 
HETATM    9  C   UNK     0     -27.186 -16.649  25.678  0.00  0.00     0.074 C 
HETATM   10  C   UNK     0     -25.186 -17.670  24.900  0.00  0.00     0.230 C 
HETATM   11  C   UNK     0     -23.395 -14.636  25.619  0.00  0.00     0.131 A 
HETATM   12  C   UNK     0     -24.899 -14.863  28.181  0.00  0.00     0.033 A 
HETATM   13  C   UNK     0     -27.339 -16.209  28.114  0.00  0.00     0.040 A 
HETATM   14  C   UNK     0     -25.698 -14.921  29.323  0.00  0.00     0.026 A 
HETATM   15  C   UNK     0     -26.907 -15.607  29.295  0.00  0.00     0.035 A 
HETATM   16  C   UNK     0     -23.088 -13.381  26.335  0.00  0.00     0.094 C 
ENDROOT
BRANCH   9  17
HETATM   17  C   UNK     0     -28.622 -16.327  25.424  0.00  0.00    -0.007 A 
HETATM   18  C   UNK     0     -29.595 -17.275  25.704  0.00  0.00     0.014 A 
HETATM   19  C   UNK     0     -30.937 -16.974  25.467  0.00  0.00     0.001 A 
HETATM   20  C   UNK     0     -31.292 -15.727  24.952  0.00  0.00     0.000 A 
HETATM   21  C   UNK     0     -30.304 -14.781  24.674  0.00  0.00     0.001 A 
HETATM   22  C   UNK     0     -28.963 -15.082  24.911  0.00  0.00     0.014 A 
ENDBRANCH   9  17
TORSDOF 1
ENDMDL
MODEL 2
REMARK VINA RESULT:      -8.1     28.108     30.784
REMARK  1 active torsions:
REMARK  status: ('A' for Active; 'I' for Inactive)
REMARK    1  A    between atoms: C_9  and  C_14 
ROOT
HETATM    1 Cl   UNK     0     -16.570   9.526  16.086  0.00  0.00    -0.084 Cl
HETATM    2  N   UNK     0     -19.994  14.309  16.854  0.00  0.00    -0.282 N 
HETATM    3  N   UNK     0     -21.473  12.448  18.769  0.00  0.00    -0.281 NA
HETATM    4  N   UNK     0     -21.781  15.545  17.217  0.00  0.00    -0.133 NA
HETATM    5  N   UNK     0     -20.790  16.359  16.724  0.00  0.00    -0.135 NA
HETATM    6  C   UNK     0     -19.147  13.183  16.757  0.00  0.00     0.055 A 
HETATM    7  C   UNK     0     -19.343  12.035  17.551  0.00  0.00     0.022 A 
HETATM    8  C   UNK     0     -21.307  14.318  17.266  0.00  0.00     0.155 A 
HETATM    9  C   UNK     0     -20.270  11.985  18.731  0.00  0.00     0.074 C 
HETATM   10  C   UNK     0     -22.048  13.082  17.598  0.00  0.00     0.230 C 
HETATM   11  C   UNK     0     -19.741  15.606  16.487  0.00  0.00     0.131 A 
HETATM   12  C   UNK     0     -18.108  13.206  15.813  0.00  0.00     0.033 A 
HETATM   13  C   UNK     0     -18.546  10.901  17.317  0.00  0.00     0.040 A 
HETATM   14  C   UNK     0     -17.311  12.078  15.614  0.00  0.00     0.026 A 
HETATM   15  C   UNK     0     -17.541  10.923  16.351  0.00  0.00     0.035 A 
HETATM   16  C   UNK     0     -18.439  16.159  16.059  0.00  0.00     0.094 C 
ENDROOT
BRANCH   9  17
HETATM   17  C   UNK     0     -19.764  11.376  19.997  0.00  0.00    -0.007 A 
HETATM   18  C   UNK     0     -20.303  10.178  20.443  0.00  0.00     0.014 A 
HETATM   19  C   UNK     0     -19.830   9.608  21.626  0.00  0.00     0.001 A 
HETATM   20  C   UNK     0     -18.822  10.243  22.351  0.00  0.00     0.000 A 
HETATM   21  C   UNK     0     -18.287  11.447  21.894  0.00  0.00     0.001 A 
HETATM   22  C   UNK     0     -18.760  12.017  20.711  0.00  0.00     0.014 A 
ENDBRANCH   9  17
TORSDOF 1
ENDMDL
MODEL 3
REMARK VINA RESULT:      -7.5      4.345      7.436
REMARK  1 active torsions:
REMARK  status: ('A' for Active; 'I' for Inactive)
REMARK    1  A    between atoms: C_9  and  C_14 
ROOT
HETATM    1 Cl   UNK     0     -29.240 -16.026  31.610  0.00  0.00    -0.084 Cl
HETATM    2  N   UNK     0     -33.266 -18.324  27.909  0.00  0.00    -0.282 N 
HETATM    3  N   UNK     0     -31.830 -16.550  25.883  0.00  0.00    -0.281 NA
HETATM    4  N   UNK     0     -34.693 -18.491  26.238  0.00  0.00    -0.133 NA
HETATM    5  N   UNK     0     -34.918 -19.537  27.100  0.00  0.00    -0.135 NA
HETATM    6  C   UNK     0     -32.243 -17.827  28.746  0.00  0.00     0.055 A 
HETATM    7  C   UNK     0     -31.213 -17.004  28.250  0.00  0.00     0.022 A 
HETATM    8  C   UNK     0     -33.725 -17.756  26.742  0.00  0.00     0.155 A 
HETATM    9  C   UNK     0     -30.944 -16.792  26.788  0.00  0.00     0.074 C 
HETATM   10  C   UNK     0     -33.232 -16.455  26.241  0.00  0.00     0.230 C 
HETATM   11  C   UNK     0     -34.080 -19.411  28.104  0.00  0.00     0.131 A 
HETATM   12  C   UNK     0     -32.288 -18.138  30.114  0.00  0.00     0.033 A 
HETATM   13  C   UNK     0     -30.299 -16.436  29.156  0.00  0.00     0.040 A 
HETATM   14  C   UNK     0     -31.356 -17.585  30.994  0.00  0.00     0.026 A 
HETATM   15  C   UNK     0     -30.375 -16.723  30.519  0.00  0.00     0.035 A 
HETATM   16  C   UNK     0     -33.950 -20.426  29.170  0.00  0.00     0.094 C 
ENDROOT
BRANCH   9  17
HETATM   17  C   UNK     0     -29.533 -16.896  26.311  0.00  0.00    -0.007 A 
HETATM   18  C   UNK     0     -28.984 -15.861  25.567  0.00  0.00     0.014 A 
HETATM   19  C   UNK     0     -27.665 -15.959  25.121  0.00  0.00     0.001 A 
HETATM   20  C   UNK     0     -26.909 -17.090  25.425  0.00  0.00     0.000 A 
HETATM   21  C   UNK     0     -27.470 -18.125  26.173  0.00  0.00     0.001 A 
HETATM   22  C   UNK     0     -28.789 -18.028  26.619  0.00  0.00     0.014 A 
ENDBRANCH   9  17
TORSDOF 1
ENDMDL
