MODEL 1
REMARK VINA RESULT:      -9.1      0.000      0.000
REMARK  1 active torsions:
REMARK  status: ('A' for Active; 'I' for Inactive)
REMARK    1  A    between atoms: C_9  and  C_14 
ROOT
HETATM    1 Cl   UNK     0     -22.853 -11.575  23.719  0.00  0.00    -0.084 Cl
HETATM    2  N   UNK     0     -22.942 -14.287  28.994  0.00  0.00    -0.282 N 
HETATM    3  N   UNK     0     -25.756 -15.061  28.100  0.00  0.00    -0.281 NA
HETATM    4  N   UNK     0     -23.697 -15.091  30.901  0.00  0.00    -0.133 NA
HETATM    5  N   UNK     0     -22.324 -15.074  30.957  0.00  0.00    -0.135 NA
HETATM    6  C   UNK     0     -22.919 -13.725  27.698  0.00  0.00     0.055 A 
HETATM    7  C   UNK     0     -23.988 -13.893  26.797  0.00  0.00     0.022 A 
HETATM    8  C   UNK     0     -24.059 -14.594  29.738  0.00  0.00     0.155 A 
HETATM    9  C   UNK     0     -25.107 -14.873  27.001  0.00  0.00     0.074 C 
HETATM   10  C   UNK     0     -25.431 -14.286  29.282  0.00  0.00     0.230 C 
HETATM   11  C   UNK     0     -21.889 -14.568  29.825  0.00  0.00     0.131 A 
HETATM   12  C   UNK     0     -21.810 -12.948  27.327  0.00  0.00     0.033 A 
HETATM   13  C   UNK     0     -23.961 -13.203  25.572  0.00  0.00     0.040 A 
HETATM   14  C   UNK     0     -21.791 -12.291  26.095  0.00  0.00     0.026 A 
HETATM   15  C   UNK     0     -22.870 -12.405  25.228  0.00  0.00     0.035 A 
HETATM   16  C   UNK     0     -20.454 -14.506  29.476  0.00  0.00     0.094 C 
ENDROOT
BRANCH   9  17
HETATM   17  C   UNK     0     -25.502 -15.740  25.852  0.00  0.00    -0.007 A 
HETATM   18  C   UNK     0     -24.524 -16.234  25.001  0.00  0.00     0.014 A 
HETATM   19  C   UNK     0     -24.893 -17.046  23.927  0.00  0.00     0.001 A 
HETATM   20  C   UNK     0     -26.236 -17.354  23.715  0.00  0.00     0.000 A 
HETATM   21  C   UNK     0     -27.211 -16.852  24.578  0.00  0.00     0.001 A 
HETATM   22  C   UNK     0     -26.843 -16.041  25.651  0.00  0.00     0.014 A 
ENDBRANCH   9  17
TORSDOF 1
ENDMDL
MODEL 2
REMARK VINA RESULT:      -8.1      5.696      7.815
REMARK  1 active torsions:
REMARK  status: ('A' for Active; 'I' for Inactive)
REMARK    1  A    between atoms: C_9  and  C_14 
ROOT
HETATM    1 Cl   UNK     0     -26.929 -15.168  30.449  0.00  0.00    -0.084 Cl
HETATM    2  N   UNK     0     -32.001 -16.151  27.533  0.00  0.00    -0.282 N 
HETATM    3  N   UNK     0     -30.224 -15.683  25.096  0.00  0.00    -0.281 NA
HETATM    4  N   UNK     0     -33.568 -16.013  25.991  0.00  0.00    -0.133 NA
HETATM    5  N   UNK     0     -34.103 -16.639  27.090  0.00  0.00    -0.135 NA
HETATM    6  C   UNK     0     -30.763 -15.999  28.196  0.00  0.00     0.055 A 
HETATM    7  C   UNK     0     -29.555 -15.850  27.486  0.00  0.00     0.022 A 
HETATM    8  C   UNK     0     -32.321 -15.700  26.273  0.00  0.00     0.155 A 
HETATM    9  C   UNK     0     -29.416 -16.097  26.012  0.00  0.00     0.074 C 
HETATM   10  C   UNK     0     -31.390 -14.897  25.452  0.00  0.00     0.230 C 
HETATM   11  C   UNK     0     -33.168 -16.690  28.011  0.00  0.00     0.131 A 
HETATM   12  C   UNK     0     -30.756 -15.958  29.599  0.00  0.00     0.033 A 
HETATM   13  C   UNK     0     -28.375 -15.573  28.201  0.00  0.00     0.040 A 
HETATM   14  C   UNK     0     -29.570 -15.708  30.291  0.00  0.00     0.026 A 
HETATM   15  C   UNK     0     -28.386 -15.499  29.593  0.00  0.00     0.035 A 
HETATM   16  C   UNK     0     -33.345 -17.403  29.293  0.00  0.00     0.094 C 
ENDROOT
BRANCH   9  17
HETATM   17  C   UNK     0     -28.262 -16.920  25.542  0.00  0.00    -0.007 A 
HETATM   18  C   UNK     0     -27.306 -16.348  24.715  0.00  0.00     0.014 A 
HETATM   19  C   UNK     0     -26.227 -17.118  24.277  0.00  0.00     0.001 A 
HETATM   20  C   UNK     0     -26.116 -18.451  24.670  0.00  0.00     0.000 A 
HETATM   21  C   UNK     0     -27.083 -19.015  25.502  0.00  0.00     0.001 A 
HETATM   22  C   UNK     0     -28.161 -18.247  25.940  0.00  0.00     0.014 A 
ENDBRANCH   9  17
TORSDOF 1
ENDMDL
MODEL 3
REMARK VINA RESULT:      -8.1      1.401      2.178
REMARK  1 active torsions:
REMARK  status: ('A' for Active; 'I' for Inactive)
REMARK    1  A    between atoms: C_9  and  C_14 
ROOT
HETATM    1 Cl   UNK     0     -21.763 -12.523  25.652  0.00  0.00    -0.084 Cl
HETATM    2  N   UNK     0     -24.750 -14.975  30.153  0.00  0.00    -0.282 N 
HETATM    3  N   UNK     0     -26.935 -15.234  28.037  0.00  0.00    -0.281 NA
HETATM    4  N   UNK     0     -26.426 -15.551  31.462  0.00  0.00    -0.133 NA
HETATM    5  N   UNK     0     -25.254 -15.792  32.136  0.00  0.00    -0.135 NA
HETATM    6  C   UNK     0     -24.034 -14.475  29.042  0.00  0.00     0.055 A 
HETATM    7  C   UNK     0     -24.585 -14.471  27.745  0.00  0.00     0.022 A 
HETATM    8  C   UNK     0     -26.119 -15.037  30.290  0.00  0.00     0.155 A 
HETATM    9  C   UNK     0     -25.833 -15.213  27.366  0.00  0.00     0.074 C 
HETATM   10  C   UNK     0     -27.048 -14.492  29.277  0.00  0.00     0.230 C 
HETATM   11  C   UNK     0     -24.264 -15.420  31.356  0.00  0.00     0.131 A 
HETATM   12  C   UNK     0     -22.756 -13.936  29.258  0.00  0.00     0.033 A 
HETATM   13  C   UNK     0     -23.874 -13.843  26.707  0.00  0.00     0.040 A 
HETATM   14  C   UNK     0     -22.056 -13.341  28.208  0.00  0.00     0.026 A 
HETATM   15  C   UNK     0     -22.621 -13.279  26.940  0.00  0.00     0.035 A 
HETATM   16  C   UNK     0     -22.845 -15.642  31.701  0.00  0.00     0.094 C 
ENDROOT
BRANCH   9  17
HETATM   17  C   UNK     0     -25.813 -16.032  26.117  0.00  0.00    -0.007 A 
HETATM   18  C   UNK     0     -26.847 -16.921  25.865  0.00  0.00     0.014 A 
HETATM   19  C   UNK     0     -26.828 -17.686  24.698  0.00  0.00     0.001 A 
HETATM   20  C   UNK     0     -25.774 -17.553  23.794  0.00  0.00     0.000 A 
HETATM   21  C   UNK     0     -24.739 -16.655  24.058  0.00  0.00     0.001 A 
HETATM   22  C   UNK     0     -24.758 -15.891  25.225  0.00  0.00     0.014 A 
ENDBRANCH   9  17
TORSDOF 1
ENDMDL
