MODEL 1
REMARK VINA RESULT:      -7.5      0.000      0.000
REMARK  1 active torsions:
REMARK  status: ('A' for Active; 'I' for Inactive)
REMARK    1  A    between atoms: C_9  and  C_14 
ROOT
HETATM    1 Cl   UNK     0     -36.262  49.815  16.123  0.00  0.00    -0.084 Cl
HETATM    2  N   UNK     0     -41.213  47.337  18.253  0.00  0.00    -0.282 N 
HETATM    3  N   UNK     0     -42.543  49.560  16.639  0.00  0.00    -0.281 NA
HETATM    4  N   UNK     0     -43.267  47.136  19.024  0.00  0.00    -0.133 NA
HETATM    5  N   UNK     0     -42.592  45.971  19.294  0.00  0.00    -0.135 NA
HETATM    6  C   UNK     0     -40.057  47.895  17.663  0.00  0.00     0.055 A 
HETATM    7  C   UNK     0     -40.136  48.934  16.714  0.00  0.00     0.022 A 
HETATM    8  C   UNK     0     -42.429  47.958  18.428  0.00  0.00     0.155 A 
HETATM    9  C   UNK     0     -41.412  49.363  16.050  0.00  0.00     0.074 C 
HETATM   10  C   UNK     0     -42.661  49.374  18.072  0.00  0.00     0.230 C 
HETATM   11  C   UNK     0     -41.363  46.113  18.854  0.00  0.00     0.131 A 
HETATM   12  C   UNK     0     -38.801  47.417  18.069  0.00  0.00     0.033 A 
HETATM   13  C   UNK     0     -38.947  49.532  16.260  0.00  0.00     0.040 A 
HETATM   14  C   UNK     0     -37.633  48.008  17.587  0.00  0.00     0.026 A 
HETATM   15  C   UNK     0     -37.706  49.074  16.698  0.00  0.00     0.035 A 
HETATM   16  C   UNK     0     -40.376  45.014  18.864  0.00  0.00     0.094 C 
ENDROOT
BRANCH   9  17
HETATM   17  C   UNK     0     -41.404  49.556  14.569  0.00  0.00    -0.007 A 
HETATM   18  C   UNK     0     -41.203  50.826  14.047  0.00  0.00     0.014 A 
HETATM   19  C   UNK     0     -41.195  51.006  12.663  0.00  0.00     0.001 A 
HETATM   20  C   UNK     0     -41.388  49.915  11.816  0.00  0.00     0.000 A 
HETATM   21  C   UNK     0     -41.590  48.643  12.353  0.00  0.00     0.001 A 
HETATM   22  C   UNK     0     -41.598  48.463  13.736  0.00  0.00     0.014 A 
ENDBRANCH   9  17
TORSDOF 1
ENDMDL
MODEL 2
REMARK VINA RESULT:      -6.5     30.267     31.955
REMARK  1 active torsions:
REMARK  status: ('A' for Active; 'I' for Inactive)
REMARK    1  A    between atoms: C_9  and  C_14 
ROOT
HETATM    1 Cl   UNK     0     -16.518  31.449  24.438  0.00  0.00    -0.084 Cl
HETATM    2  N   UNK     0     -19.459  28.449  28.625  0.00  0.00    -0.282 N 
HETATM    3  N   UNK     0     -17.051  29.245  30.323  0.00  0.00    -0.281 NA
HETATM    4  N   UNK     0     -19.845  27.177  30.382  0.00  0.00    -0.133 NA
HETATM    5  N   UNK     0     -21.017  27.299  29.676  0.00  0.00    -0.135 NA
HETATM    6  C   UNK     0     -18.778  29.241  27.674  0.00  0.00     0.055 A 
HETATM    7  C   UNK     0     -17.605  29.948  28.002  0.00  0.00     0.022 A 
HETATM    8  C   UNK     0     -18.913  27.842  29.734  0.00  0.00     0.155 A 
HETATM    9  C   UNK     0     -17.116  30.150  29.407  0.00  0.00     0.074 C 
HETATM   10  C   UNK     0     -17.467  27.885  30.036  0.00  0.00     0.230 C 
HETATM   11  C   UNK     0     -20.767  28.036  28.618  0.00  0.00     0.131 A 
HETATM   12  C   UNK     0     -19.275  29.285  26.362  0.00  0.00     0.033 A 
HETATM   13  C   UNK     0     -16.904  30.614  26.980  0.00  0.00     0.040 A 
HETATM   14  C   UNK     0     -18.578  29.973  25.368  0.00  0.00     0.026 A 
HETATM   15  C   UNK     0     -17.387  30.621  25.672  0.00  0.00     0.035 A 
HETATM   16  C   UNK     0     -21.822  28.481  27.684  0.00  0.00     0.094 C 
ENDROOT
BRANCH   9  17
HETATM   17  C   UNK     0     -16.688  31.523  29.812  0.00  0.00    -0.007 A 
HETATM   18  C   UNK     0     -15.817  31.680  30.880  0.00  0.00     0.014 A 
HETATM   19  C   UNK     0     -15.418  32.962  31.259  0.00  0.00     0.001 A 
HETATM   20  C   UNK     0     -15.894  34.074  30.565  0.00  0.00     0.000 A 
HETATM   21  C   UNK     0     -16.770  33.904  29.493  0.00  0.00     0.001 A 
HETATM   22  C   UNK     0     -17.169  32.623  29.114  0.00  0.00     0.014 A 
ENDBRANCH   9  17
TORSDOF 1
ENDMDL
MODEL 3
REMARK VINA RESULT:      -6.5     15.817     17.815
REMARK  1 active torsions:
REMARK  status: ('A' for Active; 'I' for Inactive)
REMARK    1  A    between atoms: C_9  and  C_14 
ROOT
HETATM    1 Cl   UNK     0     -29.121  44.805  24.241  0.00  0.00    -0.084 Cl
HETATM    2  N   UNK     0     -27.883  43.440  29.880  0.00  0.00    -0.282 N 
HETATM    3  N   UNK     0     -28.243  46.446  30.267  0.00  0.00    -0.281 NA
HETATM    4  N   UNK     0     -27.108  43.614  31.935  0.00  0.00    -0.133 NA
HETATM    5  N   UNK     0     -27.434  42.298  31.710  0.00  0.00    -0.135 NA
HETATM    6  C   UNK     0     -28.265  43.782  28.564  0.00  0.00     0.055 A 
HETATM    7  C   UNK     0     -28.653  45.093  28.221  0.00  0.00     0.022 A 
HETATM    8  C   UNK     0     -27.353  44.284  30.829  0.00  0.00     0.155 A 
HETATM    9  C   UNK     0     -28.952  46.166  29.227  0.00  0.00     0.074 C 
HETATM   10  C   UNK     0     -27.032  45.700  30.548  0.00  0.00     0.230 C 
HETATM   11  C   UNK     0     -27.869  42.204  30.474  0.00  0.00     0.131 A 
HETATM   12  C   UNK     0     -28.216  42.788  27.573  0.00  0.00     0.033 A 
HETATM   13  C   UNK     0     -28.897  45.398  26.870  0.00  0.00     0.040 A 
HETATM   14  C   UNK     0     -28.487  43.106  26.242  0.00  0.00     0.026 A 
HETATM   15  C   UNK     0     -28.810  44.411  25.888  0.00  0.00     0.035 A 
HETATM   16  C   UNK     0     -28.425  40.954  29.914  0.00  0.00     0.094 C 
ENDROOT
BRANCH   9  17
HETATM   17  C   UNK     0     -30.193  46.975  29.043  0.00  0.00    -0.007 A 
HETATM   18  C   UNK     0     -31.389  46.337  28.750  0.00  0.00     0.014 A 
HETATM   19  C   UNK     0     -32.549  47.094  28.579  0.00  0.00     0.001 A 
HETATM   20  C   UNK     0     -32.500  48.482  28.704  0.00  0.00     0.000 A 
HETATM   21  C   UNK     0     -31.292  49.113  29.000  0.00  0.00     0.001 A 
HETATM   22  C   UNK     0     -30.133  48.357  29.170  0.00  0.00     0.014 A 
ENDBRANCH   9  17
TORSDOF 1
ENDMDL
