MODEL 1
REMARK VINA RESULT:      -7.5      0.000      0.000
REMARK  1 active torsions:
REMARK  status: ('A' for Active; 'I' for Inactive)
REMARK    1  A    between atoms: C_9  and  C_14 
ROOT
HETATM    1 Cl   UNK     0     -36.366 -60.050   8.586  0.00  0.00    -0.084 Cl
HETATM    2  N   UNK     0     -33.015 -56.288   5.454  0.00  0.00    -0.282 N 
HETATM    3  N   UNK     0     -31.668 -55.864   8.160  0.00  0.00    -0.281 NA
HETATM    4  N   UNK     0     -31.785 -54.531   4.951  0.00  0.00    -0.133 NA
HETATM    5  N   UNK     0     -32.150 -55.148   3.780  0.00  0.00    -0.135 NA
HETATM    6  C   UNK     0     -33.739 -57.239   6.207  0.00  0.00     0.055 A 
HETATM    7  C   UNK     0     -33.426 -57.516   7.552  0.00  0.00     0.022 A 
HETATM    8  C   UNK     0     -32.328 -55.201   5.945  0.00  0.00     0.155 A 
HETATM    9  C   UNK     0     -32.170 -57.050   8.230  0.00  0.00     0.074 C 
HETATM   10  C   UNK     0     -32.329 -54.837   7.379  0.00  0.00     0.230 C 
HETATM   11  C   UNK     0     -32.905 -56.177   4.092  0.00  0.00     0.131 A 
HETATM   12  C   UNK     0     -34.822 -57.891   5.595  0.00  0.00     0.033 A 
HETATM   13  C   UNK     0     -34.264 -58.378   8.283  0.00  0.00     0.040 A 
HETATM   14  C   UNK     0     -35.626 -58.763   6.331  0.00  0.00     0.026 A 
HETATM   15  C   UNK     0     -35.358 -58.992   7.675  0.00  0.00     0.035 A 
HETATM   16  C   UNK     0     -33.387 -57.150   3.090  0.00  0.00     0.094 C 
ENDROOT
BRANCH   9  17
HETATM   17  C   UNK     0     -31.399 -58.040   9.039  0.00  0.00    -0.007 A 
HETATM   18  C   UNK     0     -31.434 -57.967  10.424  0.00  0.00     0.014 A 
HETATM   19  C   UNK     0     -30.713 -58.892  11.181  0.00  0.00     0.001 A 
HETATM   20  C   UNK     0     -29.965 -59.882  10.544  0.00  0.00     0.000 A 
HETATM   21  C   UNK     0     -29.938 -59.947   9.150  0.00  0.00     0.001 A 
HETATM   22  C   UNK     0     -30.658 -59.021   8.394  0.00  0.00     0.014 A 
ENDBRANCH   9  17
TORSDOF 1
ENDMDL
MODEL 2
REMARK VINA RESULT:      -7.4      3.198      6.149
REMARK  1 active torsions:
REMARK  status: ('A' for Active; 'I' for Inactive)
REMARK    1  A    between atoms: C_9  and  C_14 
ROOT
HETATM    1 Cl   UNK     0     -30.524 -53.266   5.440  0.00  0.00    -0.084 Cl
HETATM    2  N   UNK     0     -30.465 -57.654   9.432  0.00  0.00    -0.282 N 
HETATM    3  N   UNK     0     -33.483 -57.197   9.386  0.00  0.00    -0.281 NA
HETATM    4  N   UNK     0     -31.022 -58.881  11.174  0.00  0.00    -0.133 NA
HETATM    5  N   UNK     0     -29.774 -59.275  10.754  0.00  0.00    -0.135 NA
HETATM    6  C   UNK     0     -30.518 -56.668   8.421  0.00  0.00     0.055 A 
HETATM    7  C   UNK     0     -31.743 -56.168   7.936  0.00  0.00     0.022 A 
HETATM    8  C   UNK     0     -31.416 -57.895  10.398  0.00  0.00     0.155 A 
HETATM    9  C   UNK     0     -33.075 -56.793   8.231  0.00  0.00     0.074 C 
HETATM   10  C   UNK     0     -32.628 -57.062  10.549  0.00  0.00     0.230 C 
HETATM   11  C   UNK     0     -29.443 -58.518   9.733  0.00  0.00     0.131 A 
HETATM   12  C   UNK     0     -29.310 -56.155   7.924  0.00  0.00     0.033 A 
HETATM   13  C   UNK     0     -31.727 -55.098   7.024  0.00  0.00     0.040 A 
HETATM   14  C   UNK     0     -29.316 -55.109   6.999  0.00  0.00     0.026 A 
HETATM   15  C   UNK     0     -30.521 -54.571   6.563  0.00  0.00     0.035 A 
HETATM   16  C   UNK     0     -28.213 -58.732   8.943  0.00  0.00     0.094 C 
ENDROOT
BRANCH   9  17
HETATM   17  C   UNK     0     -34.021 -57.002   7.094  0.00  0.00    -0.007 A 
HETATM   18  C   UNK     0     -33.846 -58.089   6.251  0.00  0.00     0.014 A 
HETATM   19  C   UNK     0     -34.730 -58.285   5.189  0.00  0.00     0.001 A 
HETATM   20  C   UNK     0     -35.780 -57.391   4.982  0.00  0.00     0.000 A 
HETATM   21  C   UNK     0     -35.946 -56.301   5.836  0.00  0.00     0.001 A 
HETATM   22  C   UNK     0     -35.063 -56.105   6.897  0.00  0.00     0.014 A 
ENDBRANCH   9  17
TORSDOF 1
ENDMDL
MODEL 3
REMARK VINA RESULT:      -6.6     33.058     35.227
REMARK  1 active torsions:
REMARK  status: ('A' for Active; 'I' for Inactive)
REMARK    1  A    between atoms: C_9  and  C_14 
ROOT
HETATM    1 Cl   UNK     0     -27.931 -27.749  31.640  0.00  0.00    -0.084 Cl
HETATM    2  N   UNK     0     -30.970 -32.842  31.554  0.00  0.00    -0.282 N 
HETATM    3  N   UNK     0     -32.234 -31.582  29.077  0.00  0.00    -0.281 NA
HETATM    4  N   UNK     0     -32.623 -34.268  31.251  0.00  0.00    -0.133 NA
HETATM    5  N   UNK     0     -31.680 -34.868  32.049  0.00  0.00    -0.135 NA
HETATM    6  C   UNK     0     -30.202 -31.658  31.499  0.00  0.00     0.055 A 
HETATM    7  C   UNK     0     -30.332 -30.738  30.440  0.00  0.00     0.022 A 
HETATM    8  C   UNK     0     -32.206 -33.049  30.983  0.00  0.00     0.155 A 
HETATM    9  C   UNK     0     -31.073 -31.027  29.167  0.00  0.00     0.074 C 
HETATM   10  C   UNK     0     -32.946 -31.982  30.275  0.00  0.00     0.230 C 
HETATM   11  C   UNK     0     -30.714 -33.999  32.244  0.00  0.00     0.131 A 
HETATM   12  C   UNK     0     -29.316 -31.387  32.553  0.00  0.00     0.033 A 
HETATM   13  C   UNK     0     -29.633 -29.519  30.509  0.00  0.00     0.040 A 
HETATM   14  C   UNK     0     -28.612 -30.183  32.590  0.00  0.00     0.026 A 
HETATM   15  C   UNK     0     -28.783 -29.244  31.580  0.00  0.00     0.035 A 
HETATM   16  C   UNK     0     -29.466 -34.336  32.959  0.00  0.00     0.094 C 
ENDROOT
BRANCH   9  17
HETATM   17  C   UNK     0     -30.413 -30.677  27.874  0.00  0.00    -0.007 A 
HETATM   18  C   UNK     0     -29.859 -31.683  27.096  0.00  0.00     0.014 A 
HETATM   19  C   UNK     0     -29.242 -31.356  25.887  0.00  0.00     0.001 A 
HETATM   20  C   UNK     0     -29.188 -30.026  25.469  0.00  0.00     0.000 A 
HETATM   21  C   UNK     0     -29.749 -29.024  26.260  0.00  0.00     0.001 A 
HETATM   22  C   UNK     0     -30.365 -29.350  27.469  0.00  0.00     0.014 A 
ENDBRANCH   9  17
TORSDOF 1
ENDMDL
