MODEL 1
REMARK VINA RESULT:      -9.3      0.000      0.000
REMARK  1 active torsions:
REMARK  status: ('A' for Active; 'I' for Inactive)
REMARK    1  A    between atoms: C_9  and  C_14 
ROOT
HETATM    1 Cl   UNK     0      -4.346  22.594 -27.977  0.00  0.00    -0.084 Cl
HETATM    2  N   UNK     0      -6.911  17.271 -27.461  0.00  0.00    -0.282 N 
HETATM    3  N   UNK     0      -4.032  16.374 -26.983  0.00  0.00    -0.281 NA
HETATM    4  N   UNK     0      -7.208  15.091 -27.577  0.00  0.00    -0.133 NA
HETATM    5  N   UNK     0      -8.428  15.678 -27.343  0.00  0.00    -0.135 NA
HETATM    6  C   UNK     0      -6.283  18.536 -27.493  0.00  0.00     0.055 A 
HETATM    7  C   UNK     0      -4.909  18.690 -27.219  0.00  0.00     0.022 A 
HETATM    8  C   UNK     0      -6.312  16.049 -27.675  0.00  0.00     0.155 A 
HETATM    9  C   UNK     0      -4.050  17.613 -26.624  0.00  0.00     0.074 C 
HETATM   10  C   UNK     0      -4.890  15.913 -28.057  0.00  0.00     0.230 C 
HETATM   11  C   UNK     0      -8.241  16.977 -27.303  0.00  0.00     0.131 A 
HETATM   12  C   UNK     0      -7.053  19.655 -27.845  0.00  0.00     0.033 A 
HETATM   13  C   UNK     0      -4.319  19.955 -27.393  0.00  0.00     0.040 A 
HETATM   14  C   UNK     0      -6.453  20.907 -27.987  0.00  0.00     0.026 A 
HETATM   15  C   UNK     0      -5.087  21.053 -27.779  0.00  0.00     0.035 A 
HETATM   16  C   UNK     0      -9.313  17.930 -26.950  0.00  0.00     0.094 C 
ENDROOT
BRANCH   9  17
HETATM   17  C   UNK     0      -3.148  17.979 -25.491  0.00  0.00    -0.007 A 
HETATM   18  C   UNK     0      -1.841  18.361 -25.754  0.00  0.00     0.014 A 
HETATM   19  C   UNK     0      -0.998  18.703 -24.695  0.00  0.00     0.001 A 
HETATM   20  C   UNK     0      -1.472  18.659 -23.385  0.00  0.00     0.000 A 
HETATM   21  C   UNK     0      -2.789  18.273 -23.132  0.00  0.00     0.001 A 
HETATM   22  C   UNK     0      -3.631  17.931 -24.190  0.00  0.00     0.014 A 
ENDBRANCH   9  17
TORSDOF 1
ENDMDL
MODEL 2
REMARK VINA RESULT:      -9.1      2.599      5.196
REMARK  1 active torsions:
REMARK  status: ('A' for Active; 'I' for Inactive)
REMARK    1  A    between atoms: C_9  and  C_14 
ROOT
HETATM    1 Cl   UNK     0      -9.758  18.370 -27.600  0.00  0.00    -0.084 Cl
HETATM    2  N   UNK     0      -4.063  19.594 -26.479  0.00  0.00    -0.282 N 
HETATM    3  N   UNK     0      -4.186  16.909 -25.032  0.00  0.00    -0.281 NA
HETATM    4  N   UNK     0      -2.127  19.682 -25.431  0.00  0.00    -0.133 NA
HETATM    5  N   UNK     0      -2.095  20.584 -26.467  0.00  0.00    -0.135 NA
HETATM    6  C   UNK     0      -5.390  19.235 -26.803  0.00  0.00     0.055 A 
HETATM    7  C   UNK     0      -5.932  17.986 -26.439  0.00  0.00     0.022 A 
HETATM    8  C   UNK     0      -3.314  19.115 -25.427  0.00  0.00     0.155 A 
HETATM    9  C   UNK     0      -5.112  16.838 -25.927  0.00  0.00     0.074 C 
HETATM   10  C   UNK     0      -3.861  18.182 -24.418  0.00  0.00     0.230 C 
HETATM   11  C   UNK     0      -3.264  20.541 -27.066  0.00  0.00     0.131 A 
HETATM   12  C   UNK     0      -6.192  20.174 -27.472  0.00  0.00     0.033 A 
HETATM   13  C   UNK     0      -7.296  17.741 -26.677  0.00  0.00     0.040 A 
HETATM   14  C   UNK     0      -7.538  19.900 -27.722  0.00  0.00     0.026 A 
HETATM   15  C   UNK     0      -8.092  18.694 -27.310  0.00  0.00     0.035 A 
HETATM   16  C   UNK     0      -3.557  21.293 -28.303  0.00  0.00     0.094 C 
ENDROOT
BRANCH   9  17
HETATM   17  C   UNK     0      -5.351  15.486 -26.514  0.00  0.00    -0.007 A 
HETATM   18  C   UNK     0      -6.033  14.530 -25.775  0.00  0.00     0.014 A 
HETATM   19  C   UNK     0      -6.256  13.267 -26.324  0.00  0.00     0.001 A 
HETATM   20  C   UNK     0      -5.796  12.973 -27.607  0.00  0.00     0.000 A 
HETATM   21  C   UNK     0      -5.112  13.941 -28.341  0.00  0.00     0.001 A 
HETATM   22  C   UNK     0      -4.888  15.204 -27.793  0.00  0.00     0.014 A 
ENDBRANCH   9  17
TORSDOF 1
ENDMDL
MODEL 3
REMARK VINA RESULT:      -8.9      3.030      6.041
REMARK  1 active torsions:
REMARK  status: ('A' for Active; 'I' for Inactive)
REMARK    1  A    between atoms: C_9  and  C_14 
ROOT
HETATM    1 Cl   UNK     0      -7.391  15.205 -27.819  0.00  0.00    -0.084 Cl
HETATM    2  N   UNK     0      -3.049  18.752 -25.881  0.00  0.00    -0.282 N 
HETATM    3  N   UNK     0      -3.689  20.272 -28.449  0.00  0.00    -0.281 NA
HETATM    4  N   UNK     0      -1.327  20.126 -25.902  0.00  0.00    -0.133 NA
HETATM    5  N   UNK     0      -1.472  19.640 -24.625  0.00  0.00    -0.135 NA
HETATM    6  C   UNK     0      -4.143  17.975 -26.323  0.00  0.00     0.055 A 
HETATM    7  C   UNK     0      -4.890  18.329 -27.465  0.00  0.00     0.022 A 
HETATM    8  C   UNK     0      -2.254  19.570 -26.652  0.00  0.00     0.155 A 
HETATM    9  C   UNK     0      -4.785  19.658 -28.154  0.00  0.00     0.074 C 
HETATM   10  C   UNK     0      -2.408  19.679 -28.119  0.00  0.00     0.230 C 
HETATM   11  C   UNK     0      -2.484  18.803 -24.632  0.00  0.00     0.131 A 
HETATM   12  C   UNK     0      -4.459  16.803 -25.619  0.00  0.00     0.033 A 
HETATM   13  C   UNK     0      -5.883  17.447 -27.927  0.00  0.00     0.040 A 
HETATM   14  C   UNK     0      -5.466  15.954 -26.080  0.00  0.00     0.026 A 
HETATM   15  C   UNK     0      -6.165  16.266 -27.240  0.00  0.00     0.035 A 
HETATM   16  C   UNK     0      -3.011  18.174 -23.404  0.00  0.00     0.094 C 
ENDROOT
BRANCH   9  17
HETATM   17  C   UNK     0      -6.049  20.366 -28.513  0.00  0.00    -0.007 A 
HETATM   18  C   UNK     0      -6.359  20.577 -29.849  0.00  0.00     0.014 A 
HETATM   19  C   UNK     0      -7.541  21.239 -30.184  0.00  0.00     0.001 A 
HETATM   20  C   UNK     0      -8.401  21.682 -29.180  0.00  0.00     0.000 A 
HETATM   21  C   UNK     0      -8.080  21.464 -27.840  0.00  0.00     0.001 A 
HETATM   22  C   UNK     0      -6.898  20.803 -27.505  0.00  0.00     0.014 A 
ENDBRANCH   9  17
TORSDOF 1
ENDMDL
