MODEL 1
REMARK VINA RESULT:      -9.5      0.000      0.000
REMARK  1 active torsions:
REMARK  status: ('A' for Active; 'I' for Inactive)
REMARK    1  A    between atoms: C_9  and  C_14 
ROOT
HETATM    1 Cl   UNK     0       1.045   6.034  17.698  0.00  0.00    -0.084 Cl
HETATM    2  N   UNK     0       5.081   7.209  21.884  0.00  0.00    -0.282 N 
HETATM    3  N   UNK     0       6.368   8.813  19.628  0.00  0.00    -0.281 NA
HETATM    4  N   UNK     0       7.024   7.634  22.832  0.00  0.00    -0.133 NA
HETATM    5  N   UNK     0       6.132   7.290  23.818  0.00  0.00    -0.135 NA
HETATM    6  C   UNK     0       4.093   7.018  20.892  0.00  0.00     0.055 A 
HETATM    7  C   UNK     0       4.165   7.658  19.639  0.00  0.00     0.022 A 
HETATM    8  C   UNK     0       6.397   7.556  21.677  0.00  0.00     0.155 A 
HETATM    9  C   UNK     0       5.114   8.778  19.326  0.00  0.00     0.074 C 
HETATM   10  C   UNK     0       6.982   7.702  20.327  0.00  0.00     0.230 C 
HETATM   11  C   UNK     0       4.986   7.013  23.238  0.00  0.00     0.131 A 
HETATM   12  C   UNK     0       3.036   6.134  21.164  0.00  0.00     0.033 A 
HETATM   13  C   UNK     0       3.221   7.326  18.651  0.00  0.00     0.040 A 
HETATM   14  C   UNK     0       2.094   5.838  20.177  0.00  0.00     0.026 A 
HETATM   15  C   UNK     0       2.196   6.419  18.919  0.00  0.00     0.035 A 
HETATM   16  C   UNK     0       3.754   6.718  23.997  0.00  0.00     0.094 C 
ENDROOT
BRANCH   9  17
HETATM   17  C   UNK     0       4.574   9.984  18.630  0.00  0.00    -0.007 A 
HETATM   18  C   UNK     0       4.901  10.209  17.301  0.00  0.00     0.014 A 
HETATM   19  C   UNK     0       4.396  11.336  16.651  0.00  0.00     0.001 A 
HETATM   20  C   UNK     0       3.569  12.225  17.337  0.00  0.00     0.000 A 
HETATM   21  C   UNK     0       3.248  11.988  18.673  0.00  0.00     0.001 A 
HETATM   22  C   UNK     0       3.752  10.862  19.324  0.00  0.00     0.014 A 
ENDBRANCH   9  17
TORSDOF 1
ENDMDL
MODEL 2
REMARK VINA RESULT:      -9.4      3.819      6.530
REMARK  1 active torsions:
REMARK  status: ('A' for Active; 'I' for Inactive)
REMARK    1  A    between atoms: C_9  and  C_14 
ROOT
HETATM    1 Cl   UNK     0       5.601   8.638  21.543  0.00  0.00    -0.084 Cl
HETATM    2  N   UNK     0       4.016  10.185  16.041  0.00  0.00    -0.282 N 
HETATM    3  N   UNK     0       3.522   7.185  15.769  0.00  0.00    -0.281 NA
HETATM    4  N   UNK     0       3.725  10.084  13.859  0.00  0.00    -0.133 NA
HETATM    5  N   UNK     0       3.542  11.386  14.256  0.00  0.00    -0.135 NA
HETATM    6  C   UNK     0       4.305   9.799  17.368  0.00  0.00     0.055 A 
HETATM    7  C   UNK     0       4.129   8.472  17.810  0.00  0.00     0.022 A 
HETATM    8  C   UNK     0       4.035   9.378  14.925  0.00  0.00     0.155 A 
HETATM    9  C   UNK     0       3.391   7.423  17.030  0.00  0.00     0.074 C 
HETATM   10  C   UNK     0       4.454   7.961  14.973  0.00  0.00     0.230 C 
HETATM   11  C   UNK     0       3.745  11.438  15.552  0.00  0.00     0.131 A 
HETATM   12  C   UNK     0       4.815  10.765  18.250  0.00  0.00     0.033 A 
HETATM   13  C   UNK     0       4.555   8.124  19.104  0.00  0.00     0.040 A 
HETATM   14  C   UNK     0       5.208  10.404  19.539  0.00  0.00     0.026 A 
HETATM   15  C   UNK     0       5.094   9.084  19.960  0.00  0.00     0.035 A 
HETATM   16  C   UNK     0       3.518  12.661  16.350  0.00  0.00     0.094 C 
ENDROOT
BRANCH   9  17
HETATM   17  C   UNK     0       2.386   6.587  17.752  0.00  0.00    -0.007 A 
HETATM   18  C   UNK     0       2.700   5.277  18.085  0.00  0.00     0.014 A 
HETATM   19  C   UNK     0       1.761   4.495  18.760  0.00  0.00     0.001 A 
HETATM   20  C   UNK     0       0.518   5.032  19.095  0.00  0.00     0.000 A 
HETATM   21  C   UNK     0       0.214   6.351  18.756  0.00  0.00     0.001 A 
HETATM   22  C   UNK     0       1.152   7.132  18.081  0.00  0.00     0.014 A 
ENDBRANCH   9  17
TORSDOF 1
ENDMDL
MODEL 3
REMARK VINA RESULT:      -9.0      2.389      5.539
REMARK  1 active torsions:
REMARK  status: ('A' for Active; 'I' for Inactive)
REMARK    1  A    between atoms: C_9  and  C_14 
ROOT
HETATM    1 Cl   UNK     0       1.598   4.286  19.886  0.00  0.00    -0.084 Cl
HETATM    2  N   UNK     0       3.473   8.975  16.774  0.00  0.00    -0.282 N 
HETATM    3  N   UNK     0       4.014  10.103  19.558  0.00  0.00    -0.281 NA
HETATM    4  N   UNK     0       3.888  11.067  16.220  0.00  0.00    -0.133 NA
HETATM    5  N   UNK     0       4.034  10.290  15.097  0.00  0.00    -0.135 NA
HETATM    6  C   UNK     0       3.115   7.843  17.538  0.00  0.00     0.055 A 
HETATM    7  C   UNK     0       3.280   7.809  18.937  0.00  0.00     0.022 A 
HETATM    8  C   UNK     0       3.525  10.280  17.210  0.00  0.00     0.155 A 
HETATM    9  C   UNK     0       4.071   8.823  19.709  0.00  0.00     0.074 C 
HETATM   10  C   UNK     0       3.119  10.682  18.574  0.00  0.00     0.230 C 
HETATM   11  C   UNK     0       3.758   9.050  15.434  0.00  0.00     0.131 A 
HETATM   12  C   UNK     0       2.545   6.743  16.877  0.00  0.00     0.033 A 
HETATM   13  C   UNK     0       2.785   6.704  19.653  0.00  0.00     0.040 A 
HETATM   14  C   UNK     0       2.084   5.645  17.604  0.00  0.00     0.026 A 
HETATM   15  C   UNK     0       2.188   5.633  18.990  0.00  0.00     0.035 A 
HETATM   16  C   UNK     0       3.926   7.912  14.508  0.00  0.00     0.094 C 
ENDROOT
BRANCH   9  17
HETATM   17  C   UNK     0       5.042   8.329  20.730  0.00  0.00    -0.007 A 
HETATM   18  C   UNK     0       4.651   8.235  22.058  0.00  0.00     0.014 A 
HETATM   19  C   UNK     0       5.559   7.772  23.012  0.00  0.00     0.001 A 
HETATM   20  C   UNK     0       6.849   7.408  22.627  0.00  0.00     0.000 A 
HETATM   21  C   UNK     0       7.231   7.506  21.290  0.00  0.00     0.001 A 
HETATM   22  C   UNK     0       6.324   7.968  20.336  0.00  0.00     0.014 A 
ENDBRANCH   9  17
TORSDOF 1
ENDMDL
