MODEL 1
REMARK VINA RESULT:      -8.3      0.000      0.000
REMARK  1 active torsions:
REMARK  status: ('A' for Active; 'I' for Inactive)
REMARK    1  A    between atoms: C_9  and  C_14 
ROOT
HETATM    1 Cl   UNK     0      25.793  14.075  -0.138  0.00  0.00    -0.084 Cl
HETATM    2  N   UNK     0      30.982  16.949  -0.076  0.00  0.00    -0.282 N 
HETATM    3  N   UNK     0      31.136  15.910  -2.942  0.00  0.00    -0.281 NA
HETATM    4  N   UNK     0      33.086  17.443  -0.505  0.00  0.00    -0.133 NA
HETATM    5  N   UNK     0      32.679  18.196   0.569  0.00  0.00    -0.135 NA
HETATM    6  C   UNK     0      29.714  16.330  -0.149  0.00  0.00     0.055 A 
HETATM    7  C   UNK     0      29.235  15.758  -1.344  0.00  0.00     0.022 A 
HETATM    8  C   UNK     0      32.076  16.680  -0.867  0.00  0.00     0.155 A 
HETATM    9  C   UNK     0      29.873  15.970  -2.686  0.00  0.00     0.074 C 
HETATM   10  C   UNK     0      32.081  15.607  -1.884  0.00  0.00     0.230 C 
HETATM   11  C   UNK     0      31.433  17.873   0.831  0.00  0.00     0.131 A 
HETATM   12  C   UNK     0      28.938  16.256   1.019  0.00  0.00     0.033 A 
HETATM   13  C   UNK     0      28.024  15.044  -1.318  0.00  0.00     0.040 A 
HETATM   14  C   UNK     0      27.726  15.565   1.017  0.00  0.00     0.026 A 
HETATM   15  C   UNK     0      27.278  14.946  -0.144  0.00  0.00     0.035 A 
HETATM   16  C   UNK     0      30.623  18.570   1.852  0.00  0.00     0.094 C 
ENDROOT
BRANCH   9  17
HETATM   17  C   UNK     0      28.988  16.314  -3.839  0.00  0.00    -0.007 A 
HETATM   18  C   UNK     0      27.878  17.120  -3.632  0.00  0.00     0.014 A 
HETATM   19  C   UNK     0      27.052  17.441  -4.710  0.00  0.00     0.001 A 
HETATM   20  C   UNK     0      27.344  16.954  -5.983  0.00  0.00     0.000 A 
HETATM   21  C   UNK     0      28.463  16.144  -6.179  0.00  0.00     0.001 A 
HETATM   22  C   UNK     0      29.290  15.822  -5.102  0.00  0.00     0.014 A 
ENDBRANCH   9  17
TORSDOF 1
ENDMDL
MODEL 2
REMARK VINA RESULT:      -7.9      1.734      4.686
REMARK  1 active torsions:
REMARK  status: ('A' for Active; 'I' for Inactive)
REMARK    1  A    between atoms: C_9  and  C_14 
ROOT
HETATM    1 Cl   UNK     0      26.695  16.497  -4.736  0.00  0.00    -0.084 Cl
HETATM    2  N   UNK     0      31.529  15.936  -1.344  0.00  0.00    -0.282 N 
HETATM    3  N   UNK     0      29.575  16.709   0.871  0.00  0.00    -0.281 NA
HETATM    4  N   UNK     0      32.975  16.285   0.281  0.00  0.00    -0.133 NA
HETATM    5  N   UNK     0      33.590  15.524  -0.684  0.00  0.00    -0.135 NA
HETATM    6  C   UNK     0      30.344  15.993  -2.111  0.00  0.00     0.055 A 
HETATM    7  C   UNK     0      29.087  16.226  -1.520  0.00  0.00     0.022 A 
HETATM    8  C   UNK     0      31.755  16.551  -0.132  0.00  0.00     0.155 A 
HETATM    9  C   UNK     0      28.837  16.174  -0.041  0.00  0.00     0.074 C 
HETATM   10  C   UNK     0      30.767  17.449   0.503  0.00  0.00     0.230 C 
HETATM   11  C   UNK     0      32.726  15.347  -1.657  0.00  0.00     0.131 A 
HETATM   12  C   UNK     0      30.443  15.849  -3.504  0.00  0.00     0.033 A 
HETATM   13  C   UNK     0      27.966  16.400  -2.352  0.00  0.00     0.040 A 
HETATM   14  C   UNK     0      29.314  15.999  -4.310  0.00  0.00     0.026 A 
HETATM   15  C   UNK     0      28.082  16.290  -3.737  0.00  0.00     0.035 A 
HETATM   16  C   UNK     0      32.997  14.473  -2.818  0.00  0.00     0.094 C 
ENDROOT
BRANCH   9  17
HETATM   17  C   UNK     0      27.647  15.412   0.444  0.00  0.00    -0.007 A 
HETATM   18  C   UNK     0      26.784  14.834  -0.475  0.00  0.00     0.014 A 
HETATM   19  C   UNK     0      25.673  14.121  -0.021  0.00  0.00     0.001 A 
HETATM   20  C   UNK     0      25.437  13.996   1.348  0.00  0.00     0.000 A 
HETATM   21  C   UNK     0      26.312  14.582   2.263  0.00  0.00     0.001 A 
HETATM   22  C   UNK     0      27.422  15.294   1.810  0.00  0.00     0.014 A 
ENDBRANCH   9  17
TORSDOF 1
ENDMDL
MODEL 3
REMARK VINA RESULT:      -7.4     16.875     18.785
REMARK  1 active torsions:
REMARK  status: ('A' for Active; 'I' for Inactive)
REMARK    1  A    between atoms: C_9  and  C_14 
ROOT
HETATM    1 Cl   UNK     0      39.835  12.805  10.576  0.00  0.00    -0.084 Cl
HETATM    2  N   UNK     0      39.559   7.575  13.362  0.00  0.00    -0.282 N 
HETATM    3  N   UNK     0      38.413   6.662  10.684  0.00  0.00    -0.281 NA
HETATM    4  N   UNK     0      38.848   5.577  13.959  0.00  0.00    -0.133 NA
HETATM    5  N   UNK     0      39.769   5.999  14.887  0.00  0.00    -0.135 NA
HETATM    6  C   UNK     0      39.692   8.786  12.646  0.00  0.00     0.055 A 
HETATM    7  C   UNK     0      39.382   8.875  11.275  0.00  0.00     0.022 A 
HETATM    8  C   UNK     0      38.706   6.535  13.067  0.00  0.00     0.155 A 
HETATM    9  C   UNK     0      39.143   7.685  10.393  0.00  0.00     0.074 C 
HETATM   10  C   UNK     0      37.728   6.594  11.960  0.00  0.00     0.230 C 
HETATM   11  C   UNK     0      40.164   7.201  14.534  0.00  0.00     0.131 A 
HETATM   12  C   UNK     0      40.111   9.931  13.342  0.00  0.00     0.033 A 
HETATM   13  C   UNK     0      39.413  10.136  10.651  0.00  0.00     0.040 A 
HETATM   14  C   UNK     0      40.160  11.168  12.698  0.00  0.00     0.026 A 
HETATM   15  C   UNK     0      39.795  11.273  11.361  0.00  0.00     0.035 A 
HETATM   16  C   UNK     0      41.246   7.925  15.233  0.00  0.00     0.094 C 
ENDROOT
BRANCH   9  17
HETATM   17  C   UNK     0      39.826   7.644   9.065  0.00  0.00    -0.007 A 
HETATM   18  C   UNK     0      39.065   7.569   7.908  0.00  0.00     0.014 A 
HETATM   19  C   UNK     0      39.703   7.531   6.667  0.00  0.00     0.001 A 
HETATM   20  C   UNK     0      41.096   7.570   6.597  0.00  0.00     0.000 A 
HETATM   21  C   UNK     0      41.850   7.646   7.768  0.00  0.00     0.001 A 
HETATM   22  C   UNK     0      41.213   7.683   9.008  0.00  0.00     0.014 A 
ENDBRANCH   9  17
TORSDOF 1
ENDMDL
