MODEL 1
REMARK VINA RESULT:      -8.4      0.000      0.000
REMARK  1 active torsions:
REMARK  status: ('A' for Active; 'I' for Inactive)
REMARK    1  A    between atoms: C_9  and  C_14 
ROOT
HETATM    1 Cl   UNK     0      20.793  52.906  22.807  0.00  0.00    -0.084 Cl
HETATM    2  N   UNK     0      15.489  53.820  25.301  0.00  0.00    -0.282 N 
HETATM    3  N   UNK     0      17.000  56.040  26.753  0.00  0.00    -0.281 NA
HETATM    4  N   UNK     0      13.965  54.344  26.804  0.00  0.00    -0.133 NA
HETATM    5  N   UNK     0      13.345  53.666  25.783  0.00  0.00    -0.135 NA
HETATM    6  C   UNK     0      16.741  53.682  24.662  0.00  0.00     0.055 A 
HETATM    7  C   UNK     0      17.805  54.570  24.914  0.00  0.00     0.022 A 
HETATM    8  C   UNK     0      15.249  54.408  26.523  0.00  0.00     0.155 A 
HETATM    9  C   UNK     0      17.653  55.868  25.654  0.00  0.00     0.074 C 
HETATM   10  C   UNK     0      16.333  54.921  27.389  0.00  0.00     0.230 C 
HETATM   11  C   UNK     0      14.268  53.336  24.908  0.00  0.00     0.131 A 
HETATM   12  C   UNK     0      16.927  52.605  23.782  0.00  0.00     0.033 A 
HETATM   13  C   UNK     0      19.063  54.304  24.345  0.00  0.00     0.040 A 
HETATM   14  C   UNK     0      18.177  52.372  23.206  0.00  0.00     0.026 A 
HETATM   15  C   UNK     0      19.246  53.209  23.501  0.00  0.00     0.035 A 
HETATM   16  C   UNK     0      13.952  52.698  23.613  0.00  0.00     0.094 C 
ENDROOT
BRANCH   9  17
HETATM   17  C   UNK     0      18.281  57.089  25.068  0.00  0.00    -0.007 A 
HETATM   18  C   UNK     0      19.336  57.700  25.729  0.00  0.00     0.014 A 
HETATM   19  C   UNK     0      19.923  58.842  25.181  0.00  0.00     0.001 A 
HETATM   20  C   UNK     0      19.448  59.360  23.977  0.00  0.00     0.000 A 
HETATM   21  C   UNK     0      18.386  58.737  23.320  0.00  0.00     0.001 A 
HETATM   22  C   UNK     0      17.800  57.597  23.868  0.00  0.00     0.014 A 
ENDBRANCH   9  17
TORSDOF 1
ENDMDL
MODEL 2
REMARK VINA RESULT:      -8.1      2.104      3.148
REMARK  1 active torsions:
REMARK  status: ('A' for Active; 'I' for Inactive)
REMARK    1  A    between atoms: C_9  and  C_14 
ROOT
HETATM    1 Cl   UNK     0      21.620  56.976  27.435  0.00  0.00    -0.084 Cl
HETATM    2  N   UNK     0      16.994  54.409  24.753  0.00  0.00    -0.282 N 
HETATM    3  N   UNK     0      15.668  57.093  25.352  0.00  0.00    -0.281 NA
HETATM    4  N   UNK     0      14.912  53.880  24.260  0.00  0.00    -0.133 NA
HETATM    5  N   UNK     0      15.741  52.959  23.666  0.00  0.00    -0.135 NA
HETATM    6  C   UNK     0      18.103  55.076  25.318  0.00  0.00     0.055 A 
HETATM    7  C   UNK     0      18.043  56.434  25.689  0.00  0.00     0.022 A 
HETATM    8  C   UNK     0      15.665  54.726  24.930  0.00  0.00     0.155 A 
HETATM    9  C   UNK     0      16.929  57.359  25.295  0.00  0.00     0.074 C 
HETATM   10  C   UNK     0      15.216  55.803  25.838  0.00  0.00     0.230 C 
HETATM   11  C   UNK     0      16.975  53.270  23.989  0.00  0.00     0.131 A 
HETATM   12  C   UNK     0      19.279  54.343  25.544  0.00  0.00     0.033 A 
HETATM   13  C   UNK     0      19.138  57.003  26.364  0.00  0.00     0.040 A 
HETATM   14  C   UNK     0      20.364  54.935  26.192  0.00  0.00     0.026 A 
HETATM   15  C   UNK     0      20.288  56.256  26.616  0.00  0.00     0.035 A 
HETATM   16  C   UNK     0      18.150  52.569  23.431  0.00  0.00     0.094 C 
ENDROOT
BRANCH   9  17
HETATM   17  C   UNK     0      17.290  58.704  24.756  0.00  0.00    -0.007 A 
HETATM   18  C   UNK     0      17.771  58.815  23.460  0.00  0.00     0.014 A 
HETATM   19  C   UNK     0      18.107  60.073  22.956  0.00  0.00     0.001 A 
HETATM   20  C   UNK     0      17.959  61.206  23.755  0.00  0.00     0.000 A 
HETATM   21  C   UNK     0      17.474  61.083  25.057  0.00  0.00     0.001 A 
HETATM   22  C   UNK     0      17.138  59.826  25.561  0.00  0.00     0.014 A 
ENDBRANCH   9  17
TORSDOF 1
ENDMDL
MODEL 3
REMARK VINA RESULT:      -8.1      3.067      4.861
REMARK  1 active torsions:
REMARK  status: ('A' for Active; 'I' for Inactive)
REMARK    1  A    between atoms: C_9  and  C_14 
ROOT
HETATM    1 Cl   UNK     0      17.747  62.041  23.926  0.00  0.00    -0.084 Cl
HETATM    2  N   UNK     0      16.971  56.418  25.648  0.00  0.00    -0.282 N 
HETATM    3  N   UNK     0      18.729  55.851  23.219  0.00  0.00    -0.281 NA
HETATM    4  N   UNK     0      16.714  54.232  25.544  0.00  0.00    -0.133 NA
HETATM    5  N   UNK     0      16.357  54.646  26.804  0.00  0.00    -0.135 NA
HETATM    6  C   UNK     0      17.244  57.750  25.265  0.00  0.00     0.055 A 
HETATM    7  C   UNK     0      18.128  58.052  24.210  0.00  0.00     0.022 A 
HETATM    8  C   UNK     0      17.052  55.299  24.851  0.00  0.00     0.155 A 
HETATM    9  C   UNK     0      19.047  57.049  23.577  0.00  0.00     0.074 C 
HETATM   10  C   UNK     0      17.376  55.368  23.410  0.00  0.00     0.230 C 
HETATM   11  C   UNK     0      16.489  55.952  26.845  0.00  0.00     0.131 A 
HETATM   12  C   UNK     0      16.581  58.789  25.938  0.00  0.00     0.033 A 
HETATM   13  C   UNK     0      18.258  59.390  23.794  0.00  0.00     0.040 A 
HETATM   14  C   UNK     0      16.744  60.112  25.526  0.00  0.00     0.026 A 
HETATM   15  C   UNK     0      17.567  60.410  24.446  0.00  0.00     0.035 A 
HETATM   16  C   UNK     0      16.308  56.737  28.083  0.00  0.00     0.094 C 
ENDROOT
BRANCH   9  17
HETATM   17  C   UNK     0      20.472  57.440  23.361  0.00  0.00    -0.007 A 
HETATM   18  C   UNK     0      21.271  57.746  24.453  0.00  0.00     0.014 A 
HETATM   19  C   UNK     0      22.603  58.111  24.251  0.00  0.00     0.001 A 
HETATM   20  C   UNK     0      23.122  58.165  22.958  0.00  0.00     0.000 A 
HETATM   21  C   UNK     0      22.310  57.854  21.867  0.00  0.00     0.001 A 
HETATM   22  C   UNK     0      20.979  57.490  22.069  0.00  0.00     0.014 A 
ENDBRANCH   9  17
TORSDOF 1
ENDMDL
