MODEL 1
REMARK VINA RESULT:      -7.4      0.000      0.000
REMARK  1 active torsions:
REMARK  status: ('A' for Active; 'I' for Inactive)
REMARK    1  A    between atoms: C_9  and  C_14 
ROOT
HETATM    1 Cl   UNK     0      14.991  26.198  56.700  0.00  0.00    -0.084 Cl
HETATM    2  N   UNK     0      16.199  31.759  55.028  0.00  0.00    -0.282 N 
HETATM    3  N   UNK     0      19.062  30.700  54.984  0.00  0.00    -0.281 NA
HETATM    4  N   UNK     0      17.268  33.673  54.803  0.00  0.00    -0.133 NA
HETATM    5  N   UNK     0      15.962  33.865  54.423  0.00  0.00    -0.135 NA
HETATM    6  C   UNK     0      15.933  30.408  55.340  0.00  0.00     0.055 A 
HETATM    7  C   UNK     0      16.951  29.434  55.351  0.00  0.00     0.022 A 
HETATM    8  C   UNK     0      17.396  32.422  55.190  0.00  0.00     0.155 A 
HETATM    9  C   UNK     0      18.326  29.657  54.792  0.00  0.00     0.074 C 
HETATM   10  C   UNK     0      18.580  31.790  55.810  0.00  0.00     0.230 C 
HETATM   11  C   UNK     0      15.330  32.725  54.588  0.00  0.00     0.131 A 
HETATM   12  C   UNK     0      14.621  30.047  55.684  0.00  0.00     0.033 A 
HETATM   13  C   UNK     0      16.646  28.135  55.794  0.00  0.00     0.040 A 
HETATM   14  C   UNK     0      14.333  28.745  56.097  0.00  0.00     0.026 A 
HETATM   15  C   UNK     0      15.346  27.796  56.168  0.00  0.00     0.035 A 
HETATM   16  C   UNK     0      13.929  32.518  54.167  0.00  0.00     0.094 C 
ENDROOT
BRANCH   9  17
HETATM   17  C   UNK     0      18.905  28.604  53.904  0.00  0.00    -0.007 A 
HETATM   18  C   UNK     0      20.261  28.324  53.971  0.00  0.00     0.014 A 
HETATM   19  C   UNK     0      20.802  27.340  53.142  0.00  0.00     0.001 A 
HETATM   20  C   UNK     0      19.978  26.646  52.255  0.00  0.00     0.000 A 
HETATM   21  C   UNK     0      18.615  26.936  52.197  0.00  0.00     0.001 A 
HETATM   22  C   UNK     0      18.075  27.920  53.026  0.00  0.00     0.014 A 
ENDBRANCH   9  17
TORSDOF 1
ENDMDL
MODEL 2
REMARK VINA RESULT:      -6.5     10.070     12.131
REMARK  1 active torsions:
REMARK  status: ('A' for Active; 'I' for Inactive)
REMARK    1  A    between atoms: C_9  and  C_14 
ROOT
HETATM    1 Cl   UNK     0      29.058  37.353  51.949  0.00  0.00    -0.084 Cl
HETATM    2  N   UNK     0      23.368  36.444  53.359  0.00  0.00    -0.282 N 
HETATM    3  N   UNK     0      23.062  39.283  52.280  0.00  0.00    -0.281 NA
HETATM    4  N   UNK     0      21.306  36.842  54.025  0.00  0.00    -0.133 NA
HETATM    5  N   UNK     0      21.503  35.483  54.030  0.00  0.00    -0.135 NA
HETATM    6  C   UNK     0      24.698  36.657  52.934  0.00  0.00     0.055 A 
HETATM    7  C   UNK     0      25.080  37.829  52.250  0.00  0.00     0.022 A 
HETATM    8  C   UNK     0      22.432  37.411  53.651  0.00  0.00     0.155 A 
HETATM    9  C   UNK     0      24.106  38.819  51.681  0.00  0.00     0.074 C 
HETATM   10  C   UNK     0      22.744  38.856  53.629  0.00  0.00     0.230 C 
HETATM   11  C   UNK     0      22.743  35.260  53.657  0.00  0.00     0.131 A 
HETATM   12  C   UNK     0      25.662  35.684  53.241  0.00  0.00     0.033 A 
HETATM   13  C   UNK     0      26.442  38.038  51.969  0.00  0.00     0.040 A 
HETATM   14  C   UNK     0      27.005  35.899  52.929  0.00  0.00     0.026 A 
HETATM   15  C   UNK     0      27.397  37.081  52.311  0.00  0.00     0.035 A 
HETATM   16  C   UNK     0      23.279  33.903  53.429  0.00  0.00     0.094 C 
ENDROOT
BRANCH   9  17
HETATM   17  C   UNK     0      24.329  39.303  50.286  0.00  0.00    -0.007 A 
HETATM   18  C   UNK     0      24.692  40.624  50.070  0.00  0.00     0.014 A 
HETATM   19  C   UNK     0      24.901  41.076  48.766  0.00  0.00     0.001 A 
HETATM   20  C   UNK     0      24.744  40.200  47.692  0.00  0.00     0.000 A 
HETATM   21  C   UNK     0      24.380  38.874  47.921  0.00  0.00     0.001 A 
HETATM   22  C   UNK     0      24.171  38.422  49.224  0.00  0.00     0.014 A 
ENDBRANCH   9  17
TORSDOF 1
ENDMDL
MODEL 3
REMARK VINA RESULT:      -6.0     14.679     16.855
REMARK  1 active torsions:
REMARK  status: ('A' for Active; 'I' for Inactive)
REMARK    1  A    between atoms: C_9  and  C_14 
ROOT
HETATM    1 Cl   UNK     0      23.599  12.808  52.032  0.00  0.00    -0.084 Cl
HETATM    2  N   UNK     0      26.122  17.694  49.805  0.00  0.00    -0.282 N 
HETATM    3  N   UNK     0      25.464  16.339  47.150  0.00  0.00    -0.281 NA
HETATM    4  N   UNK     0      27.269  19.008  48.459  0.00  0.00    -0.133 NA
HETATM    5  N   UNK     0      27.076  19.673  49.645  0.00  0.00    -0.135 NA
HETATM    6  C   UNK     0      25.440  16.562  50.304  0.00  0.00     0.055 A 
HETATM    7  C   UNK     0      24.825  15.628  49.447  0.00  0.00     0.022 A 
HETATM    8  C   UNK     0      26.721  17.817  48.572  0.00  0.00     0.155 A 
HETATM    9  C   UNK     0      24.601  15.861  47.981  0.00  0.00     0.074 C 
HETATM   10  C   UNK     0      26.793  16.700  47.605  0.00  0.00     0.230 C 
HETATM   11  C   UNK     0      26.415  18.869  50.448  0.00  0.00     0.131 A 
HETATM   12  C   UNK     0      25.414  16.355  51.693  0.00  0.00     0.033 A 
HETATM   13  C   UNK     0      24.275  14.457  49.999  0.00  0.00     0.040 A 
HETATM   14  C   UNK     0      24.840  15.199  52.222  0.00  0.00     0.026 A 
HETATM   15  C   UNK     0      24.287  14.244  51.377  0.00  0.00     0.035 A 
HETATM   16  C   UNK     0      25.923  19.291  51.776  0.00  0.00     0.094 C 
ENDROOT
BRANCH   9  17
HETATM   17  C   UNK     0      23.255  15.547  47.417  0.00  0.00    -0.007 A 
HETATM   18  C   UNK     0      22.227  16.470  47.545  0.00  0.00     0.014 A 
HETATM   19  C   UNK     0      20.969  16.176  47.017  0.00  0.00     0.001 A 
HETATM   20  C   UNK     0      20.752  14.962  46.366  0.00  0.00     0.000 A 
HETATM   21  C   UNK     0      21.793  14.041  46.243  0.00  0.00     0.001 A 
HETATM   22  C   UNK     0      23.050  14.335  46.770  0.00  0.00     0.014 A 
ENDBRANCH   9  17
TORSDOF 1
ENDMDL
