MODEL 1
REMARK VINA RESULT:      -8.8      0.000      0.000
REMARK  1 active torsions:
REMARK  status: ('A' for Active; 'I' for Inactive)
REMARK    1  A    between atoms: C_9  and  C_14 
ROOT
HETATM    1 Cl   UNK     0     -27.543   1.108  21.191  0.00  0.00    -0.084 Cl
HETATM    2  N   UNK     0     -24.290  -3.360  19.036  0.00  0.00    -0.282 N 
HETATM    3  N   UNK     0     -25.509  -4.859  21.399  0.00  0.00    -0.281 NA
HETATM    4  N   UNK     0     -23.042  -5.175  18.969  0.00  0.00    -0.133 NA
HETATM    5  N   UNK     0     -22.956  -4.551  17.748  0.00  0.00    -0.135 NA
HETATM    6  C   UNK     0     -25.140  -2.342  19.521  0.00  0.00     0.055 A 
HETATM    7  C   UNK     0     -26.031  -2.565  20.590  0.00  0.00     0.022 A 
HETATM    8  C   UNK     0     -23.817  -4.444  19.742  0.00  0.00     0.155 A 
HETATM    9  C   UNK     0     -26.359  -3.925  21.134  0.00  0.00     0.074 C 
HETATM   10  C   UNK     0     -24.092  -4.640  21.181  0.00  0.00     0.230 C 
HETATM   11  C   UNK     0     -23.682  -3.458  17.810  0.00  0.00     0.131 A 
HETATM   12  C   UNK     0     -25.057  -1.067  18.938  0.00  0.00     0.033 A 
HETATM   13  C   UNK     0     -26.756  -1.477  21.109  0.00  0.00     0.040 A 
HETATM   14  C   UNK     0     -25.805  -0.007  19.452  0.00  0.00     0.026 A 
HETATM   15  C   UNK     0     -26.639  -0.208  20.545  0.00  0.00     0.035 A 
HETATM   16  C   UNK     0     -23.924  -2.590  16.639  0.00  0.00     0.094 C 
ENDROOT
BRANCH   9  17
HETATM   17  C   UNK     0     -27.794  -4.261  21.369  0.00  0.00    -0.007 A 
HETATM   18  C   UNK     0     -28.742  -3.919  20.415  0.00  0.00     0.014 A 
HETATM   19  C   UNK     0     -30.084  -4.234  20.634  0.00  0.00     0.001 A 
HETATM   20  C   UNK     0     -30.464  -4.888  21.806  0.00  0.00     0.000 A 
HETATM   21  C   UNK     0     -29.503  -5.227  22.758  0.00  0.00     0.001 A 
HETATM   22  C   UNK     0     -28.161  -4.912  22.539  0.00  0.00     0.014 A 
ENDBRANCH   9  17
TORSDOF 1
ENDMDL
MODEL 2
REMARK VINA RESULT:      -8.0     40.374     42.098
REMARK  1 active torsions:
REMARK  status: ('A' for Active; 'I' for Inactive)
REMARK    1  A    between atoms: C_9  and  C_14 
ROOT
HETATM    1 Cl   UNK     0     -19.701 -40.513  21.455  0.00  0.00    -0.084 Cl
HETATM    2  N   UNK     0     -21.767 -44.265  25.558  0.00  0.00    -0.282 N 
HETATM    3  N   UNK     0     -20.885 -46.355  23.516  0.00  0.00    -0.281 NA
HETATM    4  N   UNK     0     -22.708 -46.042  26.460  0.00  0.00    -0.133 NA
HETATM    5  N   UNK     0     -22.617 -45.069  27.425  0.00  0.00    -0.135 NA
HETATM    6  C   UNK     0     -21.190 -43.401  24.602  0.00  0.00     0.055 A 
HETATM    7  C   UNK     0     -20.525 -43.894  23.461  0.00  0.00     0.022 A 
HETATM    8  C   UNK     0     -22.225 -45.545  25.341  0.00  0.00     0.155 A 
HETATM    9  C   UNK     0     -20.136 -45.332  23.278  0.00  0.00     0.074 C 
HETATM   10  C   UNK     0     -22.239 -46.171  24.001  0.00  0.00     0.230 C 
HETATM   11  C   UNK     0     -22.080 -44.007  26.868  0.00  0.00     0.131 A 
HETATM   12  C   UNK     0     -21.322 -42.015  24.787  0.00  0.00     0.033 A 
HETATM   13  C   UNK     0     -20.086 -42.983  22.484  0.00  0.00     0.040 A 
HETATM   14  C   UNK     0     -20.855 -41.127  23.817  0.00  0.00     0.026 A 
HETATM   15  C   UNK     0     -20.254 -41.611  22.660  0.00  0.00     0.035 A 
HETATM   16  C   UNK     0     -21.716 -42.798  27.636  0.00  0.00     0.094 C 
ENDROOT
BRANCH   9  17
HETATM   17  C   UNK     0     -18.751 -45.631  22.806  0.00  0.00    -0.007 A 
HETATM   18  C   UNK     0     -17.678 -45.422  23.661  0.00  0.00     0.014 A 
HETATM   19  C   UNK     0     -16.383 -45.702  23.220  0.00  0.00     0.001 A 
HETATM   20  C   UNK     0     -16.176 -46.188  21.930  0.00  0.00     0.000 A 
HETATM   21  C   UNK     0     -17.262 -46.394  21.079  0.00  0.00     0.001 A 
HETATM   22  C   UNK     0     -18.556 -46.114  21.519  0.00  0.00     0.014 A 
ENDBRANCH   9  17
TORSDOF 1
ENDMDL
MODEL 3
REMARK VINA RESULT:      -7.9     39.580     41.082
REMARK  1 active torsions:
REMARK  status: ('A' for Active; 'I' for Inactive)
REMARK    1  A    between atoms: C_9  and  C_14 
ROOT
HETATM    1 Cl   UNK     0     -21.226 -39.129  23.283  0.00  0.00    -0.084 Cl
HETATM    2  N   UNK     0     -20.238 -44.871  22.170  0.00  0.00    -0.282 N 
HETATM    3  N   UNK     0     -19.596 -44.928  25.153  0.00  0.00    -0.281 NA
HETATM    4  N   UNK     0     -19.356 -46.887  22.291  0.00  0.00    -0.133 NA
HETATM    5  N   UNK     0     -20.096 -46.812  21.136  0.00  0.00    -0.135 NA
HETATM    6  C   UNK     0     -20.549 -43.529  22.482  0.00  0.00     0.055 A 
HETATM    7  C   UNK     0     -20.511 -43.047  23.806  0.00  0.00     0.022 A 
HETATM    8  C   UNK     0     -19.422 -45.716  22.889  0.00  0.00     0.155 A 
HETATM    9  C   UNK     0     -20.404 -43.931  25.014  0.00  0.00     0.074 C 
HETATM   10  C   UNK     0     -18.677 -45.277  24.088  0.00  0.00     0.230 C 
HETATM   11  C   UNK     0     -20.594 -45.598  21.063  0.00  0.00     0.131 A 
HETATM   12  C   UNK     0     -20.866 -42.655  21.431  0.00  0.00     0.033 A 
HETATM   13  C   UNK     0     -20.705 -41.673  24.035  0.00  0.00     0.040 A 
HETATM   14  C   UNK     0     -21.081 -41.299  21.683  0.00  0.00     0.026 A 
HETATM   15  C   UNK     0     -20.983 -40.806  22.979  0.00  0.00     0.035 A 
HETATM   16  C   UNK     0     -21.546 -45.186  20.011  0.00  0.00     0.094 C 
ENDROOT
BRANCH   9  17
HETATM   17  C   UNK     0     -21.326 -43.672  26.159  0.00  0.00    -0.007 A 
HETATM   18  C   UNK     0     -21.146 -42.540  26.940  0.00  0.00     0.014 A 
HETATM   19  C   UNK     0     -22.009 -42.298  28.010  0.00  0.00     0.001 A 
HETATM   20  C   UNK     0     -23.043 -43.191  28.287  0.00  0.00     0.000 A 
HETATM   21  C   UNK     0     -23.215 -44.326  27.495  0.00  0.00     0.001 A 
HETATM   22  C   UNK     0     -22.353 -44.569  26.426  0.00  0.00     0.014 A 
ENDBRANCH   9  17
TORSDOF 1
ENDMDL
