MODEL 1
REMARK VINA RESULT:      -8.8      0.000      0.000
REMARK  1 active torsions:
REMARK  status: ('A' for Active; 'I' for Inactive)
REMARK    1  A    between atoms: C_9  and  C_14 
ROOT
HETATM    1 Cl   UNK     0     161.726 -15.964 341.114  0.00  0.00    -0.084 Cl
HETATM    2  N   UNK     0     160.560 -21.775 340.884  0.00  0.00    -0.282 N 
HETATM    3  N   UNK     0     157.677 -20.785 340.733  0.00  0.00    -0.281 NA
HETATM    4  N   UNK     0     159.523 -23.697 341.178  0.00  0.00    -0.133 NA
HETATM    5  N   UNK     0     160.814 -23.962 340.789  0.00  0.00    -0.135 NA
HETATM    6  C   UNK     0     160.812 -20.386 340.850  0.00  0.00     0.055 A 
HETATM    7  C   UNK     0     159.774 -19.448 340.679  0.00  0.00     0.022 A 
HETATM    8  C   UNK     0     159.387 -22.391 341.260  0.00  0.00     0.155 A 
HETATM    9  C   UNK     0     158.380 -19.812 340.259  0.00  0.00     0.074 C 
HETATM   10  C   UNK     0     158.220 -21.640 341.770  0.00  0.00     0.230 C 
HETATM   11  C   UNK     0     161.428 -22.810 340.644  0.00  0.00     0.131 A 
HETATM   12  C   UNK     0     162.131 -19.941 341.032  0.00  0.00     0.033 A 
HETATM   13  C   UNK     0     160.073 -18.077 340.783  0.00  0.00     0.040 A 
HETATM   14  C   UNK     0     162.410 -18.575 341.106  0.00  0.00     0.026 A 
HETATM   15  C   UNK     0     161.381 -17.647 340.999  0.00  0.00     0.035 A 
HETATM   16  C   UNK     0     162.804 -22.696 340.116  0.00  0.00     0.094 C 
ENDROOT
BRANCH   9  17
HETATM   17  C   UNK     0     157.739 -19.008 339.176  0.00  0.00    -0.007 A 
HETATM   18  C   UNK     0     156.757 -18.083 339.501  0.00  0.00     0.014 A 
HETATM   19  C   UNK     0     156.158 -17.332 338.489  0.00  0.00     0.001 A 
HETATM   20  C   UNK     0     156.548 -17.513 337.162  0.00  0.00     0.000 A 
HETATM   21  C   UNK     0     157.536 -18.446 336.847  0.00  0.00     0.001 A 
HETATM   22  C   UNK     0     158.134 -19.198 337.859  0.00  0.00     0.014 A 
ENDBRANCH   9  17
TORSDOF 1
ENDMDL
MODEL 2
REMARK VINA RESULT:      -8.6     21.534     23.416
REMARK  1 active torsions:
REMARK  status: ('A' for Active; 'I' for Inactive)
REMARK    1  A    between atoms: C_9  and  C_14 
ROOT
HETATM    1 Cl   UNK     0     163.479  -4.101 322.070  0.00  0.00    -0.084 Cl
HETATM    2  N   UNK     0     169.169  -4.900 323.543  0.00  0.00    -0.282 N 
HETATM    3  N   UNK     0     167.973  -6.984 325.427  0.00  0.00    -0.281 NA
HETATM    4  N   UNK     0     170.958  -5.332 324.755  0.00  0.00    -0.133 NA
HETATM    5  N   UNK     0     171.366  -4.741 323.584  0.00  0.00    -0.135 NA
HETATM    6  C   UNK     0     167.816  -4.793 323.152  0.00  0.00     0.055 A 
HETATM    7  C   UNK     0     166.822  -5.644 323.674  0.00  0.00     0.022 A 
HETATM    8  C   UNK     0     169.644  -5.398 324.736  0.00  0.00     0.155 A 
HETATM    9  C   UNK     0     167.117  -6.885 324.467  0.00  0.00     0.074 C 
HETATM   10  C   UNK     0     168.751  -5.829 325.833  0.00  0.00     0.230 C 
HETATM   11  C   UNK     0     170.289  -4.464 322.883  0.00  0.00     0.131 A 
HETATM   12  C   UNK     0     167.461  -3.782 322.245  0.00  0.00     0.033 A 
HETATM   13  C   UNK     0     165.477  -5.403 323.343  0.00  0.00     0.040 A 
HETATM   14  C   UNK     0     166.122  -3.575 321.909  0.00  0.00     0.026 A 
HETATM   15  C   UNK     0     165.131  -4.373 322.469  0.00  0.00     0.035 A 
HETATM   16  C   UNK     0     170.345  -3.929 321.507  0.00  0.00     0.094 C 
ENDROOT
BRANCH   9  17
HETATM   17  C   UNK     0     166.388  -8.138 324.109  0.00  0.00    -0.007 A 
HETATM   18  C   UNK     0     165.301  -8.538 324.873  0.00  0.00     0.014 A 
HETATM   19  C   UNK     0     164.619  -9.709 324.539  0.00  0.00     0.001 A 
HETATM   20  C   UNK     0     165.032 -10.467 323.443  0.00  0.00     0.000 A 
HETATM   21  C   UNK     0     166.126 -10.055 322.682  0.00  0.00     0.001 A 
HETATM   22  C   UNK     0     166.808  -8.885 323.017  0.00  0.00     0.014 A 
ENDBRANCH   9  17
TORSDOF 1
ENDMDL
MODEL 3
REMARK VINA RESULT:      -8.4     12.090     14.663
REMARK  1 active torsions:
REMARK  status: ('A' for Active; 'I' for Inactive)
REMARK    1  A    between atoms: C_9  and  C_14 
ROOT
HETATM    1 Cl   UNK     0     166.514  -6.163 338.937  0.00  0.00    -0.084 Cl
HETATM    2  N   UNK     0     165.782 -10.166 343.253  0.00  0.00    -0.282 N 
HETATM    3  N   UNK     0     167.797  -8.385 344.699  0.00  0.00    -0.281 NA
HETATM    4  N   UNK     0     166.234 -11.480 344.963  0.00  0.00    -0.133 NA
HETATM    5  N   UNK     0     165.046 -11.890 344.409  0.00  0.00    -0.135 NA
HETATM    6  C   UNK     0     165.912  -9.151 342.278  0.00  0.00     0.055 A 
HETATM    7  C   UNK     0     166.686  -7.997 342.507  0.00  0.00     0.022 A 
HETATM    8  C   UNK     0     166.682 -10.468 344.251  0.00  0.00     0.155 A 
HETATM    9  C   UNK     0     167.218  -7.601 343.853  0.00  0.00     0.074 C 
HETATM   10  C   UNK     0     167.988  -9.787 344.381  0.00  0.00     0.230 C 
HETATM   11  C   UNK     0     164.802 -11.117 343.376  0.00  0.00     0.131 A 
HETATM   12  C   UNK     0     165.276  -9.331 341.039  0.00  0.00     0.033 A 
HETATM   13  C   UNK     0     166.878  -7.087 341.451  0.00  0.00     0.040 A 
HETATM   14  C   UNK     0     165.460  -8.403 340.013  0.00  0.00     0.026 A 
HETATM   15  C   UNK     0     166.272  -7.293 340.213  0.00  0.00     0.035 A 
HETATM   16  C   UNK     0     163.545 -11.186 342.603  0.00  0.00     0.094 C 
ENDROOT
BRANCH   9  17
HETATM   17  C   UNK     0     167.047  -6.182 344.288  0.00  0.00    -0.007 A 
HETATM   18  C   UNK     0     168.149  -5.341 344.325  0.00  0.00     0.014 A 
HETATM   19  C   UNK     0     167.989  -4.015 344.731  0.00  0.00     0.001 A 
HETATM   20  C   UNK     0     166.728  -3.545 345.096  0.00  0.00     0.000 A 
HETATM   21  C   UNK     0     165.626  -4.400 345.055  0.00  0.00     0.001 A 
HETATM   22  C   UNK     0     165.786  -5.726 344.649  0.00  0.00     0.014 A 
ENDBRANCH   9  17
TORSDOF 1
ENDMDL
