MODEL 1
REMARK VINA RESULT:      -7.7      0.000      0.000
REMARK  1 active torsions:
REMARK  status: ('A' for Active; 'I' for Inactive)
REMARK    1  A    between atoms: C_9  and  C_14 
ROOT
HETATM    1 Cl   UNK     0     -21.872  13.628  -9.217  0.00  0.00    -0.084 Cl
HETATM    2  N   UNK     0     -16.866  16.799  -9.483  0.00  0.00    -0.282 N 
HETATM    3  N   UNK     0     -16.027  14.570 -11.391  0.00  0.00    -0.281 NA
HETATM    4  N   UNK     0     -14.724  17.285  -9.654  0.00  0.00    -0.133 NA
HETATM    5  N   UNK     0     -15.379  18.397  -9.185  0.00  0.00    -0.135 NA
HETATM    6  C   UNK     0     -18.076  16.070  -9.507  0.00  0.00     0.055 A 
HETATM    7  C   UNK     0     -18.253  14.953 -10.348  0.00  0.00     0.022 A 
HETATM    8  C   UNK     0     -15.613  16.326  -9.802  0.00  0.00     0.155 A 
HETATM    9  C   UNK     0     -17.315  14.590 -11.462  0.00  0.00     0.074 C 
HETATM   10  C   UNK     0     -15.359  14.912 -10.151  0.00  0.00     0.230 C 
HETATM   11  C   UNK     0     -16.650  18.086  -9.062  0.00  0.00     0.131 A 
HETATM   12  C   UNK     0     -19.107  16.457  -8.636  0.00  0.00     0.033 A 
HETATM   13  C   UNK     0     -19.431  14.194 -10.231  0.00  0.00     0.040 A 
HETATM   14  C   UNK     0     -20.279  15.704  -8.554  0.00  0.00     0.026 A 
HETATM   15  C   UNK     0     -20.434  14.566  -9.337  0.00  0.00     0.035 A 
HETATM   16  C   UNK     0     -17.684  19.075  -8.695  0.00  0.00     0.094 C 
ENDROOT
BRANCH   9  17
HETATM   17  C   UNK     0     -17.903  14.247 -12.792  0.00  0.00    -0.007 A 
HETATM   18  C   UNK     0     -17.165  13.490 -13.690  0.00  0.00     0.014 A 
HETATM   19  C   UNK     0     -17.714  13.169 -14.933  0.00  0.00     0.001 A 
HETATM   20  C   UNK     0     -18.996  13.609 -15.263  0.00  0.00     0.000 A 
HETATM   21  C   UNK     0     -19.729  14.369 -14.351  0.00  0.00     0.001 A 
HETATM   22  C   UNK     0     -19.180  14.690 -13.110  0.00  0.00     0.014 A 
ENDBRANCH   9  17
TORSDOF 1
ENDMDL
MODEL 2
REMARK VINA RESULT:      -7.2     18.044     19.658
REMARK  1 active torsions:
REMARK  status: ('A' for Active; 'I' for Inactive)
REMARK    1  A    between atoms: C_9  and  C_14 
ROOT
HETATM    1 Cl   UNK     0     -11.326  -5.259 -10.548  0.00  0.00    -0.084 Cl
HETATM    2  N   UNK     0      -7.222  -1.507  -8.483  0.00  0.00    -0.282 N 
HETATM    3  N   UNK     0      -6.701  -1.068 -11.459  0.00  0.00    -0.281 NA
HETATM    4  N   UNK     0      -5.348  -0.356  -8.336  0.00  0.00    -0.133 NA
HETATM    5  N   UNK     0      -5.984  -0.298  -7.120  0.00  0.00    -0.135 NA
HETATM    6  C   UNK     0      -8.247  -2.327  -9.004  0.00  0.00     0.055 A 
HETATM    7  C   UNK     0      -8.508  -2.401 -10.387  0.00  0.00     0.022 A 
HETATM    8  C   UNK     0      -6.079  -1.103  -9.136  0.00  0.00     0.155 A 
HETATM    9  C   UNK     0      -7.931  -1.453 -11.398  0.00  0.00     0.074 C 
HETATM   10  C   UNK     0      -5.734  -1.563 -10.499  0.00  0.00     0.230 C 
HETATM   11  C   UNK     0      -7.084  -1.009  -7.213  0.00  0.00     0.131 A 
HETATM   12  C   UNK     0      -8.993  -3.112  -8.111  0.00  0.00     0.033 A 
HETATM   13  C   UNK     0      -9.455  -3.331 -10.852  0.00  0.00     0.040 A 
HETATM   14  C   UNK     0      -9.947  -4.011  -8.591  0.00  0.00     0.026 A 
HETATM   15  C   UNK     0     -10.165  -4.133  -9.959  0.00  0.00     0.035 A 
HETATM   16  C   UNK     0      -8.088  -1.078  -6.130  0.00  0.00     0.094 C 
ENDROOT
BRANCH   9  17
HETATM   17  C   UNK     0      -8.851  -0.865 -12.416  0.00  0.00    -0.007 A 
HETATM   18  C   UNK     0      -8.756  -1.271 -13.739  0.00  0.00     0.014 A 
HETATM   19  C   UNK     0      -9.617  -0.721 -14.691  0.00  0.00     0.001 A 
HETATM   20  C   UNK     0     -10.564   0.228 -14.309  0.00  0.00     0.000 A 
HETATM   21  C   UNK     0     -10.651   0.629 -12.975  0.00  0.00     0.001 A 
HETATM   22  C   UNK     0      -9.791   0.080 -12.024  0.00  0.00     0.014 A 
ENDBRANCH   9  17
TORSDOF 1
ENDMDL
MODEL 3
REMARK VINA RESULT:      -7.2     13.451     15.131
REMARK  1 active torsions:
REMARK  status: ('A' for Active; 'I' for Inactive)
REMARK    1  A    between atoms: C_9  and  C_14 
ROOT
HETATM    1 Cl   UNK     0      -8.393   5.720   1.770  0.00  0.00    -0.084 Cl
HETATM    2  N   UNK     0     -12.488   7.499  -2.135  0.00  0.00    -0.282 N 
HETATM    3  N   UNK     0     -10.375   6.610  -4.151  0.00  0.00    -0.281 NA
HETATM    4  N   UNK     0     -13.385   8.341  -3.963  0.00  0.00    -0.133 NA
HETATM    5  N   UNK     0     -14.367   8.253  -3.006  0.00  0.00    -0.135 NA
HETATM    6  C   UNK     0     -11.530   6.988  -1.232  0.00  0.00     0.055 A 
HETATM    7  C   UNK     0     -10.358   6.346  -1.677  0.00  0.00     0.022 A 
HETATM    8  C   UNK     0     -12.261   7.916  -3.428  0.00  0.00     0.155 A 
HETATM    9  C   UNK     0     -10.132   5.910  -3.095  0.00  0.00     0.074 C 
HETATM   10  C   UNK     0     -10.910   7.953  -4.028  0.00  0.00     0.230 C 
HETATM   11  C   UNK     0     -13.813   7.775  -1.914  0.00  0.00     0.131 A 
HETATM   12  C   UNK     0     -11.747   7.166   0.144  0.00  0.00     0.033 A 
HETATM   13  C   UNK     0      -9.384   5.976  -0.732  0.00  0.00     0.040 A 
HETATM   14  C   UNK     0     -10.780   6.768   1.067  0.00  0.00     0.026 A 
HETATM   15  C   UNK     0      -9.594   6.190   0.629  0.00  0.00     0.035 A 
HETATM   16  C   UNK     0     -14.592   7.431  -0.706  0.00  0.00     0.094 C 
ENDROOT
BRANCH   9  17
HETATM   17  C   UNK     0      -9.608   4.531  -3.332  0.00  0.00    -0.007 A 
HETATM   18  C   UNK     0      -8.343   4.365  -3.876  0.00  0.00     0.014 A 
HETATM   19  C   UNK     0      -7.853   3.077  -4.097  0.00  0.00     0.001 A 
HETATM   20  C   UNK     0      -8.634   1.969  -3.771  0.00  0.00     0.000 A 
HETATM   21  C   UNK     0      -9.905   2.148  -3.224  0.00  0.00     0.001 A 
HETATM   22  C   UNK     0     -10.395   3.435  -3.004  0.00  0.00     0.014 A 
ENDBRANCH   9  17
TORSDOF 1
ENDMDL
