MODEL 1
REMARK VINA RESULT:      -6.2      0.000      0.000
REMARK  1 active torsions:
REMARK  status: ('A' for Active; 'I' for Inactive)
REMARK    1  A    between atoms: C_9  and  C_14 
ROOT
HETATM    1 Cl   UNK     0      46.397   3.535  31.312  0.00  0.00    -0.084 Cl
HETATM    2  N   UNK     0      42.031   2.310  35.136  0.00  0.00    -0.282 N 
HETATM    3  N   UNK     0      40.320   3.657  32.997  0.00  0.00    -0.281 NA
HETATM    4  N   UNK     0      40.152   2.501  36.272  0.00  0.00    -0.133 NA
HETATM    5  N   UNK     0      40.929   1.548  36.886  0.00  0.00    -0.135 NA
HETATM    6  C   UNK     0      43.035   2.537  34.169  0.00  0.00     0.055 A 
HETATM    7  C   UNK     0      42.736   3.072  32.901  0.00  0.00     0.022 A 
HETATM    8  C   UNK     0      40.828   2.971  35.245  0.00  0.00     0.155 A 
HETATM    9  C   UNK     0      41.344   3.203  32.356  0.00  0.00     0.074 C 
HETATM   10  C   UNK     0      40.458   4.104  34.370  0.00  0.00     0.230 C 
HETATM   11  C   UNK     0      42.056   1.464  36.215  0.00  0.00     0.131 A 
HETATM   12  C   UNK     0      44.367   2.253  34.509  0.00  0.00     0.033 A 
HETATM   13  C   UNK     0      43.795   3.395  32.032  0.00  0.00     0.040 A 
HETATM   14  C   UNK     0      45.401   2.556  33.622  0.00  0.00     0.026 A 
HETATM   15  C   UNK     0      45.117   3.141  32.394  0.00  0.00     0.035 A 
HETATM   16  C   UNK     0      43.092   0.453  36.515  0.00  0.00     0.094 C 
ENDROOT
BRANCH   9  17
HETATM   17  C   UNK     0      41.089   2.745  30.958  0.00  0.00    -0.007 A 
HETATM   18  C   UNK     0      40.759   3.676  29.983  0.00  0.00     0.014 A 
HETATM   19  C   UNK     0      40.521   3.247  28.676  0.00  0.00     0.001 A 
HETATM   20  C   UNK     0      40.617   1.893  28.358  0.00  0.00     0.000 A 
HETATM   21  C   UNK     0      40.950   0.966  29.346  0.00  0.00     0.001 A 
HETATM   22  C   UNK     0      41.187   1.394  30.653  0.00  0.00     0.014 A 
ENDBRANCH   9  17
TORSDOF 1
ENDMDL
MODEL 2
REMARK VINA RESULT:      -6.0     16.068     18.213
REMARK  1 active torsions:
REMARK  status: ('A' for Active; 'I' for Inactive)
REMARK    1  A    between atoms: C_9  and  C_14 
ROOT
HETATM    1 Cl   UNK     0      21.550   3.323  29.982  0.00  0.00    -0.084 Cl
HETATM    2  N   UNK     0      25.514   7.733  30.135  0.00  0.00    -0.282 N 
HETATM    3  N   UNK     0      25.835   6.808  33.026  0.00  0.00    -0.281 NA
HETATM    4  N   UNK     0      26.728   9.407  30.896  0.00  0.00    -0.133 NA
HETATM    5  N   UNK     0      26.821   9.399  29.525  0.00  0.00    -0.135 NA
HETATM    6  C   UNK     0      24.641   6.623  30.104  0.00  0.00     0.055 A 
HETATM    7  C   UNK     0      24.498   5.761  31.209  0.00  0.00     0.022 A 
HETATM    8  C   UNK     0      25.924   8.428  31.251  0.00  0.00     0.155 A 
HETATM    9  C   UNK     0      25.417   5.764  32.396  0.00  0.00     0.074 C 
HETATM   10  C   UNK     0      25.414   8.131  32.607  0.00  0.00     0.230 C 
HETATM   11  C   UNK     0      26.072   8.414  29.083  0.00  0.00     0.131 A 
HETATM   12  C   UNK     0      23.874   6.409  28.949  0.00  0.00     0.033 A 
HETATM   13  C   UNK     0      23.518   4.752  31.162  0.00  0.00     0.040 A 
HETATM   14  C   UNK     0      22.925   5.385  28.913  0.00  0.00     0.026 A 
HETATM   15  C   UNK     0      22.736   4.570  30.022  0.00  0.00     0.035 A 
HETATM   16  C   UNK     0      26.022   8.024  27.659  0.00  0.00     0.094 C 
ENDROOT
BRANCH   9  17
HETATM   17  C   UNK     0      25.930   4.452  32.891  0.00  0.00    -0.007 A 
HETATM   18  C   UNK     0      25.537   3.991  34.139  0.00  0.00     0.014 A 
HETATM   19  C   UNK     0      26.016   2.764  34.602  0.00  0.00     0.001 A 
HETATM   20  C   UNK     0      26.884   2.012  33.811  0.00  0.00     0.000 A 
HETATM   21  C   UNK     0      27.272   2.485  32.557  0.00  0.00     0.001 A 
HETATM   22  C   UNK     0      26.793   3.711  32.095  0.00  0.00     0.014 A 
ENDBRANCH   9  17
TORSDOF 1
ENDMDL
MODEL 3
REMARK VINA RESULT:      -5.7     12.492     14.187
REMARK  1 active torsions:
REMARK  status: ('A' for Active; 'I' for Inactive)
REMARK    1  A    between atoms: C_9  and  C_14 
ROOT
HETATM    1 Cl   UNK     0      52.373  16.217  29.095  0.00  0.00    -0.084 Cl
HETATM    2  N   UNK     0      49.080  11.443  27.849  0.00  0.00    -0.282 N 
HETATM    3  N   UNK     0      46.918  13.056  29.279  0.00  0.00    -0.281 NA
HETATM    4  N   UNK     0      47.551   9.868  28.044  0.00  0.00    -0.133 NA
HETATM    5  N   UNK     0      48.435   9.489  27.063  0.00  0.00    -0.135 NA
HETATM    6  C   UNK     0      49.814  12.627  28.083  0.00  0.00     0.055 A 
HETATM    7  C   UNK     0      49.219  13.769  28.655  0.00  0.00     0.022 A 
HETATM    8  C   UNK     0      47.958  11.022  28.528  0.00  0.00     0.155 A 
HETATM    9  C   UNK     0      47.738  13.943  28.824  0.00  0.00     0.074 C 
HETATM   10  C   UNK     0      47.407  11.754  29.689  0.00  0.00     0.230 C 
HETATM   11  C   UNK     0      49.355  10.422  26.976  0.00  0.00     0.131 A 
HETATM   12  C   UNK     0      51.182  12.638  27.768  0.00  0.00     0.033 A 
HETATM   13  C   UNK     0      50.032  14.869  28.981  0.00  0.00     0.040 A 
HETATM   14  C   UNK     0      51.967  13.750  28.075  0.00  0.00     0.026 A 
HETATM   15  C   UNK     0      51.397  14.856  28.696  0.00  0.00     0.035 A 
HETATM   16  C   UNK     0      50.409  10.413  25.941  0.00  0.00     0.094 C 
ENDROOT
BRANCH   9  17
HETATM   17  C   UNK     0      47.130  15.241  28.406  0.00  0.00    -0.007 A 
HETATM   18  C   UNK     0      46.633  16.106  29.370  0.00  0.00     0.014 A 
HETATM   19  C   UNK     0      46.065  17.319  28.979  0.00  0.00     0.001 A 
HETATM   20  C   UNK     0      46.001  17.655  27.627  0.00  0.00     0.000 A 
HETATM   21  C   UNK     0      46.504  16.778  26.666  0.00  0.00     0.001 A 
HETATM   22  C   UNK     0      47.071  15.565  27.057  0.00  0.00     0.014 A 
ENDBRANCH   9  17
TORSDOF 1
ENDMDL
