MODEL 1
REMARK VINA RESULT:      -7.4      0.000      0.000
REMARK  1 active torsions:
REMARK  status: ('A' for Active; 'I' for Inactive)
REMARK    1  A    between atoms: C_9  and  C_14 
ROOT
HETATM    1 Cl   UNK     0     -23.917  15.550  11.670  0.00  0.00    -0.084 Cl
HETATM    2  N   UNK     0     -19.889  15.708  16.023  0.00  0.00    -0.282 N 
HETATM    3  N   UNK     0     -22.009  14.083  17.500  0.00  0.00    -0.281 NA
HETATM    4  N   UNK     0     -19.024  15.779  18.048  0.00  0.00    -0.133 NA
HETATM    5  N   UNK     0     -18.032  16.081  17.147  0.00  0.00    -0.135 NA
HETATM    6  C   UNK     0     -20.830  15.580  14.977  0.00  0.00     0.055 A 
HETATM    7  C   UNK     0     -21.997  14.803  15.119  0.00  0.00     0.022 A 
HETATM    8  C   UNK     0     -20.136  15.586  17.372  0.00  0.00     0.155 A 
HETATM    9  C   UNK     0     -22.231  13.846  16.251  0.00  0.00     0.074 C 
HETATM   10  C   UNK     0     -21.494  15.372  17.918  0.00  0.00     0.230 C 
HETATM   11  C   UNK     0     -18.567  16.062  15.947  0.00  0.00     0.131 A 
HETATM   12  C   UNK     0     -20.602  16.282  13.783  0.00  0.00     0.033 A 
HETATM   13  C   UNK     0     -22.955  14.820  14.089  0.00  0.00     0.040 A 
HETATM   14  C   UNK     0     -21.553  16.265  12.762  0.00  0.00     0.026 A 
HETATM   15  C   UNK     0     -22.735  15.550  12.922  0.00  0.00     0.035 A 
HETATM   16  C   UNK     0     -17.770  16.223  14.713  0.00  0.00     0.094 C 
ENDROOT
BRANCH   9  17
HETATM   17  C   UNK     0     -22.736  12.480  15.924  0.00  0.00    -0.007 A 
HETATM   18  C   UNK     0     -24.090  12.204  16.045  0.00  0.00     0.014 A 
HETATM   19  C   UNK     0     -24.563  10.927  15.739  0.00  0.00     0.001 A 
HETATM   20  C   UNK     0     -23.675   9.939  15.315  0.00  0.00     0.000 A 
HETATM   21  C   UNK     0     -22.316  10.227  15.197  0.00  0.00     0.001 A 
HETATM   22  C   UNK     0     -21.843  11.503  15.503  0.00  0.00     0.014 A 
ENDBRANCH   9  17
TORSDOF 1
ENDMDL
MODEL 2
REMARK VINA RESULT:      -7.3      3.080      6.023
REMARK  1 active torsions:
REMARK  status: ('A' for Active; 'I' for Inactive)
REMARK    1  A    between atoms: C_9  and  C_14 
ROOT
HETATM    1 Cl   UNK     0     -21.475  17.108  17.952  0.00  0.00    -0.084 Cl
HETATM    2  N   UNK     0     -22.925  12.283  14.820  0.00  0.00    -0.282 N 
HETATM    3  N   UNK     0     -23.634  14.362  12.701  0.00  0.00    -0.281 NA
HETATM    4  N   UNK     0     -23.978  10.973  13.396  0.00  0.00    -0.133 NA
HETATM    5  N   UNK     0     -23.209  10.184  14.216  0.00  0.00    -0.135 NA
HETATM    6  C   UNK     0     -22.508  13.444  15.509  0.00  0.00     0.055 A 
HETATM    7  C   UNK     0     -22.534  14.716  14.904  0.00  0.00     0.022 A 
HETATM    8  C   UNK     0     -23.825  12.222  13.780  0.00  0.00     0.155 A 
HETATM    9  C   UNK     0     -22.742  14.937  13.434  0.00  0.00     0.074 C 
HETATM   10  C   UNK     0     -24.556  13.409  13.287  0.00  0.00     0.230 C 
HETATM   11  C   UNK     0     -22.608  10.974  15.077  0.00  0.00     0.131 A 
HETATM   12  C   UNK     0     -22.094  13.316  16.844  0.00  0.00     0.033 A 
HETATM   13  C   UNK     0     -22.228  15.846  15.683  0.00  0.00     0.040 A 
HETATM   14  C   UNK     0     -21.770  14.448  17.593  0.00  0.00     0.026 A 
HETATM   15  C   UNK     0     -21.854  15.711  17.019  0.00  0.00     0.035 A 
HETATM   16  C   UNK     0     -21.602  10.487  16.043  0.00  0.00     0.094 C 
ENDROOT
BRANCH   9  17
HETATM   17  C   UNK     0     -21.825  15.882  12.728  0.00  0.00    -0.007 A 
HETATM   18  C   UNK     0     -22.358  16.884  11.931  0.00  0.00     0.014 A 
HETATM   19  C   UNK     0     -21.501  17.767  11.272  0.00  0.00     0.001 A 
HETATM   20  C   UNK     0     -20.121  17.638  11.417  0.00  0.00     0.000 A 
HETATM   21  C   UNK     0     -19.596  16.626  12.221  0.00  0.00     0.001 A 
HETATM   22  C   UNK     0     -20.452  15.743  12.880  0.00  0.00     0.014 A 
ENDBRANCH   9  17
TORSDOF 1
ENDMDL
MODEL 3
REMARK VINA RESULT:      -7.3     33.579     36.114
REMARK  1 active torsions:
REMARK  status: ('A' for Active; 'I' for Inactive)
REMARK    1  A    between atoms: C_9  and  C_14 
ROOT
HETATM    1 Cl   UNK     0     -34.290 -22.681  17.939  0.00  0.00    -0.084 Cl
HETATM    2  N   UNK     0     -35.228 -17.244  20.120  0.00  0.00    -0.282 N 
HETATM    3  N   UNK     0     -35.877 -16.621  17.203  0.00  0.00    -0.281 NA
HETATM    4  N   UNK     0     -35.309 -15.046  20.250  0.00  0.00    -0.133 NA
HETATM    5  N   UNK     0     -35.449 -15.556  21.518  0.00  0.00    -0.135 NA
HETATM    6  C   UNK     0     -35.096 -18.546  19.587  0.00  0.00     0.055 A 
HETATM    7  C   UNK     0     -35.396 -18.831  18.240  0.00  0.00     0.022 A 
HETATM    8  C   UNK     0     -35.149 -16.058  19.424  0.00  0.00     0.155 A 
HETATM    9  C   UNK     0     -36.116 -17.883  17.326  0.00  0.00     0.074 C 
HETATM   10  C   UNK     0     -34.825 -15.999  17.983  0.00  0.00     0.230 C 
HETATM   11  C   UNK     0     -35.372 -16.865  21.429  0.00  0.00     0.131 A 
HETATM   12  C   UNK     0     -34.616 -19.565  20.424  0.00  0.00     0.033 A 
HETATM   13  C   UNK     0     -35.121 -20.116  17.739  0.00  0.00     0.040 A 
HETATM   14  C   UNK     0     -34.375 -20.842  19.914  0.00  0.00     0.026 A 
HETATM   15  C   UNK     0     -34.610 -21.111  18.571  0.00  0.00     0.035 A 
HETATM   16  C   UNK     0     -35.600 -17.760  22.582  0.00  0.00     0.094 C 
ENDROOT
BRANCH   9  17
HETATM   17  C   UNK     0     -37.237 -18.420  16.497  0.00  0.00    -0.007 A 
HETATM   18  C   UNK     0     -38.510 -18.504  17.041  0.00  0.00     0.014 A 
HETATM   19  C   UNK     0     -39.557 -19.006  16.266  0.00  0.00     0.001 A 
HETATM   20  C   UNK     0     -39.319 -19.417  14.955  0.00  0.00     0.000 A 
HETATM   21  C   UNK     0     -38.035 -19.327  14.419  0.00  0.00     0.001 A 
HETATM   22  C   UNK     0     -36.988 -18.826  15.193  0.00  0.00     0.014 A 
ENDBRANCH   9  17
TORSDOF 1
ENDMDL
