MODEL 1
REMARK VINA RESULT:      -6.3      0.000      0.000
REMARK  1 active torsions:
REMARK  status: ('A' for Active; 'I' for Inactive)
REMARK    1  A    between atoms: C_9  and  C_14 
ROOT
HETATM    1 Cl   UNK     0     -23.537  35.495  44.378  0.00  0.00    -0.084 Cl
HETATM    2  N   UNK     0     -19.490  38.286  47.698  0.00  0.00    -0.282 N 
HETATM    3  N   UNK     0     -17.558  36.573  46.071  0.00  0.00    -0.281 NA
HETATM    4  N   UNK     0     -17.651  38.655  48.854  0.00  0.00    -0.133 NA
HETATM    5  N   UNK     0     -18.551  39.651  49.150  0.00  0.00    -0.135 NA
HETATM    6  C   UNK     0     -20.423  37.670  46.835  0.00  0.00     0.055 A 
HETATM    7  C   UNK     0     -20.016  36.823  45.786  0.00  0.00     0.022 A 
HETATM    8  C   UNK     0     -18.229  37.829  48.009  0.00  0.00     0.155 A 
HETATM    9  C   UNK     0     -18.596  36.697  45.316  0.00  0.00     0.074 C 
HETATM   10  C   UNK     0     -17.704  36.539  47.513  0.00  0.00     0.230 C 
HETATM   11  C   UNK     0     -19.651  39.404  48.476  0.00  0.00     0.131 A 
HETATM   12  C   UNK     0     -21.791  37.888  47.064  0.00  0.00     0.033 A 
HETATM   13  C   UNK     0     -20.997  36.139  45.044  0.00  0.00     0.040 A 
HETATM   14  C   UNK     0     -22.749  37.220  46.300  0.00  0.00     0.026 A 
HETATM   15  C   UNK     0     -22.353  36.335  45.304  0.00  0.00     0.035 A 
HETATM   16  C   UNK     0     -20.800  40.332  48.453  0.00  0.00     0.094 C 
ENDROOT
BRANCH   9  17
HETATM   17  C   UNK     0     -18.334  36.749  43.847  0.00  0.00    -0.007 A 
HETATM   18  C   UNK     0     -17.781  35.646  43.212  0.00  0.00     0.014 A 
HETATM   19  C   UNK     0     -17.537  35.694  41.839  0.00  0.00     0.001 A 
HETATM   20  C   UNK     0     -17.848  36.844  41.115  0.00  0.00     0.000 A 
HETATM   21  C   UNK     0     -18.404  37.947  41.764  0.00  0.00     0.001 A 
HETATM   22  C   UNK     0     -18.648  37.900  43.136  0.00  0.00     0.014 A 
ENDBRANCH   9  17
TORSDOF 1
ENDMDL
MODEL 2
REMARK VINA RESULT:      -6.2     14.939     17.493
REMARK  1 active torsions:
REMARK  status: ('A' for Active; 'I' for Inactive)
REMARK    1  A    between atoms: C_9  and  C_14 
ROOT
HETATM    1 Cl   UNK     0      -4.945  28.662  51.024  0.00  0.00    -0.084 Cl
HETATM    2  N   UNK     0     -10.128  29.314  53.834  0.00  0.00    -0.282 N 
HETATM    3  N   UNK     0      -8.818  27.429  55.846  0.00  0.00    -0.281 NA
HETATM    4  N   UNK     0     -11.896  28.844  55.062  0.00  0.00    -0.133 NA
HETATM    5  N   UNK     0     -12.156  29.996  54.360  0.00  0.00    -0.135 NA
HETATM    6  C   UNK     0      -8.854  29.208  53.232  0.00  0.00     0.055 A 
HETATM    7  C   UNK     0      -7.802  28.498  53.843  0.00  0.00     0.022 A 
HETATM    8  C   UNK     0     -10.695  28.427  54.722  0.00  0.00     0.155 A 
HETATM    9  C   UNK     0      -7.831  28.022  55.266  0.00  0.00     0.074 C 
HETATM   10  C   UNK     0     -10.040  27.160  55.113  0.00  0.00     0.230 C 
HETATM   11  C   UNK     0     -11.106  30.249  53.612  0.00  0.00     0.131 A 
HETATM   12  C   UNK     0      -8.658  29.800  51.974  0.00  0.00     0.033 A 
HETATM   13  C   UNK     0      -6.600  28.321  53.134  0.00  0.00     0.040 A 
HETATM   14  C   UNK     0      -7.448  29.635  51.299  0.00  0.00     0.026 A 
HETATM   15  C   UNK     0      -6.428  28.883  51.870  0.00  0.00     0.035 A 
HETATM   16  C   UNK     0     -10.976  31.480  52.805  0.00  0.00     0.094 C 
ENDROOT
BRANCH   9  17
HETATM   17  C   UNK     0      -6.629  28.274  56.116  0.00  0.00    -0.007 A 
HETATM   18  C   UNK     0      -6.280  29.577  56.437  0.00  0.00     0.014 A 
HETATM   19  C   UNK     0      -5.157  29.813  57.232  0.00  0.00     0.001 A 
HETATM   20  C   UNK     0      -4.396  28.741  57.698  0.00  0.00     0.000 A 
HETATM   21  C   UNK     0      -4.756  27.434  57.369  0.00  0.00     0.001 A 
HETATM   22  C   UNK     0      -5.878  27.199  56.574  0.00  0.00     0.014 A 
ENDBRANCH   9  17
TORSDOF 1
ENDMDL
MODEL 3
REMARK VINA RESULT:      -6.1      8.452     10.544
REMARK  1 active torsions:
REMARK  status: ('A' for Active; 'I' for Inactive)
REMARK    1  A    between atoms: C_9  and  C_14 
ROOT
HETATM    1 Cl   UNK     0     -24.990  41.454  48.907  0.00  0.00    -0.084 Cl
HETATM    2  N   UNK     0     -25.635  47.325  48.356  0.00  0.00    -0.282 N 
HETATM    3  N   UNK     0     -22.774  47.336  49.421  0.00  0.00    -0.281 NA
HETATM    4  N   UNK     0     -25.428  49.482  48.755  0.00  0.00    -0.133 NA
HETATM    5  N   UNK     0     -26.475  49.306  47.883  0.00  0.00    -0.135 NA
HETATM    6  C   UNK     0     -25.422  45.930  48.416  0.00  0.00     0.055 A 
HETATM    7  C   UNK     0     -24.172  45.384  48.769  0.00  0.00     0.022 A 
HETATM    8  C   UNK     0     -24.950  48.293  49.055  0.00  0.00     0.155 A 
HETATM    9  C   UNK     0     -22.905  46.185  48.854  0.00  0.00     0.074 C 
HETATM   10  C   UNK     0     -23.912  47.969  50.058  0.00  0.00     0.230 C 
HETATM   11  C   UNK     0     -26.604  48.015  47.674  0.00  0.00     0.131 A 
HETATM   12  C   UNK     0     -26.505  45.076  48.151  0.00  0.00     0.033 A 
HETATM   13  C   UNK     0     -24.060  43.992  48.936  0.00  0.00     0.040 A 
HETATM   14  C   UNK     0     -26.366  43.695  48.297  0.00  0.00     0.026 A 
HETATM   15  C   UNK     0     -25.151  43.156  48.705  0.00  0.00     0.035 A 
HETATM   16  C   UNK     0     -27.555  47.454  46.693  0.00  0.00     0.094 C 
ENDROOT
BRANCH   9  17
HETATM   17  C   UNK     0     -21.679  45.632  48.205  0.00  0.00    -0.007 A 
HETATM   18  C   UNK     0     -20.626  45.192  48.994  0.00  0.00     0.014 A 
HETATM   19  C   UNK     0     -19.480  44.676  48.387  0.00  0.00     0.001 A 
HETATM   20  C   UNK     0     -19.400  44.605  46.997  0.00  0.00     0.000 A 
HETATM   21  C   UNK     0     -20.464  45.050  46.213  0.00  0.00     0.001 A 
HETATM   22  C   UNK     0     -21.610  45.566  46.819  0.00  0.00     0.014 A 
ENDBRANCH   9  17
TORSDOF 1
ENDMDL
