MODEL 1
REMARK VINA RESULT:      -5.8      0.000      0.000
REMARK  1 active torsions:
REMARK  status: ('A' for Active; 'I' for Inactive)
REMARK    1  A    between atoms: C_9  and  C_14 
ROOT
HETATM    1 Cl   UNK     0      20.450   6.676 -12.037  0.00  0.00    -0.084 Cl
HETATM    2  N   UNK     0      21.221   5.322  -6.313  0.00  0.00    -0.282 N 
HETATM    3  N   UNK     0      23.095   7.729  -6.409  0.00  0.00    -0.281 NA
HETATM    4  N   UNK     0      22.195   5.074  -4.352  0.00  0.00    -0.133 NA
HETATM    5  N   UNK     0      21.024   4.356  -4.343  0.00  0.00    -0.135 NA
HETATM    6  C   UNK     0      20.992   5.720  -7.649  0.00  0.00     0.055 A 
HETATM    7  C   UNK     0      21.570   6.888  -8.184  0.00  0.00     0.022 A 
HETATM    8  C   UNK     0      22.320   5.625  -5.541  0.00  0.00     0.155 A 
HETATM    9  C   UNK     0      22.246   7.941  -7.356  0.00  0.00     0.074 C 
HETATM   10  C   UNK     0      23.482   6.374  -6.065  0.00  0.00     0.230 C 
HETATM   11  C   UNK     0      20.468   4.490  -5.525  0.00  0.00     0.131 A 
HETATM   12  C   UNK     0      20.195   4.900  -8.464  0.00  0.00     0.033 A 
HETATM   13  C   UNK     0      21.407   7.160  -9.555  0.00  0.00     0.040 A 
HETATM   14  C   UNK     0      20.026   5.202  -9.815  0.00  0.00     0.026 A 
HETATM   15  C   UNK     0      20.644   6.320 -10.363  0.00  0.00     0.035 A 
HETATM   16  C   UNK     0      19.130   3.951  -5.846  0.00  0.00     0.094 C 
ENDROOT
BRANCH   9  17
HETATM   17  C   UNK     0      21.896   9.370  -7.613  0.00  0.00    -0.007 A 
HETATM   18  C   UNK     0      22.866  10.235  -8.099  0.00  0.00     0.014 A 
HETATM   19  C   UNK     0      22.539  11.570  -8.340  0.00  0.00     0.001 A 
HETATM   20  C   UNK     0      21.245  12.027  -8.091  0.00  0.00     0.000 A 
HETATM   21  C   UNK     0      20.278  11.149  -7.601  0.00  0.00     0.001 A 
HETATM   22  C   UNK     0      20.605   9.814  -7.361  0.00  0.00     0.014 A 
ENDBRANCH   9  17
TORSDOF 1
ENDMDL
MODEL 2
REMARK VINA RESULT:      -5.7     26.212     28.712
REMARK  1 active torsions:
REMARK  status: ('A' for Active; 'I' for Inactive)
REMARK    1  A    between atoms: C_9  and  C_14 
ROOT
HETATM    1 Cl   UNK     0       7.428   7.717  16.130  0.00  0.00    -0.084 Cl
HETATM    2  N   UNK     0      12.659   6.232  18.499  0.00  0.00    -0.282 N 
HETATM    3  N   UNK     0      10.882   4.978  20.641  0.00  0.00    -0.281 NA
HETATM    4  N   UNK     0      14.203   5.787  20.007  0.00  0.00    -0.133 NA
HETATM    5  N   UNK     0      14.826   5.965  18.795  0.00  0.00    -0.135 NA
HETATM    6  C   UNK     0      11.400   6.496  17.916  0.00  0.00     0.055 A 
HETATM    7  C   UNK     0      10.203   6.018  18.485  0.00  0.00     0.022 A 
HETATM    8  C   UNK     0      12.913   5.975  19.828  0.00  0.00     0.155 A 
HETATM    9  C   UNK     0      10.150   4.991  19.579  0.00  0.00     0.074 C 
HETATM   10  C   UNK     0      11.861   6.024  20.865  0.00  0.00     0.230 C 
HETATM   11  C   UNK     0      13.898   6.256  17.912  0.00  0.00     0.131 A 
HETATM   12  C   UNK     0      11.353   7.289  16.758  0.00  0.00     0.033 A 
HETATM   13  C   UNK     0       8.976   6.423  17.929  0.00  0.00     0.040 A 
HETATM   14  C   UNK     0      10.125   7.658  16.207  0.00  0.00     0.026 A 
HETATM   15  C   UNK     0       8.940   7.241  16.800  0.00  0.00     0.035 A 
HETATM   16  C   UNK     0      14.183   6.397  16.469  0.00  0.00     0.094 C 
ENDROOT
BRANCH   9  17
HETATM   17  C   UNK     0       9.192   3.855  19.431  0.00  0.00    -0.007 A 
HETATM   18  C   UNK     0       7.910   3.970  19.949  0.00  0.00     0.014 A 
HETATM   19  C   UNK     0       7.015   2.908  19.810  0.00  0.00     0.001 A 
HETATM   20  C   UNK     0       7.411   1.743  19.154  0.00  0.00     0.000 A 
HETATM   21  C   UNK     0       8.702   1.639  18.637  0.00  0.00     0.001 A 
HETATM   22  C   UNK     0       9.597   2.700  18.775  0.00  0.00     0.014 A 
ENDBRANCH   9  17
TORSDOF 1
ENDMDL
MODEL 3
REMARK VINA RESULT:      -5.5     13.198     15.696
REMARK  1 active torsions:
REMARK  status: ('A' for Active; 'I' for Inactive)
REMARK    1  A    between atoms: C_9  and  C_14 
ROOT
HETATM    1 Cl   UNK     0      26.886   6.417   9.525  0.00  0.00    -0.084 Cl
HETATM    2  N   UNK     0      23.397   5.760   4.773  0.00  0.00    -0.282 N 
HETATM    3  N   UNK     0      22.022   3.705   6.563  0.00  0.00    -0.281 NA
HETATM    4  N   UNK     0      22.097   4.811   3.268  0.00  0.00    -0.133 NA
HETATM    5  N   UNK     0      22.493   6.034   2.782  0.00  0.00    -0.135 NA
HETATM    6  C   UNK     0      24.156   5.956   5.947  0.00  0.00     0.055 A 
HETATM    7  C   UNK     0      23.848   5.289   7.150  0.00  0.00     0.022 A 
HETATM    8  C   UNK     0      22.664   4.642   4.443  0.00  0.00     0.155 A 
HETATM    9  C   UNK     0      22.572   4.535   7.384  0.00  0.00     0.074 C 
HETATM   10  C   UNK     0      22.644   3.425   5.283  0.00  0.00     0.230 C 
HETATM   11  C   UNK     0      23.287   6.577   3.676  0.00  0.00     0.131 A 
HETATM   12  C   UNK     0      25.267   6.813   5.890  0.00  0.00     0.033 A 
HETATM   13  C   UNK     0      24.718   5.429   8.247  0.00  0.00     0.040 A 
HETATM   14  C   UNK     0      26.103   6.957   6.998  0.00  0.00     0.026 A 
HETATM   15  C   UNK     0      25.839   6.254   8.168  0.00  0.00     0.035 A 
HETATM   16  C   UNK     0      23.813   7.952   3.551  0.00  0.00     0.094 C 
ENDROOT
BRANCH   9  17
HETATM   17  C   UNK     0      21.839   4.772   8.663  0.00  0.00    -0.007 A 
HETATM   18  C   UNK     0      21.758   3.756   9.603  0.00  0.00     0.014 A 
HETATM   19  C   UNK     0      21.072   3.978  10.799  0.00  0.00     0.001 A 
HETATM   20  C   UNK     0      20.476   5.215  11.041  0.00  0.00     0.000 A 
HETATM   21  C   UNK     0      20.564   6.230  10.088  0.00  0.00     0.001 A 
HETATM   22  C   UNK     0      21.248   6.008   8.893  0.00  0.00     0.014 A 
ENDBRANCH   9  17
TORSDOF 1
ENDMDL
