MODEL 1
REMARK VINA RESULT:      -8.9      0.000      0.000
REMARK  Name = C:\Users\Docking\Desktop\test protocol\1iep_ligandH.pdb
REMARK  8 active torsions:
REMARK  status: ('A' for Active; 'I' for Inactive)
REMARK    1  A    between atoms: _5  and  _11
REMARK    2  A    between atoms: _19  and  _21
REMARK    3  A    between atoms: _22  and  _66
REMARK    4  A    between atoms: _27  and  _30
REMARK    5  A    between atoms: _32  and  _33
REMARK    6  A    between atoms: _38  and  _43
REMARK    7  A    between atoms: _43  and  _46
REMARK    8  A    between atoms: _53  and  _55
REMARK                            x       y       z     vdW  Elec       q    Type
REMARK                         _______ _______ _______ _____ _____    ______ ____
ROOT
ATOM     10  C   UNL     1      16.730  29.152   6.056  0.00  0.00    +0.038 A 
ATOM     11  C   UNL     1      15.726  29.657   6.920  0.00  0.00    +0.047 A 
ATOM     12  C   UNL     1      15.938  30.872   7.692  0.00  0.00    +0.035 A 
ATOM     32  C   UNL     1      17.186  31.548   7.557  0.00  0.00    +0.024 A 
ATOM     33  C   UNL     1      18.218  31.048   6.684  0.00  0.00    +0.007 A 
ATOM     34  C   UNL     1      18.015  29.849   5.922  0.00  0.00    -0.029 A 
ATOM     35  C   UNL     1      19.159  29.355   5.007  0.00  0.00    +0.045 C 
ENDROOT
BRANCH  10   9
ATOM      4  C   UNL     1      15.426  26.839   2.057  0.00  0.00    +0.077 A 
ATOM      5  C   UNL     1      15.215  28.067   1.345  0.00  0.00    +0.048 A 
ATOM      6  C   UNL     1      15.446  29.271   2.047  0.00  0.00    +0.116 A 
ATOM      7  N   UNL     1      15.858  29.239   3.361  0.00  0.00    -0.223 NA
ATOM      8  C   UNL     1      16.051  28.038   4.019  0.00  0.00    +0.220 A 
ATOM      9  N   UNL     1      16.472  27.982   5.338  0.00  0.00    -0.283 N 
ATOM     36  H   UNL     1      16.595  27.076   5.790  0.00  0.00    +0.155 HD
ATOM     37  N   UNL     1      15.835  26.874   3.372  0.00  0.00    -0.214 NA
BRANCH   4   3
ATOM      1  C   UNL     1      15.270  23.875  -0.490  0.00  0.00    +0.020 A 
ATOM      2  C   UNL     1      15.478  25.201   0.044  0.00  0.00    +0.013 A 
ATOM      3  C   UNL     1      15.227  25.484   1.452  0.00  0.00    +0.019 A 
ATOM     38  C   UNL     1      14.764  24.395   2.299  0.00  0.00    +0.120 A 
ATOM     39  N   UNL     1      14.572  23.129   1.756  0.00  0.00    -0.263 NA
ATOM     40  C   UNL     1      14.808  22.844   0.402  0.00  0.00    +0.111 A 
ENDBRANCH   4   3
ENDBRANCH  10   9
BRANCH  12  13
ATOM     13  N   UNL     1      14.958  31.428   8.592  0.00  0.00    -0.281 N 
ATOM     14  C   UNL     1      13.755  32.034   8.271  0.00  0.00    +0.248 C 
ATOM     30  O   UNL     1      13.436  32.383   7.145  0.00  0.00    -0.270 OA
ATOM     31  H   UNL     1      15.179  31.367   9.586  0.00  0.00    +0.155 HD
BRANCH  14  15
ATOM     15  C   UNL     1      12.770  32.305   9.362  0.00  0.00    +0.037 A 
ATOM     16  C   UNL     1      11.486  32.954   9.083  0.00  0.00    +0.013 A 
ATOM     17  C   UNL     1      10.561  33.219  10.156  0.00  0.00    +0.005 A 
ATOM     18  C   UNL     1      10.916  32.833  11.519  0.00  0.00    -0.033 A 
ATOM     28  C   UNL     1      12.194  32.186  11.767  0.00  0.00    +0.005 A 
ATOM     29  C   UNL     1      13.104  31.925  10.718  0.00  0.00    +0.013 A 
BRANCH  18  19
ATOM     19  C   UNL     1      10.000  33.096  12.729  0.00  0.00    +0.119 C 
BRANCH  19  20
ATOM     20  N   UNL     1      10.475  32.622  14.063  0.00  0.00    -0.302 NA
ATOM     21  C   UNL     1       9.875  31.265  14.438  0.00  0.00    +0.066 C 
ATOM     22  C   UNL     1      10.400  30.774  15.827  0.00  0.00    -0.064 C 
ATOM     23  N   UNL     1      10.075  31.823  16.892  0.00  0.00    +0.379 N 
ATOM     24  C   UNL     1      10.517  31.339  18.208  0.00  0.00    -0.096 C 
ATOM     25  H   UNL     1       8.967  31.937  16.927  0.00  0.00    -0.082 HD
ATOM     26  C   UNL     1      10.667  33.177  16.525  0.00  0.00    -0.064 C 
ATOM     27  C   UNL     1      10.161  33.641  15.131  0.00  0.00    +0.066 C 
ENDBRANCH  19  20
ENDBRANCH  18  19
ENDBRANCH  14  15
ENDBRANCH  12  13
TORSDOF 6
ENDMDL
MODEL 2
REMARK VINA RESULT:      -8.4      0.994      1.424
REMARK  Name = C:\Users\Docking\Desktop\test protocol\1iep_ligandH.pdb
REMARK  8 active torsions:
REMARK  status: ('A' for Active; 'I' for Inactive)
REMARK    1  A    between atoms: _5  and  _11
REMARK    2  A    between atoms: _19  and  _21
REMARK    3  A    between atoms: _22  and  _66
REMARK    4  A    between atoms: _27  and  _30
REMARK    5  A    between atoms: _32  and  _33
REMARK    6  A    between atoms: _38  and  _43
REMARK    7  A    between atoms: _43  and  _46
REMARK    8  A    between atoms: _53  and  _55
REMARK                            x       y       z     vdW  Elec       q    Type
REMARK                         _______ _______ _______ _____ _____    ______ ____
ROOT
ATOM     10  C   UNL     1      17.031  30.114   5.195  0.00  0.00    +0.038 A 
ATOM     11  C   UNL     1      15.983  30.440   6.092  0.00  0.00    +0.047 A 
ATOM     12  C   UNL     1      16.182  31.404   7.164  0.00  0.00    +0.035 A 
ATOM     32  C   UNL     1      17.462  32.018   7.290  0.00  0.00    +0.024 A 
ATOM     33  C   UNL     1      18.539  31.698   6.388  0.00  0.00    +0.007 A 
ATOM     34  C   UNL     1      18.349  30.746   5.330  0.00  0.00    -0.029 A 
ATOM     35  C   UNL     1      19.542  30.436   4.396  0.00  0.00    +0.045 C 
ENDROOT
BRANCH  10   9
ATOM      4  C   UNL     1      15.280  25.927   3.634  0.00  0.00    +0.077 A 
ATOM      5  C   UNL     1      14.843  25.552   4.948  0.00  0.00    +0.048 A 
ATOM      6  C   UNL     1      15.094  26.462   5.999  0.00  0.00    +0.116 A 
ATOM      7  N   UNL     1      15.735  27.655   5.744  0.00  0.00    -0.223 NA
ATOM      8  C   UNL     1      16.145  27.985   4.465  0.00  0.00    +0.220 A 
ATOM      9  N   UNL     1      16.785  29.182   4.184  0.00  0.00    -0.283 N 
ATOM     36  H   UNL     1      17.078  29.385   3.229  0.00  0.00    +0.155 HD
ATOM     37  N   UNL     1      15.918  27.132   3.444  0.00  0.00    -0.214 NA
BRANCH   4   3
ATOM      1  C   UNL     1      14.987  24.726  -0.077  0.00  0.00    +0.020 A 
ATOM      2  C   UNL     1      15.185  25.593   1.061  0.00  0.00    +0.013 A 
ATOM      3  C   UNL     1      15.084  25.073   2.420  0.00  0.00    +0.019 A 
ATOM     38  C   UNL     1      14.779  23.661   2.592  0.00  0.00    +0.120 A 
ATOM     39  N   UNL     1      14.592  22.850   1.477  0.00  0.00    -0.263 NA
ATOM     40  C   UNL     1      14.685  23.339   0.165  0.00  0.00    +0.111 A 
ENDBRANCH   4   3
ENDBRANCH  10   9
BRANCH  12  13
ATOM     13  N   UNL     1      15.157  31.769   8.110  0.00  0.00    -0.281 N 
ATOM     14  C   UNL     1      13.935  32.368   7.853  0.00  0.00    +0.248 C 
ATOM     30  O   UNL     1      13.626  32.878   6.786  0.00  0.00    -0.270 OA
ATOM     31  H   UNL     1      15.357  31.560   9.088  0.00  0.00    +0.155 HD
BRANCH  14  15
ATOM     15  C   UNL     1      12.913  32.421   8.942  0.00  0.00    +0.037 A 
ATOM     16  C   UNL     1      11.613  33.064   8.734  0.00  0.00    +0.013 A 
ATOM     17  C   UNL     1      10.652  33.116   9.808  0.00  0.00    +0.005 A 
ATOM     18  C   UNL     1      10.988  32.521  11.099  0.00  0.00    -0.033 A 
ATOM     28  C   UNL     1      12.283  31.886  11.276  0.00  0.00    +0.005 A 
ATOM     29  C   UNL     1      13.228  31.834  10.227  0.00  0.00    +0.013 A 
BRANCH  18  19
ATOM     19  C   UNL     1      10.032  32.549  12.307  0.00  0.00    +0.119 C 
BRANCH  19  20
ATOM     20  N   UNL     1      10.609  32.219  13.643  0.00  0.00    -0.302 NA
ATOM     21  C   UNL     1      10.073  30.892  14.189  0.00  0.00    +0.066 C 
ATOM     22  C   UNL     1      10.704  30.550  15.577  0.00  0.00    -0.064 C 
ATOM     23  N   UNL     1      10.424  31.691  16.557  0.00  0.00    +0.379 N 
ATOM     24  C   UNL     1      10.966  31.347  17.879  0.00  0.00    -0.096 C 
ATOM     25  H   UNL     1       9.318  31.785  16.658  0.00  0.00    -0.082 HD
ATOM     26  C   UNL     1      10.952  33.015  16.021  0.00  0.00    -0.064 C 
ATOM     27  C   UNL     1      10.340  33.330  14.627  0.00  0.00    +0.066 C 
ENDBRANCH  19  20
ENDBRANCH  18  19
ENDBRANCH  14  15
ENDBRANCH  12  13
TORSDOF 6
ENDMDL
MODEL 3
REMARK VINA RESULT:      -8.4      1.301      1.506
REMARK  Name = C:\Users\Docking\Desktop\test protocol\1iep_ligandH.pdb
REMARK  8 active torsions:
REMARK  status: ('A' for Active; 'I' for Inactive)
REMARK    1  A    between atoms: _5  and  _11
REMARK    2  A    between atoms: _19  and  _21
REMARK    3  A    between atoms: _22  and  _66
REMARK    4  A    between atoms: _27  and  _30
REMARK    5  A    between atoms: _32  and  _33
REMARK    6  A    between atoms: _38  and  _43
REMARK    7  A    between atoms: _43  and  _46
REMARK    8  A    between atoms: _53  and  _55
REMARK                            x       y       z     vdW  Elec       q    Type
REMARK                         _______ _______ _______ _____ _____    ______ ____
ROOT
ATOM     10  C   UNL     1      17.007  29.358   6.086  0.00  0.00    +0.038 A 
ATOM     11  C   UNL     1      16.033  30.148   6.748  0.00  0.00    +0.047 A 
ATOM     12  C   UNL     1      16.397  31.388   7.416  0.00  0.00    +0.035 A 
ATOM     32  C   UNL     1      17.763  31.795   7.387  0.00  0.00    +0.024 A 
ATOM     33  C   UNL     1      18.767  31.003   6.720  0.00  0.00    +0.007 A 
ATOM     34  C   UNL     1      18.414  29.778   6.062  0.00  0.00    -0.029 A 
ATOM     35  C   UNL     1      19.532  28.966   5.368  0.00  0.00    +0.045 C 
ENDROOT
BRANCH  10   9
ATOM      4  C   UNL     1      15.318  26.936   2.302  0.00  0.00    +0.077 A 
ATOM      5  C   UNL     1      15.208  28.129   1.513  0.00  0.00    +0.048 A 
ATOM      6  C   UNL     1      15.590  29.346   2.120  0.00  0.00    +0.116 A 
ATOM      7  N   UNL     1      16.046  29.358   3.420  0.00  0.00    -0.223 NA
ATOM      8  C   UNL     1      16.138  28.189   4.154  0.00  0.00    +0.220 A 
ATOM      9  N   UNL     1      16.602  28.177   5.461  0.00  0.00    -0.283 N 
ATOM     36  H   UNL     1      16.648  27.295   5.971  0.00  0.00    +0.155 HD
ATOM     37  N   UNL     1      15.779  27.014   3.597  0.00  0.00    -0.214 NA
BRANCH   4   3
ATOM      1  C   UNL     1      14.937  23.773   0.032  0.00  0.00    +0.020 A 
ATOM      2  C   UNL     1      15.310  25.099   0.467  0.00  0.00    +0.013 A 
ATOM      3  C   UNL     1      14.956  25.572   1.800  0.00  0.00    +0.019 A 
ATOM     38  C   UNL     1      14.220  24.672   2.674  0.00  0.00    +0.120 A 
ATOM     39  N   UNL     1      13.874  23.401   2.227  0.00  0.00    -0.263 NA
ATOM     40  C   UNL     1      14.207  22.935   0.946  0.00  0.00    +0.111 A 
ENDBRANCH   4   3
ENDBRANCH  10   9
BRANCH  12  13
ATOM     13  N   UNL     1      15.453  32.228   8.110  0.00  0.00    -0.281 N 
ATOM     14  C   UNL     1      14.258  32.741   7.634  0.00  0.00    +0.248 C 
ATOM     30  O   UNL     1      13.921  32.730   6.459  0.00  0.00    -0.270 OA
ATOM     31  H   UNL     1      15.696  32.474   9.070  0.00  0.00    +0.155 HD
BRANCH  14  15
ATOM     15  C   UNL     1      13.306  33.369   8.600  0.00  0.00    +0.037 A 
ATOM     16  C   UNL     1      11.863  33.382   8.345  0.00  0.00    +0.013 A 
ATOM     17  C   UNL     1      10.968  34.010   9.285  0.00  0.00    +0.005 A 
ATOM     18  C   UNL     1      11.515  34.630  10.490  0.00  0.00    -0.033 A 
ATOM     28  C   UNL     1      12.950  34.598  10.720  0.00  0.00    +0.005 A 
ATOM     29  C   UNL     1      13.830  33.984   9.801  0.00  0.00    +0.013 A 
BRANCH  18  19
ATOM     19  C   UNL     1      10.637  35.341  11.536  0.00  0.00    +0.119 C 
BRANCH  19  20
ATOM     20  N   UNL     1      10.502  34.688  12.873  0.00  0.00    -0.302 NA
ATOM     21  C   UNL     1       9.911  33.280  12.768  0.00  0.00    +0.066 C 
ATOM     22  C   UNL     1       9.799  32.603  14.173  0.00  0.00    -0.064 C 
ATOM     23  N   UNL     1       8.947  33.481  15.091  0.00  0.00    +0.379 N 
ATOM     24  C   UNL     1       8.791  32.820  16.395  0.00  0.00    -0.096 C 
ATOM     25  H   UNL     1       7.934  33.567  14.632  0.00  0.00    -0.082 HD
ATOM     26  C   UNL     1       9.526  34.884  15.199  0.00  0.00    -0.064 C 
ATOM     27  C   UNL     1       9.661  35.536  13.795  0.00  0.00    +0.066 C 
ENDBRANCH  19  20
ENDBRANCH  18  19
ENDBRANCH  14  15
ENDBRANCH  12  13
TORSDOF 6
ENDMDL
