MODEL 1
REMARK VINA RESULT:      -8.8      0.000      0.000
REMARK  Name = C:\Users\Docking\Desktop\test protocol\1iep_ligandH.pdb
REMARK  8 active torsions:
REMARK  status: ('A' for Active; 'I' for Inactive)
REMARK    1  A    between atoms: _5  and  _11
REMARK    2  A    between atoms: _19  and  _21
REMARK    3  A    between atoms: _22  and  _66
REMARK    4  A    between atoms: _27  and  _30
REMARK    5  A    between atoms: _32  and  _33
REMARK    6  A    between atoms: _38  and  _43
REMARK    7  A    between atoms: _43  and  _46
REMARK    8  A    between atoms: _53  and  _55
REMARK                            x       y       z     vdW  Elec       q    Type
REMARK                         _______ _______ _______ _____ _____    ______ ____
ROOT
ATOM     10  C   UNL     1      13.362  25.679   7.941  0.00  0.00    +0.038 A 
ATOM     11  C   UNL     1      13.608  27.023   8.321  0.00  0.00    +0.047 A 
ATOM     12  C   UNL     1      13.068  27.566   9.558  0.00  0.00    +0.035 A 
ATOM     32  C   UNL     1      12.284  26.711  10.386  0.00  0.00    +0.024 A 
ATOM     33  C   UNL     1      12.022  25.343  10.014  0.00  0.00    +0.007 A 
ATOM     34  C   UNL     1      12.550  24.802   8.794  0.00  0.00    -0.029 A 
ATOM     35  C   UNL     1      12.233  23.330   8.442  0.00  0.00    +0.045 C 
ENDROOT
BRANCH  10   9
ATOM      4  C   UNL     1      13.051  24.685   3.256  0.00  0.00    +0.077 A 
ATOM      5  C   UNL     1      11.683  25.112   3.196  0.00  0.00    +0.048 A 
ATOM      6  C   UNL     1      11.094  25.573   4.394  0.00  0.00    +0.116 A 
ATOM      7  N   UNL     1      11.828  25.602   5.560  0.00  0.00    -0.223 NA
ATOM      8  C   UNL     1      13.145  25.182   5.583  0.00  0.00    +0.220 A 
ATOM      9  N   UNL     1      13.905  25.210   6.743  0.00  0.00    -0.283 N 
ATOM     36  H   UNL     1      14.871  24.884   6.721  0.00  0.00    +0.155 HD
ATOM     37  N   UNL     1      13.730  24.736   4.453  0.00  0.00    -0.214 NA
BRANCH   4   3
ATOM      1  C   UNL     1      15.179  24.511  -0.022  0.00  0.00    +0.020 A 
ATOM      2  C   UNL     1      14.454  25.055   1.103  0.00  0.00    +0.013 A 
ATOM      3  C   UNL     1      13.814  24.175   2.073  0.00  0.00    +0.019 A 
ATOM     38  C   UNL     1      13.928  22.738   1.874  0.00  0.00    +0.120 A 
ATOM     39  N   UNL     1      14.631  22.243   0.780  0.00  0.00    -0.263 NA
ATOM     40  C   UNL     1      15.250  23.080  -0.160  0.00  0.00    +0.111 A 
ENDBRANCH   4   3
ENDBRANCH  10   9
BRANCH  12  13
ATOM     13  N   UNL     1      13.278  28.925   9.992  0.00  0.00    -0.281 N 
ATOM     14  C   UNL     1      14.464  29.641  10.006  0.00  0.00    +0.248 C 
ATOM     30  O   UNL     1      15.571  29.149   9.846  0.00  0.00    -0.270 OA
ATOM     31  H   UNL     1      12.452  29.419  10.330  0.00  0.00    +0.155 HD
BRANCH  14  15
ATOM     15  C   UNL     1      14.414  31.116  10.247  0.00  0.00    +0.037 A 
ATOM     16  C   UNL     1      13.748  31.671  11.428  0.00  0.00    +0.013 A 
ATOM     17  C   UNL     1      13.700  33.097  11.627  0.00  0.00    +0.005 A 
ATOM     18  C   UNL     1      14.322  33.980  10.643  0.00  0.00    -0.033 A 
ATOM     28  C   UNL     1      14.981  33.402   9.483  0.00  0.00    +0.005 A 
ATOM     29  C   UNL     1      15.029  32.004   9.284  0.00  0.00    +0.013 A 
BRANCH  18  19
ATOM     19  C   UNL     1      14.300  35.515  10.764  0.00  0.00    +0.119 C 
BRANCH  19  20
ATOM     20  N   UNL     1      13.263  36.248   9.980  0.00  0.00    -0.302 NA
ATOM     21  C   UNL     1      12.022  35.388   9.724  0.00  0.00    +0.066 C 
ATOM     22  C   UNL     1      10.937  36.179   8.922  0.00  0.00    -0.064 C 
ATOM     23  N   UNL     1      11.538  36.668   7.603  0.00  0.00    +0.379 N 
ATOM     24  C   UNL     1      10.505  37.361   6.820  0.00  0.00    -0.096 C 
ATOM     25  H   UNL     1      11.856  35.770   7.023  0.00  0.00    -0.082 HD
ATOM     26  C   UNL     1      12.774  37.521   7.848  0.00  0.00    -0.064 C 
ATOM     27  C   UNL     1      13.834  36.737   8.671  0.00  0.00    +0.066 C 
ENDBRANCH  19  20
ENDBRANCH  18  19
ENDBRANCH  14  15
ENDBRANCH  12  13
TORSDOF 6
ENDMDL
MODEL 2
REMARK VINA RESULT:      -8.6      8.598     12.330
REMARK  Name = C:\Users\Docking\Desktop\test protocol\1iep_ligandH.pdb
REMARK  8 active torsions:
REMARK  status: ('A' for Active; 'I' for Inactive)
REMARK    1  A    between atoms: _5  and  _11
REMARK    2  A    between atoms: _19  and  _21
REMARK    3  A    between atoms: _22  and  _66
REMARK    4  A    between atoms: _27  and  _30
REMARK    5  A    between atoms: _32  and  _33
REMARK    6  A    between atoms: _38  and  _43
REMARK    7  A    between atoms: _43  and  _46
REMARK    8  A    between atoms: _53  and  _55
REMARK                            x       y       z     vdW  Elec       q    Type
REMARK                         _______ _______ _______ _____ _____    ______ ____
ROOT
ATOM     10  C   UNL     1      17.046  33.305  -1.364  0.00  0.00    +0.038 A 
ATOM     11  C   UNL     1      16.637  32.120  -0.700  0.00  0.00    +0.047 A 
ATOM     12  C   UNL     1      17.528  31.424   0.216  0.00  0.00    +0.035 A 
ATOM     32  C   UNL     1      18.828  31.966   0.434  0.00  0.00    +0.024 A 
ATOM     33  C   UNL     1      19.261  33.169  -0.233  0.00  0.00    +0.007 A 
ATOM     34  C   UNL     1      18.387  33.857  -1.139  0.00  0.00    -0.029 A 
ATOM     35  C   UNL     1      18.906  35.139  -1.831  0.00  0.00    +0.045 C 
ENDROOT
BRANCH  10   9
ATOM      4  C   UNL     1      14.978  33.819  -5.664  0.00  0.00    +0.077 A 
ATOM      5  C   UNL     1      15.769  32.767  -6.236  0.00  0.00    +0.048 A 
ATOM      6  C   UNL     1      16.701  32.124  -5.392  0.00  0.00    +0.116 A 
ATOM      7  N   UNL     1      16.825  32.512  -4.075  0.00  0.00    -0.223 NA
ATOM      8  C   UNL     1      16.048  33.531  -3.556  0.00  0.00    +0.220 A 
ATOM      9  N   UNL     1      16.150  33.931  -2.232  0.00  0.00    -0.283 N 
ATOM     36  H   UNL     1      15.563  34.692  -1.889  0.00  0.00    +0.155 HD
ATOM     37  N   UNL     1      15.151  34.161  -4.342  0.00  0.00    -0.214 NA
BRANCH   4   3
ATOM      1  C   UNL     1      12.278  36.468  -6.661  0.00  0.00    +0.020 A 
ATOM      2  C   UNL     1      13.265  35.757  -5.882  0.00  0.00    +0.013 A 
ATOM      3  C   UNL     1      13.947  34.591  -6.428  0.00  0.00    +0.019 A 
ATOM     38  C   UNL     1      13.605  34.167  -7.777  0.00  0.00    +0.120 A 
ATOM     39  N   UNL     1      12.649  34.870  -8.504  0.00  0.00    -0.263 NA
ATOM     40  C   UNL     1      11.985  35.992  -7.988  0.00  0.00    +0.111 A 
ENDBRANCH   4   3
ENDBRANCH  10   9
BRANCH  12  13
ATOM     13  N   UNL     1      17.171  30.213   0.911  0.00  0.00    -0.281 N 
ATOM     14  C   UNL     1      16.625  30.088   2.179  0.00  0.00    +0.248 C 
ATOM     30  O   UNL     1      16.559  30.995   2.995  0.00  0.00    -0.270 OA
ATOM     31  H   UNL     1      17.341  29.342   0.409  0.00  0.00    +0.155 HD
BRANCH  14  15
ATOM     15  C   UNL     1      16.089  28.760   2.606  0.00  0.00    +0.037 A 
ATOM     16  C   UNL     1      16.326  28.244   3.957  0.00  0.00    +0.013 A 
ATOM     17  C   UNL     1      15.811  26.952   4.338  0.00  0.00    +0.005 A 
ATOM     18  C   UNL     1      15.053  26.168   3.366  0.00  0.00    -0.033 A 
ATOM     28  C   UNL     1      14.828  26.707   2.035  0.00  0.00    +0.005 A 
ATOM     29  C   UNL     1      15.332  27.972   1.657  0.00  0.00    +0.013 A 
BRANCH  18  19
ATOM     19  C   UNL     1      14.485  24.771   3.679  0.00  0.00    +0.119 C 
BRANCH  19  20
ATOM     20  N   UNL     1      13.097  24.704   4.225  0.00  0.00    -0.302 NA
ATOM     21  C   UNL     1      12.042  24.978   3.150  0.00  0.00    +0.066 C 
ATOM     22  C   UNL     1      10.595  24.882   3.734  0.00  0.00    -0.064 C 
ATOM     23  N   UNL     1      10.451  25.865   4.896  0.00  0.00    +0.379 N 
ATOM     24  C   UNL     1       9.074  25.819   5.410  0.00  0.00    -0.096 C 
ATOM     25  H   UNL     1      10.628  26.891   4.496  0.00  0.00    -0.082 HD
ATOM     26  C   UNL     1      11.498  25.602   5.969  0.00  0.00    -0.064 C 
ATOM     27  C   UNL     1      12.931  25.671   5.372  0.00  0.00    +0.066 C 
ENDBRANCH  19  20
ENDBRANCH  18  19
ENDBRANCH  14  15
ENDBRANCH  12  13
TORSDOF 6
ENDMDL
MODEL 3
REMARK VINA RESULT:      -8.2      3.933      5.986
REMARK  Name = C:\Users\Docking\Desktop\test protocol\1iep_ligandH.pdb
REMARK  8 active torsions:
REMARK  status: ('A' for Active; 'I' for Inactive)
REMARK    1  A    between atoms: _5  and  _11
REMARK    2  A    between atoms: _19  and  _21
REMARK    3  A    between atoms: _22  and  _66
REMARK    4  A    between atoms: _27  and  _30
REMARK    5  A    between atoms: _32  and  _33
REMARK    6  A    between atoms: _38  and  _43
REMARK    7  A    between atoms: _43  and  _46
REMARK    8  A    between atoms: _53  and  _55
REMARK                            x       y       z     vdW  Elec       q    Type
REMARK                         _______ _______ _______ _____ _____    ______ ____
ROOT
ATOM     10  C   UNL     1      16.300  30.478   3.961  0.00  0.00    +0.038 A 
ATOM     11  C   UNL     1      15.598  30.669   5.178  0.00  0.00    +0.047 A 
ATOM     12  C   UNL     1      15.867  31.816   6.031  0.00  0.00    +0.035 A 
ATOM     32  C   UNL     1      16.857  32.752   5.612  0.00  0.00    +0.024 A 
ATOM     33  C   UNL     1      17.582  32.573   4.378  0.00  0.00    +0.007 A 
ATOM     34  C   UNL     1      17.322  31.442   3.534  0.00  0.00    -0.029 A 
ATOM     35  C   UNL     1      18.134  31.297   2.226  0.00  0.00    +0.045 C 
ENDROOT
BRANCH  10   9
ATOM      4  C   UNL     1      15.591  25.762   3.423  0.00  0.00    +0.077 A 
ATOM      5  C   UNL     1      15.865  25.503   4.807  0.00  0.00    +0.048 A 
ATOM      6  C   UNL     1      16.192  26.609   5.622  0.00  0.00    +0.116 A 
ATOM      7  N   UNL     1      16.237  27.877   5.083  0.00  0.00    -0.223 NA
ATOM      8  C   UNL     1      15.969  28.092   3.743  0.00  0.00    +0.220 A 
ATOM      9  N   UNL     1      16.001  29.359   3.181  0.00  0.00    -0.283 N 
ATOM     36  H   UNL     1      15.805  29.475   2.188  0.00  0.00    +0.155 HD
ATOM     37  N   UNL     1      15.656  27.051   2.944  0.00  0.00    -0.214 NA
BRANCH   4   3
ATOM      1  C   UNL     1      14.905  23.845   0.083  0.00  0.00    +0.020 A 
ATOM      2  C   UNL     1      15.265  24.907   0.994  0.00  0.00    +0.013 A 
ATOM      3  C   UNL     1      15.228  24.697   2.435  0.00  0.00    +0.019 A 
ATOM     38  C   UNL     1      14.819  23.389   2.927  0.00  0.00    +0.120 A 
ATOM     39  N   UNL     1      14.476  22.386   2.026  0.00  0.00    -0.263 NA
ATOM     40  C   UNL     1      14.507  22.577   0.636  0.00  0.00    +0.111 A 
ENDBRANCH   4   3
ENDBRANCH  10   9
BRANCH  12  13
ATOM     13  N   UNL     1      15.191  32.058   7.282  0.00  0.00    -0.281 N 
ATOM     14  C   UNL     1      15.424  31.453   8.506  0.00  0.00    +0.248 C 
ATOM     30  O   UNL     1      16.109  30.454   8.664  0.00  0.00    -0.270 OA
ATOM     31  H   UNL     1      14.451  32.760   7.262  0.00  0.00    +0.155 HD
BRANCH  14  15
ATOM     15  C   UNL     1      14.792  32.035   9.730  0.00  0.00    +0.037 A 
ATOM     16  C   UNL     1      13.937  33.221   9.653  0.00  0.00    +0.013 A 
ATOM     17  C   UNL     1      13.354  33.772  10.851  0.00  0.00    +0.005 A 
ATOM     18  C   UNL     1      13.624  33.134  12.137  0.00  0.00    -0.033 A 
ATOM     28  C   UNL     1      14.473  31.955  12.184  0.00  0.00    +0.005 A 
ATOM     29  C   UNL     1      15.046  31.413  11.012  0.00  0.00    +0.013 A 
BRANCH  18  19
ATOM     19  C   UNL     1      13.061  33.665  13.469  0.00  0.00    +0.119 C 
BRANCH  19  20
ATOM     20  N   UNL     1      12.547  32.658  14.444  0.00  0.00    -0.302 NA
ATOM     21  C   UNL     1      11.194  32.083  14.016  0.00  0.00    +0.066 C 
ATOM     22  C   UNL     1      10.681  31.015  15.036  0.00  0.00    -0.064 C 
ATOM     23  N   UNL     1      10.587  31.645  16.427  0.00  0.00    +0.379 N 
ATOM     24  C   UNL     1      10.050  30.660  17.377  0.00  0.00    -0.096 C 
ATOM     25  H   UNL     1       9.860  32.489  16.367  0.00  0.00    -0.082 HD
ATOM     26  C   UNL     1      11.928  32.222  16.859  0.00  0.00    -0.064 C 
ATOM     27  C   UNL     1      12.442  33.261  15.823  0.00  0.00    +0.066 C 
ENDBRANCH  19  20
ENDBRANCH  18  19
ENDBRANCH  14  15
ENDBRANCH  12  13
TORSDOF 6
ENDMDL
