MODEL 1
REMARK VINA RESULT:      -8.9      0.000      0.000
REMARK  Name = C:\Users\Docking\Desktop\test protocol\1iep_ligandH.pdb
REMARK  8 active torsions:
REMARK  status: ('A' for Active; 'I' for Inactive)
REMARK    1  A    between atoms: _5  and  _11
REMARK    2  A    between atoms: _19  and  _21
REMARK    3  A    between atoms: _22  and  _66
REMARK    4  A    between atoms: _27  and  _30
REMARK    5  A    between atoms: _32  and  _33
REMARK    6  A    between atoms: _38  and  _43
REMARK    7  A    between atoms: _43  and  _46
REMARK    8  A    between atoms: _53  and  _55
REMARK                            x       y       z     vdW  Elec       q    Type
REMARK                         _______ _______ _______ _____ _____    ______ ____
ROOT
ATOM     10  C   UNL     1      12.979  49.422  72.251  0.00  0.00    +0.038 A 
ATOM     11  C   UNL     1      11.847  49.955  71.583  0.00  0.00    +0.047 A 
ATOM     12  C   UNL     1      10.829  50.700  72.306  0.00  0.00    +0.035 A 
ATOM     32  C   UNL     1      10.996  50.886  73.710  0.00  0.00    +0.024 A 
ATOM     33  C   UNL     1      12.140  50.350  74.404  0.00  0.00    +0.007 A 
ATOM     34  C   UNL     1      13.147  49.612  73.697  0.00  0.00    -0.029 A 
ATOM     35  C   UNL     1      14.349  49.055  74.494  0.00  0.00    +0.045 C 
ENDROOT
BRANCH  10   9
ATOM      4  C   UNL     1      16.646  49.225  69.160  0.00  0.00    +0.077 A 
ATOM      5  C   UNL     1      16.658  50.650  68.992  0.00  0.00    +0.048 A 
ATOM      6  C   UNL     1      15.700  51.397  69.713  0.00  0.00    +0.116 A 
ATOM      7  N   UNL     1      14.801  50.756  70.539  0.00  0.00    -0.223 NA
ATOM      8  C   UNL     1      14.816  49.380  70.677  0.00  0.00    +0.220 A 
ATOM      9  N   UNL     1      13.927  48.715  71.507  0.00  0.00    -0.283 N 
ATOM     36  H   UNL     1      13.965  47.698  71.576  0.00  0.00    +0.155 HD
ATOM     37  N   UNL     1      15.720  48.644  69.997  0.00  0.00    -0.214 NA
BRANCH   4   3
ATOM      1  C   UNL     1      19.830  47.761  67.423  0.00  0.00    +0.020 A 
ATOM      2  C   UNL     1      18.950  48.693  68.090  0.00  0.00    +0.013 A 
ATOM      3  C   UNL     1      17.598  48.300  68.468  0.00  0.00    +0.019 A 
ATOM     38  C   UNL     1      17.165  46.947  68.155  0.00  0.00    +0.120 A 
ATOM     39  N   UNL     1      18.034  46.072  67.511  0.00  0.00    -0.263 NA
ATOM     40  C   UNL     1      19.336  46.439  67.141  0.00  0.00    +0.111 A 
ENDBRANCH   4   3
ENDBRANCH  10   9
BRANCH  12  13
ATOM     13  N   UNL     1       9.654  51.257  71.683  0.00  0.00    -0.281 N 
ATOM     14  C   UNL     1       8.779  52.198  72.203  0.00  0.00    +0.248 C 
ATOM     30  O   UNL     1       8.755  52.546  73.374  0.00  0.00    -0.270 OA
ATOM     31  H   UNL     1       9.441  50.917  70.745  0.00  0.00    +0.155 HD
BRANCH  14  15
ATOM     15  C   UNL     1       7.777  52.832  71.293  0.00  0.00    +0.037 A 
ATOM     16  C   UNL     1       7.659  52.425  69.891  0.00  0.00    +0.013 A 
ATOM     17  C   UNL     1       6.695  53.065  69.031  0.00  0.00    +0.005 A 
ATOM     18  C   UNL     1       5.841  54.119  69.572  0.00  0.00    -0.033 A 
ATOM     28  C   UNL     1       5.976  54.500  70.968  0.00  0.00    +0.005 A 
ATOM     29  C   UNL     1       6.920  53.875  71.814  0.00  0.00    +0.013 A 
BRANCH  18  19
ATOM     19  C   UNL     1       4.800  54.871  68.722  0.00  0.00    +0.119 C 
BRANCH  19  20
ATOM     20  N   UNL     1       5.156  55.155  67.299  0.00  0.00    -0.302 NA
ATOM     21  C   UNL     1       5.509  56.629  67.079  0.00  0.00    +0.066 C 
ATOM     22  C   UNL     1       5.901  56.904  65.591  0.00  0.00    -0.064 C 
ATOM     23  N   UNL     1       4.749  56.481  64.677  0.00  0.00    +0.379 N 
ATOM     24  C   UNL     1       5.091  56.792  63.281  0.00  0.00    -0.096 C 
ATOM     25  H   UNL     1       3.858  57.092  64.952  0.00  0.00    -0.082 HD
ATOM     26  C   UNL     1       4.389  55.018  64.892  0.00  0.00    -0.064 C 
ATOM     27  C   UNL     1       4.030  54.749  66.380  0.00  0.00    +0.066 C 
ENDBRANCH  19  20
ENDBRANCH  18  19
ENDBRANCH  14  15
ENDBRANCH  12  13
TORSDOF 6
ENDMDL
MODEL 2
REMARK VINA RESULT:      -8.6      4.846     12.545
REMARK  Name = C:\Users\Docking\Desktop\test protocol\1iep_ligandH.pdb
REMARK  8 active torsions:
REMARK  status: ('A' for Active; 'I' for Inactive)
REMARK    1  A    between atoms: _5  and  _11
REMARK    2  A    between atoms: _19  and  _21
REMARK    3  A    between atoms: _22  and  _66
REMARK    4  A    between atoms: _27  and  _30
REMARK    5  A    between atoms: _32  and  _33
REMARK    6  A    between atoms: _38  and  _43
REMARK    7  A    between atoms: _43  and  _46
REMARK    8  A    between atoms: _53  and  _55
REMARK                            x       y       z     vdW  Elec       q    Type
REMARK                         _______ _______ _______ _____ _____    ______ ____
ROOT
ATOM     10  C   UNL     1      15.093  49.685  69.133  0.00  0.00    +0.038 A 
ATOM     11  C   UNL     1      15.104  48.422  68.487  0.00  0.00    +0.047 A 
ATOM     12  C   UNL     1      16.352  47.791  68.088  0.00  0.00    +0.035 A 
ATOM     32  C   UNL     1      17.573  48.474  68.364  0.00  0.00    +0.024 A 
ATOM     33  C   UNL     1      17.580  49.759  69.019  0.00  0.00    +0.007 A 
ATOM     34  C   UNL     1      16.351  50.387  69.413  0.00  0.00    -0.029 A 
ATOM     35  C   UNL     1      16.419  51.768  70.105  0.00  0.00    +0.045 C 
ENDROOT
BRANCH  10   9
ATOM      4  C   UNL     1      11.613  50.554  72.321  0.00  0.00    +0.077 A 
ATOM      5  C   UNL     1      12.284  49.808  73.346  0.00  0.00    +0.048 A 
ATOM      6  C   UNL     1      13.520  49.210  73.010  0.00  0.00    +0.116 A 
ATOM      7  N   UNL     1      14.036  49.355  71.741  0.00  0.00    -0.223 NA
ATOM      8  C   UNL     1      13.361  50.079  70.775  0.00  0.00    +0.220 A 
ATOM      9  N   UNL     1      13.865  50.244  69.494  0.00  0.00    -0.283 N 
ATOM     36  H   UNL     1      13.334  50.780  68.808  0.00  0.00    +0.155 HD
ATOM     37  N   UNL     1      12.179  50.659  71.071  0.00  0.00    -0.214 NA
BRANCH   4   3
ATOM      1  C   UNL     1       7.985  51.911  71.777  0.00  0.00    +0.020 A 
ATOM      2  C   UNL     1       9.233  51.226  71.532  0.00  0.00    +0.013 A 
ATOM      3  C   UNL     1      10.301  51.246  72.524  0.00  0.00    +0.019 A 
ATOM     38  C   UNL     1      10.072  51.974  73.763  0.00  0.00    +0.120 A 
ATOM     39  N   UNL     1       8.860  52.625  73.971  0.00  0.00    -0.263 NA
ATOM     40  C   UNL     1       7.826  52.614  73.023  0.00  0.00    +0.111 A 
ENDBRANCH   4   3
ENDBRANCH  10   9
BRANCH  12  13
ATOM     13  N   UNL     1      16.425  46.515  67.422  0.00  0.00    -0.281 N 
ATOM     14  C   UNL     1      16.700  45.277  67.980  0.00  0.00    +0.248 C 
ATOM     30  O   UNL     1      17.139  45.111  69.108  0.00  0.00    -0.270 OA
ATOM     31  H   UNL     1      16.252  46.524  66.416  0.00  0.00    +0.155 HD
BRANCH  14  15
ATOM     15  C   UNL     1      16.469  44.048  67.162  0.00  0.00    +0.037 A 
ATOM     16  C   UNL     1      15.198  43.826  66.467  0.00  0.00    +0.013 A 
ATOM     17  C   UNL     1      14.995  42.624  65.698  0.00  0.00    +0.005 A 
ATOM     18  C   UNL     1      16.066  41.634  65.620  0.00  0.00    -0.033 A 
ATOM     28  C   UNL     1      17.318  41.882  66.316  0.00  0.00    +0.005 A 
ATOM     29  C   UNL     1      17.521  43.059  67.071  0.00  0.00    +0.013 A 
BRANCH  18  19
ATOM     19  C   UNL     1      15.929  40.313  64.841  0.00  0.00    +0.119 C 
BRANCH  19  20
ATOM     20  N   UNL     1      16.126  40.368  63.361  0.00  0.00    -0.302 NA
ATOM     21  C   UNL     1      17.033  41.530  62.946  0.00  0.00    +0.066 C 
ATOM     22  C   UNL     1      17.246  41.559  61.397  0.00  0.00    -0.064 C 
ATOM     23  N   UNL     1      15.888  41.655  60.700  0.00  0.00    +0.379 N 
ATOM     24  C   UNL     1      16.088  41.741  59.246  0.00  0.00    -0.096 C 
ATOM     25  H   UNL     1      15.404  42.603  61.031  0.00  0.00    -0.082 HD
ATOM     26  C   UNL     1      14.979  40.505  61.110  0.00  0.00    -0.064 C 
ATOM     27  C   UNL     1      14.797  40.467  62.653  0.00  0.00    +0.066 C 
ENDBRANCH  19  20
ENDBRANCH  18  19
ENDBRANCH  14  15
ENDBRANCH  12  13
TORSDOF 6
ENDMDL
MODEL 3
REMARK VINA RESULT:      -8.5      2.500     11.675
REMARK  Name = C:\Users\Docking\Desktop\test protocol\1iep_ligandH.pdb
REMARK  8 active torsions:
REMARK  status: ('A' for Active; 'I' for Inactive)
REMARK    1  A    between atoms: _5  and  _11
REMARK    2  A    between atoms: _19  and  _21
REMARK    3  A    between atoms: _22  and  _66
REMARK    4  A    between atoms: _27  and  _30
REMARK    5  A    between atoms: _32  and  _33
REMARK    6  A    between atoms: _38  and  _43
REMARK    7  A    between atoms: _43  and  _46
REMARK    8  A    between atoms: _53  and  _55
REMARK                            x       y       z     vdW  Elec       q    Type
REMARK                         _______ _______ _______ _____ _____    ______ ____
ROOT
ATOM     10  C   UNL     1       8.730  52.760  74.425  0.00  0.00    +0.038 A 
ATOM     11  C   UNL     1       9.833  52.391  73.613  0.00  0.00    +0.047 A 
ATOM     12  C   UNL     1      10.987  51.707  74.177  0.00  0.00    +0.035 A 
ATOM     32  C   UNL     1      10.982  51.411  75.571  0.00  0.00    +0.024 A 
ATOM     33  C   UNL     1       9.870  51.779  76.411  0.00  0.00    +0.007 A 
ATOM     34  C   UNL     1       8.730  52.457  75.861  0.00  0.00    -0.029 A 
ATOM     35  C   UNL     1       7.569  52.833  76.810  0.00  0.00    +0.045 C 
ENDROOT
BRANCH  10   9
ATOM      4  C   UNL     1       5.895  53.700  70.668  0.00  0.00    +0.077 A 
ATOM      5  C   UNL     1       6.648  52.834  69.807  0.00  0.00    +0.048 A 
ATOM      6  C   UNL     1       7.762  52.170  70.369  0.00  0.00    +0.116 A 
ATOM      7  N   UNL     1       8.089  52.366  71.693  0.00  0.00    -0.223 NA
ATOM      8  C   UNL     1       7.343  53.210  72.495  0.00  0.00    +0.220 A 
ATOM      9  N   UNL     1       7.649  53.415  73.831  0.00  0.00    -0.283 N 
ATOM     36  H   UNL     1       7.078  54.051  74.387  0.00  0.00    +0.155 HD
ATOM     37  N   UNL     1       6.275  53.856  71.982  0.00  0.00    -0.214 NA
BRANCH   4   3
ATOM      1  C   UNL     1       3.378  55.772  68.507  0.00  0.00    +0.020 A 
ATOM      2  C   UNL     1       4.563  55.039  68.887  0.00  0.00    +0.013 A 
ATOM      3  C   UNL     1       4.690  54.469  70.222  0.00  0.00    +0.019 A 
ATOM     38  C   UNL     1       3.591  54.659  71.156  0.00  0.00    +0.120 A 
ATOM     39  N   UNL     1       2.462  55.371  70.763  0.00  0.00    -0.263 NA
ATOM     40  C   UNL     1       2.329  55.926  69.481  0.00  0.00    +0.111 A 
ENDBRANCH   4   3
ENDBRANCH  10   9
BRANCH  12  13
ATOM     13  N   UNL     1      12.139  51.315  73.404  0.00  0.00    -0.281 N 
ATOM     14  C   UNL     1      12.357  50.115  72.747  0.00  0.00    +0.248 C 
ATOM     30  O   UNL     1      11.680  49.109  72.904  0.00  0.00    -0.270 OA
ATOM     31  H   UNL     1      12.886  52.007  73.332  0.00  0.00    +0.155 HD
BRANCH  14  15
ATOM     15  C   UNL     1      13.499  50.012  71.789  0.00  0.00    +0.037 A 
ATOM     16  C   UNL     1      14.837  49.621  72.241  0.00  0.00    +0.013 A 
ATOM     17  C   UNL     1      15.925  49.547  71.299  0.00  0.00    +0.005 A 
ATOM     18  C   UNL     1      15.679  49.863  69.894  0.00  0.00    -0.033 A 
ATOM     28  C   UNL     1      14.341  50.243  69.472  0.00  0.00    +0.005 A 
ATOM     29  C   UNL     1      13.272  50.318  70.393  0.00  0.00    +0.013 A 
BRANCH  18  19
ATOM     19  C   UNL     1      16.786  49.830  68.823  0.00  0.00    +0.119 C 
BRANCH  19  20
ATOM     20  N   UNL     1      17.468  48.523  68.584  0.00  0.00    -0.302 NA
ATOM     21  C   UNL     1      18.576  48.637  67.534  0.00  0.00    +0.066 C 
ATOM     22  C   UNL     1      19.294  47.266  67.313  0.00  0.00    -0.064 C 
ATOM     23  N   UNL     1      18.263  46.215  66.900  0.00  0.00    +0.379 N 
ATOM     24  C   UNL     1      18.943  44.938  66.635  0.00  0.00    -0.096 C 
ATOM     25  H   UNL     1      17.798  46.555  65.945  0.00  0.00    -0.082 HD
ATOM     26  C   UNL     1      17.155  46.097  67.937  0.00  0.00    -0.064 C 
ATOM     27  C   UNL     1      16.468  47.471  68.171  0.00  0.00    +0.066 C 
ENDBRANCH  19  20
ENDBRANCH  18  19
ENDBRANCH  14  15
ENDBRANCH  12  13
TORSDOF 6
ENDMDL
