MODEL 1
REMARK VINA RESULT:      -8.2      0.000      0.000
REMARK  Name = C:\Users\Docking\Desktop\test protocol\1iep_ligandH.pdb
REMARK  8 active torsions:
REMARK  status: ('A' for Active; 'I' for Inactive)
REMARK    1  A    between atoms: _5  and  _11
REMARK    2  A    between atoms: _19  and  _21
REMARK    3  A    between atoms: _22  and  _66
REMARK    4  A    between atoms: _27  and  _30
REMARK    5  A    between atoms: _32  and  _33
REMARK    6  A    between atoms: _38  and  _43
REMARK    7  A    between atoms: _43  and  _46
REMARK    8  A    between atoms: _53  and  _55
REMARK                            x       y       z     vdW  Elec       q    Type
REMARK                         _______ _______ _______ _____ _____    ______ ____
ROOT
ATOM     10  C   UNL     1       4.940  14.172  34.602  0.00  0.00    +0.038 A 
ATOM     11  C   UNL     1       4.725  13.557  35.861  0.00  0.00    +0.047 A 
ATOM     12  C   UNL     1       5.832  13.019  36.636  0.00  0.00    +0.035 A 
ATOM     32  C   UNL     1       7.148  13.127  36.098  0.00  0.00    +0.024 A 
ATOM     33  C   UNL     1       7.385  13.748  34.818  0.00  0.00    +0.007 A 
ATOM     34  C   UNL     1       6.296  14.278  34.049  0.00  0.00    -0.029 A 
ATOM     35  C   UNL     1       6.608  14.927  32.681  0.00  0.00    +0.045 C 
ENDROOT
BRANCH  10   9
ATOM      4  C   UNL     1       1.795  17.652  33.583  0.00  0.00    +0.077 A 
ATOM      5  C   UNL     1       2.376  18.541  34.548  0.00  0.00    +0.048 A 
ATOM      6  C   UNL     1       3.479  18.061  35.291  0.00  0.00    +0.116 A 
ATOM      7  N   UNL     1       3.956  16.786  35.076  0.00  0.00    -0.223 NA
ATOM      8  C   UNL     1       3.372  15.954  34.139  0.00  0.00    +0.220 A 
ATOM      9  N   UNL     1       3.840  14.672  33.901  0.00  0.00    -0.283 N 
ATOM     36  H   UNL     1       3.377  14.086  33.206  0.00  0.00    +0.155 HD
ATOM     37  N   UNL     1       2.317  16.388  33.418  0.00  0.00    -0.214 NA
BRANCH   4   3
ATOM      1  C   UNL     1      -1.645  19.043  32.347  0.00  0.00    +0.020 A 
ATOM      2  C   UNL     1      -0.545  18.716  33.225  0.00  0.00    +0.013 A 
ATOM      3  C   UNL     1       0.628  18.014  32.719  0.00  0.00    +0.019 A 
ATOM     38  C   UNL     1       0.656  17.655  31.309  0.00  0.00    +0.120 A 
ATOM     39  N   UNL     1      -0.419  17.981  30.488  0.00  0.00    -0.263 NA
ATOM     40  C   UNL     1      -1.553  18.655  30.964  0.00  0.00    +0.111 A 
ENDBRANCH   4   3
ENDBRANCH  10   9
BRANCH  12  13
ATOM     13  N   UNL     1       5.673  12.377  37.917  0.00  0.00    -0.281 N 
ATOM     14  C   UNL     1       4.900  11.270  38.224  0.00  0.00    +0.248 C 
ATOM     30  O   UNL     1       4.055  10.789  37.483  0.00  0.00    -0.270 OA
ATOM     31  H   UNL     1       6.194  12.789  38.691  0.00  0.00    +0.155 HD
BRANCH  14  15
ATOM     15  C   UNL     1       5.081  10.609  39.553  0.00  0.00    +0.037 A 
ATOM     16  C   UNL     1       5.961   9.448  39.711  0.00  0.00    +0.013 A 
ATOM     17  C   UNL     1       6.104   8.819  41.000  0.00  0.00    +0.005 A 
ATOM     18  C   UNL     1       5.365   9.351  42.142  0.00  0.00    -0.033 A 
ATOM     28  C   UNL     1       4.503  10.507  41.958  0.00  0.00    +0.005 A 
ATOM     29  C   UNL     1       4.359  11.125  40.696  0.00  0.00    +0.013 A 
BRANCH  18  19
ATOM     19  C   UNL     1       5.441   8.731  43.550  0.00  0.00    +0.119 C 
BRANCH  19  20
ATOM     20  N   UNL     1       6.084   9.547  44.623  0.00  0.00    -0.302 NA
ATOM     21  C   UNL     1       7.422   8.953  45.073  0.00  0.00    +0.066 C 
ATOM     22  C   UNL     1       8.091   9.832  46.180  0.00  0.00    -0.064 C 
ATOM     23  N   UNL     1       7.134   9.969  47.365  0.00  0.00    +0.379 N 
ATOM     24  C   UNL     1       7.782  10.746  48.432  0.00  0.00    -0.096 C 
ATOM     25  H   UNL     1       6.939   8.946  47.762  0.00  0.00    -0.082 HD
ATOM     26  C   UNL     1       5.800  10.556  46.926  0.00  0.00    -0.064 C 
ATOM     27  C   UNL     1       5.157   9.692  45.805  0.00  0.00    +0.066 C 
ENDBRANCH  19  20
ENDBRANCH  18  19
ENDBRANCH  14  15
ENDBRANCH  12  13
TORSDOF 6
ENDMDL
MODEL 2
REMARK VINA RESULT:      -8.2      2.515      4.474
REMARK  Name = C:\Users\Docking\Desktop\test protocol\1iep_ligandH.pdb
REMARK  8 active torsions:
REMARK  status: ('A' for Active; 'I' for Inactive)
REMARK    1  A    between atoms: _5  and  _11
REMARK    2  A    between atoms: _19  and  _21
REMARK    3  A    between atoms: _22  and  _66
REMARK    4  A    between atoms: _27  and  _30
REMARK    5  A    between atoms: _32  and  _33
REMARK    6  A    between atoms: _38  and  _43
REMARK    7  A    between atoms: _43  and  _46
REMARK    8  A    between atoms: _53  and  _55
REMARK                            x       y       z     vdW  Elec       q    Type
REMARK                         _______ _______ _______ _____ _____    ______ ____
ROOT
ATOM     10  C   UNL     1       3.380  15.913  34.894  0.00  0.00    +0.038 A 
ATOM     11  C   UNL     1       3.583  14.728  35.648  0.00  0.00    +0.047 A 
ATOM     12  C   UNL     1       3.375  14.707  37.087  0.00  0.00    +0.035 A 
ATOM     32  C   UNL     1       2.957  15.910  37.727  0.00  0.00    +0.024 A 
ATOM     33  C   UNL     1       2.747  17.124  36.977  0.00  0.00    +0.007 A 
ATOM     34  C   UNL     1       2.953  17.151  35.557  0.00  0.00    -0.029 A 
ATOM     35  C   UNL     1       2.719  18.481  34.804  0.00  0.00    +0.045 C 
ENDROOT
BRANCH  10   9
ATOM      4  C   UNL     1       6.177  15.180  31.063  0.00  0.00    +0.077 A 
ATOM      5  C   UNL     1       7.315  14.871  31.880  0.00  0.00    +0.048 A 
ATOM      6  C   UNL     1       7.141  14.918  33.281  0.00  0.00    +0.116 A 
ATOM      7  N   UNL     1       5.915  15.251  33.815  0.00  0.00    -0.223 NA
ATOM      8  C   UNL     1       4.838  15.546  32.999  0.00  0.00    +0.220 A 
ATOM      9  N   UNL     1       3.594  15.876  33.515  0.00  0.00    -0.283 N 
ATOM     36  H   UNL     1       2.827  16.094  32.879  0.00  0.00    +0.155 HD
ATOM     37  N   UNL     1       4.979  15.509  31.658  0.00  0.00    -0.214 NA
BRANCH   4   3
ATOM      1  C   UNL     1       6.722  14.091  27.346  0.00  0.00    +0.020 A 
ATOM      2  C   UNL     1       6.720  14.051  28.791  0.00  0.00    +0.013 A 
ATOM      3  C   UNL     1       6.202  15.170  29.567  0.00  0.00    +0.019 A 
ATOM     38  C   UNL     1       5.687  16.324  28.845  0.00  0.00    +0.120 A 
ATOM     39  N   UNL     1       5.703  16.335  27.454  0.00  0.00    -0.263 NA
ATOM     40  C   UNL     1       6.201  15.265  26.696  0.00  0.00    +0.111 A 
ENDBRANCH   4   3
ENDBRANCH  10   9
BRANCH  12  13
ATOM     13  N   UNL     1       3.573  13.537  37.906  0.00  0.00    -0.281 N 
ATOM     14  C   UNL     1       4.738  12.809  38.083  0.00  0.00    +0.248 C 
ATOM     30  O   UNL     1       5.740  12.929  37.393  0.00  0.00    -0.270 OA
ATOM     31  H   UNL     1       2.755  13.204  38.417  0.00  0.00    +0.155 HD
BRANCH  14  15
ATOM     15  C   UNL     1       4.794  11.790  39.175  0.00  0.00    +0.037 A 
ATOM     16  C   UNL     1       5.582  10.563  39.030  0.00  0.00    +0.013 A 
ATOM     17  C   UNL     1       5.605   9.588  40.092  0.00  0.00    +0.005 A 
ATOM     18  C   UNL     1       4.838   9.838  41.309  0.00  0.00    -0.033 A 
ATOM     28  C   UNL     1       4.069  11.066  41.429  0.00  0.00    +0.005 A 
ATOM     29  C   UNL     1       4.043  12.023  40.390  0.00  0.00    +0.013 A 
BRANCH  18  19
ATOM     19  C   UNL     1       4.787   8.844  42.485  0.00  0.00    +0.119 C 
BRANCH  19  20
ATOM     20  N   UNL     1       5.272   9.328  43.811  0.00  0.00    -0.302 NA
ATOM     21  C   UNL     1       6.653   8.766  44.159  0.00  0.00    +0.066 C 
ATOM     22  C   UNL     1       7.154   9.301  45.540  0.00  0.00    -0.064 C 
ATOM     23  N   UNL     1       6.135   8.942  46.623  0.00  0.00    +0.379 N 
ATOM     24  C   UNL     1       6.631   9.393  47.932  0.00  0.00    -0.096 C 
ATOM     25  H   UNL     1       6.055   7.831  46.656  0.00  0.00    -0.082 HD
ATOM     26  C   UNL     1       4.758   9.495  46.284  0.00  0.00    -0.064 C 
ATOM     27  C   UNL     1       4.282   8.981  44.897  0.00  0.00    +0.066 C 
ENDBRANCH  19  20
ENDBRANCH  18  19
ENDBRANCH  14  15
ENDBRANCH  12  13
TORSDOF 6
ENDMDL
MODEL 3
REMARK VINA RESULT:      -8.2      3.189      5.440
REMARK  Name = C:\Users\Docking\Desktop\test protocol\1iep_ligandH.pdb
REMARK  8 active torsions:
REMARK  status: ('A' for Active; 'I' for Inactive)
REMARK    1  A    between atoms: _5  and  _11
REMARK    2  A    between atoms: _19  and  _21
REMARK    3  A    between atoms: _22  and  _66
REMARK    4  A    between atoms: _27  and  _30
REMARK    5  A    between atoms: _32  and  _33
REMARK    6  A    between atoms: _38  and  _43
REMARK    7  A    between atoms: _43  and  _46
REMARK    8  A    between atoms: _53  and  _55
REMARK                            x       y       z     vdW  Elec       q    Type
REMARK                         _______ _______ _______ _____ _____    ______ ____
ROOT
ATOM     10  C   UNL     1       3.390  15.877  34.761  0.00  0.00    +0.038 A 
ATOM     11  C   UNL     1       3.607  14.687  35.501  0.00  0.00    +0.047 A 
ATOM     12  C   UNL     1       3.412  14.651  36.942  0.00  0.00    +0.035 A 
ATOM     32  C   UNL     1       2.992  15.846  37.597  0.00  0.00    +0.024 A 
ATOM     33  C   UNL     1       2.767  17.064  36.860  0.00  0.00    +0.007 A 
ATOM     34  C   UNL     1       2.961  17.107  35.439  0.00  0.00    -0.029 A 
ATOM     35  C   UNL     1       2.711  18.443  34.701  0.00  0.00    +0.045 C 
ENDROOT
BRANCH  10   9
ATOM      4  C   UNL     1       6.157  15.192  30.899  0.00  0.00    +0.077 A 
ATOM      5  C   UNL     1       7.303  14.877  31.703  0.00  0.00    +0.048 A 
ATOM      6  C   UNL     1       7.140  14.909  33.106  0.00  0.00    +0.116 A 
ATOM      7  N   UNL     1       5.918  15.234  33.654  0.00  0.00    -0.223 NA
ATOM      8  C   UNL     1       4.833  15.534  32.850  0.00  0.00    +0.220 A 
ATOM      9  N   UNL     1       3.593  15.855  33.379  0.00  0.00    -0.283 N 
ATOM     36  H   UNL     1       2.820  16.078  32.753  0.00  0.00    +0.155 HD
ATOM     37  N   UNL     1       4.963  15.511  31.507  0.00  0.00    -0.214 NA
BRANCH   4   3
ATOM      1  C   UNL     1       6.720  14.164  27.167  0.00  0.00    +0.020 A 
ATOM      2  C   UNL     1       6.734  14.110  28.611  0.00  0.00    +0.013 A 
ATOM      3  C   UNL     1       6.170  15.197  29.402  0.00  0.00    +0.019 A 
ATOM     38  C   UNL     1       5.594  16.332  28.696  0.00  0.00    +0.120 A 
ATOM     39  N   UNL     1       5.597  16.357  27.305  0.00  0.00    -0.263 NA
ATOM     40  C   UNL     1       6.139  15.318  26.533  0.00  0.00    +0.111 A 
ENDBRANCH   4   3
ENDBRANCH  10   9
BRANCH  12  13
ATOM     13  N   UNL     1       3.625  13.474  37.748  0.00  0.00    -0.281 N 
ATOM     14  C   UNL     1       4.820  12.824  38.005  0.00  0.00    +0.248 C 
ATOM     30  O   UNL     1       5.864  13.032  37.405  0.00  0.00    -0.270 OA
ATOM     31  H   UNL     1       2.793  13.072  38.181  0.00  0.00    +0.155 HD
BRANCH  14  15
ATOM     15  C   UNL     1       4.859  11.780  39.075  0.00  0.00    +0.037 A 
ATOM     16  C   UNL     1       5.693  10.583  38.939  0.00  0.00    +0.013 A 
ATOM     17  C   UNL     1       5.698   9.584  39.978  0.00  0.00    +0.005 A 
ATOM     18  C   UNL     1       4.867   9.779  41.163  0.00  0.00    -0.033 A 
ATOM     28  C   UNL     1       4.053  10.978  41.274  0.00  0.00    +0.005 A 
ATOM     29  C   UNL     1       4.044  11.959  40.258  0.00  0.00    +0.013 A 
BRANCH  18  19
ATOM     19  C   UNL     1       4.794   8.754  42.311  0.00  0.00    +0.119 C 
BRANCH  19  20
ATOM     20  N   UNL     1       3.517   7.996  42.471  0.00  0.00    -0.302 NA
ATOM     21  C   UNL     1       3.497   7.172  43.762  0.00  0.00    +0.066 C 
ATOM     22  C   UNL     1       2.145   6.404  43.925  0.00  0.00    -0.064 C 
ATOM     23  N   UNL     1       1.922   5.507  42.706  0.00  0.00    +0.379 N 
ATOM     24  C   UNL     1       0.680   4.739  42.883  0.00  0.00    -0.096 C 
ATOM     25  H   UNL     1       2.766   4.780  42.662  0.00  0.00    -0.082 HD
ATOM     26  C   UNL     1       1.943   6.318  41.418  0.00  0.00    -0.064 C 
ATOM     27  C   UNL     1       3.279   7.101  41.280  0.00  0.00    +0.066 C 
ENDBRANCH  19  20
ENDBRANCH  18  19
ENDBRANCH  14  15
ENDBRANCH  12  13
TORSDOF 6
ENDMDL
