MODEL 1
REMARK VINA RESULT:      -8.3      0.000      0.000
REMARK  Name = C:\Users\Docking\Desktop\test protocol\1iep_ligandH.pdb
REMARK  8 active torsions:
REMARK  status: ('A' for Active; 'I' for Inactive)
REMARK    1  A    between atoms: _5  and  _11
REMARK    2  A    between atoms: _19  and  _21
REMARK    3  A    between atoms: _22  and  _66
REMARK    4  A    between atoms: _27  and  _30
REMARK    5  A    between atoms: _32  and  _33
REMARK    6  A    between atoms: _38  and  _43
REMARK    7  A    between atoms: _43  and  _46
REMARK    8  A    between atoms: _53  and  _55
REMARK                            x       y       z     vdW  Elec       q    Type
REMARK                         _______ _______ _______ _____ _____    ______ ____
ROOT
ATOM     10  C   UNL     1      20.568  -7.147  37.350  0.00  0.00    +0.038 A 
ATOM     11  C   UNL     1      21.612  -7.387  36.420  0.00  0.00    +0.047 A 
ATOM     12  C   UNL     1      22.861  -6.644  36.483  0.00  0.00    +0.035 A 
ATOM     32  C   UNL     1      23.014  -5.666  37.508  0.00  0.00    +0.024 A 
ATOM     33  C   UNL     1      21.963  -5.408  38.461  0.00  0.00    +0.007 A 
ATOM     34  C   UNL     1      20.728  -6.136  38.402  0.00  0.00    -0.029 A 
ATOM     35  C   UNL     1      19.633  -5.814  39.446  0.00  0.00    +0.045 C 
ENDROOT
BRANCH  10   9
ATOM      4  C   UNL     1      16.409  -8.200  35.198  0.00  0.00    +0.077 A 
ATOM      5  C   UNL     1      16.586  -7.166  34.219  0.00  0.00    +0.048 A 
ATOM      6  C   UNL     1      17.757  -6.381  34.309  0.00  0.00    +0.116 A 
ATOM      7  N   UNL     1      18.676  -6.621  35.307  0.00  0.00    -0.223 NA
ATOM      8  C   UNL     1      18.475  -7.625  36.236  0.00  0.00    +0.220 A 
ATOM      9  N   UNL     1      19.390  -7.889  37.243  0.00  0.00    -0.283 N 
ATOM     36  H   UNL     1      19.200  -8.634  37.914  0.00  0.00    +0.155 HD
ATOM     37  N   UNL     1      17.363  -8.388  36.172  0.00  0.00    -0.214 NA
BRANCH   4   3
ATOM      1  C   UNL     1      14.074 -11.303  34.730  0.00  0.00    +0.020 A 
ATOM      2  C   UNL     1      15.245 -10.459  34.669  0.00  0.00    +0.013 A 
ATOM      3  C   UNL     1      15.225  -9.115  35.233  0.00  0.00    +0.019 A 
ATOM     38  C   UNL     1      13.994  -8.653  35.857  0.00  0.00    +0.120 A 
ATOM     39  N   UNL     1      12.882  -9.487  35.900  0.00  0.00    -0.263 NA
ATOM     40  C   UNL     1      12.889 -10.782  35.359  0.00  0.00    +0.111 A 
ENDBRANCH   4   3
ENDBRANCH  10   9
BRANCH  12  13
ATOM     13  N   UNL     1      23.952  -6.838  35.561  0.00  0.00    -0.281 N 
ATOM     14  C   UNL     1      25.143  -7.510  35.781  0.00  0.00    +0.248 C 
ATOM     30  O   UNL     1      25.543  -7.866  36.879  0.00  0.00    -0.270 OA
ATOM     31  H   UNL     1      23.833  -6.430  34.634  0.00  0.00    +0.155 HD
BRANCH  14  15
ATOM     15  C   UNL     1      26.024  -7.820  34.614  0.00  0.00    +0.037 A 
ATOM     16  C   UNL     1      25.501  -8.500  33.426  0.00  0.00    +0.013 A 
ATOM     17  C   UNL     1      26.376  -8.802  32.321  0.00  0.00    +0.005 A 
ATOM     18  C   UNL     1      27.785  -8.421  32.399  0.00  0.00    -0.033 A 
ATOM     28  C   UNL     1      28.276  -7.742  33.586  0.00  0.00    +0.005 A 
ATOM     29  C   UNL     1      27.421  -7.446  34.672  0.00  0.00    +0.013 A 
BRANCH  18  19
ATOM     19  C   UNL     1      28.795  -8.722  31.276  0.00  0.00    +0.119 C 
BRANCH  19  20
ATOM     20  N   UNL     1      29.131 -10.155  31.024  0.00  0.00    -0.302 NA
ATOM     21  C   UNL     1      30.627 -10.358  30.767  0.00  0.00    +0.066 C 
ATOM     22  C   UNL     1      30.964 -11.866  30.528  0.00  0.00    -0.064 C 
ATOM     23  N   UNL     1      30.136 -12.391  29.353  0.00  0.00    +0.379 N 
ATOM     24  C   UNL     1      30.493 -13.792  29.089  0.00  0.00    -0.096 C 
ATOM     25  H   UNL     1      30.413 -11.795  28.452  0.00  0.00    -0.082 HD
ATOM     26  C   UNL     1      28.648 -12.190  29.600  0.00  0.00    -0.064 C 
ATOM     27  C   UNL     1      28.328 -10.693  29.865  0.00  0.00    +0.066 C 
ENDBRANCH  19  20
ENDBRANCH  18  19
ENDBRANCH  14  15
ENDBRANCH  12  13
TORSDOF 6
ENDMDL
MODEL 2
REMARK VINA RESULT:      -8.2     16.074     20.176
REMARK  Name = C:\Users\Docking\Desktop\test protocol\1iep_ligandH.pdb
REMARK  8 active torsions:
REMARK  status: ('A' for Active; 'I' for Inactive)
REMARK    1  A    between atoms: _5  and  _11
REMARK    2  A    between atoms: _19  and  _21
REMARK    3  A    between atoms: _22  and  _66
REMARK    4  A    between atoms: _27  and  _30
REMARK    5  A    between atoms: _32  and  _33
REMARK    6  A    between atoms: _38  and  _43
REMARK    7  A    between atoms: _43  and  _46
REMARK    8  A    between atoms: _53  and  _55
REMARK                            x       y       z     vdW  Elec       q    Type
REMARK                         _______ _______ _______ _____ _____    ______ ____
ROOT
ATOM     10  C   UNL     1       7.177  -0.924  31.986  0.00  0.00    +0.038 A 
ATOM     11  C   UNL     1       7.394  -0.287  30.738  0.00  0.00    +0.047 A 
ATOM     12  C   UNL     1       7.021   1.103  30.528  0.00  0.00    +0.035 A 
ATOM     32  C   UNL     1       6.431   1.816  31.612  0.00  0.00    +0.024 A 
ATOM     33  C   UNL     1       6.202   1.183  32.888  0.00  0.00    +0.007 A 
ATOM     34  C   UNL     1       6.566  -0.189  33.100  0.00  0.00    -0.029 A 
ATOM     35  C   UNL     1       6.291  -0.817  34.486  0.00  0.00    +0.045 C 
ENDROOT
BRANCH  10   9
ATOM      4  C   UNL     1       6.199  -5.623  31.986  0.00  0.00    +0.077 A 
ATOM      5  C   UNL     1       4.813  -5.395  31.695  0.00  0.00    +0.048 A 
ATOM      6  C   UNL     1       4.390  -4.053  31.561  0.00  0.00    +0.116 A 
ATOM      7  N   UNL     1       5.296  -3.025  31.708  0.00  0.00    -0.223 NA
ATOM      8  C   UNL     1       6.625  -3.279  31.989  0.00  0.00    +0.220 A 
ATOM      9  N   UNL     1       7.555  -2.261  32.133  0.00  0.00    -0.283 N 
ATOM     36  H   UNL     1       8.525  -2.490  32.347  0.00  0.00    +0.155 HD
ATOM     37  N   UNL     1       7.053  -4.552  32.123  0.00  0.00    -0.214 NA
BRANCH   4   3
ATOM      1  C   UNL     1       6.936  -9.448  31.624  0.00  0.00    +0.020 A 
ATOM      2  C   UNL     1       6.322  -8.155  31.426  0.00  0.00    +0.013 A 
ATOM      3  C   UNL     1       6.798  -6.985  32.153  0.00  0.00    +0.019 A 
ATOM     38  C   UNL     1       7.907  -7.158  33.080  0.00  0.00    +0.120 A 
ATOM     39  N   UNL     1       8.477  -8.416  33.251  0.00  0.00    -0.263 NA
ATOM     40  C   UNL     1       8.026  -9.549  32.558  0.00  0.00    +0.111 A 
ENDBRANCH   4   3
ENDBRANCH  10   9
BRANCH  12  13
ATOM     13  N   UNL     1       7.209   1.801  29.280  0.00  0.00    -0.281 N 
ATOM     14  C   UNL     1       6.246   2.164  28.353  0.00  0.00    +0.248 C 
ATOM     30  O   UNL     1       5.095   1.754  28.356  0.00  0.00    -0.270 OA
ATOM     31  H   UNL     1       8.170   2.058  29.052  0.00  0.00    +0.155 HD
BRANCH  14  15
ATOM     15  C   UNL     1       6.619   3.109  27.257  0.00  0.00    +0.037 A 
ATOM     16  C   UNL     1       7.985   3.163  26.732  0.00  0.00    +0.013 A 
ATOM     17  C   UNL     1       8.322   4.095  25.686  0.00  0.00    +0.005 A 
ATOM     18  C   UNL     1       7.289   4.982  25.157  0.00  0.00    -0.033 A 
ATOM     28  C   UNL     1       5.940   4.904  25.692  0.00  0.00    +0.005 A 
ATOM     29  C   UNL     1       5.606   3.992  26.719  0.00  0.00    +0.013 A 
BRANCH  18  19
ATOM     19  C   UNL     1       7.563   6.023  24.055  0.00  0.00    +0.119 C 
BRANCH  19  20
ATOM     20  N   UNL     1       8.942   6.591  23.979  0.00  0.00    -0.302 NA
ATOM     21  C   UNL     1       9.319   7.356  25.251  0.00  0.00    +0.066 C 
ATOM     22  C   UNL     1      10.773   7.924  25.164  0.00  0.00    -0.064 C 
ATOM     23  N   UNL     1      10.893   8.825  23.934  0.00  0.00    +0.379 N 
ATOM     24  C   UNL     1      12.242   9.407  23.881  0.00  0.00    -0.096 C 
ATOM     25  H   UNL     1      10.167   9.663  24.058  0.00  0.00    -0.082 HD
ATOM     26  C   UNL     1      10.517   8.073  22.665  0.00  0.00    -0.064 C 
ATOM     27  C   UNL     1       9.081   7.488  22.774  0.00  0.00    +0.066 C 
ENDBRANCH  19  20
ENDBRANCH  18  19
ENDBRANCH  14  15
ENDBRANCH  12  13
TORSDOF 6
ENDMDL
MODEL 3
REMARK VINA RESULT:      -8.2     11.855     18.309
REMARK  Name = C:\Users\Docking\Desktop\test protocol\1iep_ligandH.pdb
REMARK  8 active torsions:
REMARK  status: ('A' for Active; 'I' for Inactive)
REMARK    1  A    between atoms: _5  and  _11
REMARK    2  A    between atoms: _19  and  _21
REMARK    3  A    between atoms: _22  and  _66
REMARK    4  A    between atoms: _27  and  _30
REMARK    5  A    between atoms: _32  and  _33
REMARK    6  A    between atoms: _38  and  _43
REMARK    7  A    between atoms: _43  and  _46
REMARK    8  A    between atoms: _53  and  _55
REMARK                            x       y       z     vdW  Elec       q    Type
REMARK                         _______ _______ _______ _____ _____    ______ ____
ROOT
ATOM     10  C   UNL     1       6.842  -5.653  32.275  0.00  0.00    +0.038 A 
ATOM     11  C   UNL     1       7.005  -4.292  31.913  0.00  0.00    +0.047 A 
ATOM     12  C   UNL     1       5.865  -3.472  31.535  0.00  0.00    +0.035 A 
ATOM     32  C   UNL     1       4.571  -4.071  31.540  0.00  0.00    +0.024 A 
ATOM     33  C   UNL     1       4.387  -5.453  31.904  0.00  0.00    +0.007 A 
ATOM     34  C   UNL     1       5.509  -6.268  32.275  0.00  0.00    -0.029 A 
ATOM     35  C   UNL     1       5.254  -7.746  32.650  0.00  0.00    +0.045 C 
ENDROOT
BRANCH  10   9
ATOM      4  C   UNL     1       9.796  -7.569  35.537  0.00  0.00    +0.077 A 
ATOM      5  C   UNL     1       9.039  -7.026  36.628  0.00  0.00    +0.048 A 
ATOM      6  C   UNL     1       7.900  -6.253  36.307  0.00  0.00    +0.116 A 
ATOM      7  N   UNL     1       7.554  -6.046  34.989  0.00  0.00    -0.223 NA
ATOM      8  C   UNL     1       8.306  -6.583  33.961  0.00  0.00    +0.220 A 
ATOM      9  N   UNL     1       7.972  -6.394  32.629  0.00  0.00    -0.283 N 
ATOM     36  H   UNL     1       8.557  -6.801  31.900  0.00  0.00    +0.155 HD
ATOM     37  N   UNL     1       9.399  -7.324  34.242  0.00  0.00    -0.214 NA
BRANCH   4   3
ATOM      1  C   UNL     1      12.799  -9.981  34.859  0.00  0.00    +0.020 A 
ATOM      2  C   UNL     1      11.614  -9.186  34.634  0.00  0.00    +0.013 A 
ATOM      3  C   UNL     1      11.022  -8.410  35.716  0.00  0.00    +0.019 A 
ATOM     38  C   UNL     1      11.659  -8.459  37.023  0.00  0.00    +0.120 A 
ATOM     39  N   UNL     1      12.799  -9.234  37.210  0.00  0.00    -0.263 NA
ATOM     40  C   UNL     1      13.377  -9.987  36.177  0.00  0.00    +0.111 A 
ENDBRANCH   4   3
ENDBRANCH  10   9
BRANCH  12  13
ATOM     13  N   UNL     1       5.970  -2.086  31.150  0.00  0.00    -0.281 N 
ATOM     14  C   UNL     1       6.571  -1.052  31.848  0.00  0.00    +0.248 C 
ATOM     30  O   UNL     1       6.925  -1.120  33.016  0.00  0.00    -0.270 OA
ATOM     31  H   UNL     1       5.551  -1.838  30.254  0.00  0.00    +0.155 HD
BRANCH  14  15
ATOM     15  C   UNL     1       6.799   0.252  31.153  0.00  0.00    +0.037 A 
ATOM     16  C   UNL     1       6.169   1.486  31.628  0.00  0.00    +0.013 A 
ATOM     17  C   UNL     1       6.392   2.727  30.929  0.00  0.00    +0.005 A 
ATOM     18  C   UNL     1       7.251   2.739  29.748  0.00  0.00    -0.033 A 
ATOM     28  C   UNL     1       7.868   1.501  29.302  0.00  0.00    +0.005 A 
ATOM     29  C   UNL     1       7.651   0.283  29.984  0.00  0.00    +0.013 A 
BRANCH  18  19
ATOM     19  C   UNL     1       7.528   4.013  28.928  0.00  0.00    +0.119 C 
BRANCH  19  20
ATOM     20  N   UNL     1       8.433   3.883  27.747  0.00  0.00    -0.302 NA
ATOM     21  C   UNL     1       9.621   4.846  27.825  0.00  0.00    +0.066 C 
ATOM     22  C   UNL     1      10.569   4.681  26.592  0.00  0.00    -0.064 C 
ATOM     23  N   UNL     1       9.773   4.906  25.306  0.00  0.00    +0.379 N 
ATOM     24  C   UNL     1      10.674   4.808  24.148  0.00  0.00    -0.096 C 
ATOM     25  H   UNL     1       9.371   5.945  25.335  0.00  0.00    -0.082 HD
ATOM     26  C   UNL     1       8.588   3.954  25.222  0.00  0.00    -0.064 C 
ATOM     27  C   UNL     1       7.668   4.106  26.465  0.00  0.00    +0.066 C 
ENDBRANCH  19  20
ENDBRANCH  18  19
ENDBRANCH  14  15
ENDBRANCH  12  13
TORSDOF 6
ENDMDL
