MODEL 1
REMARK VINA RESULT:      -8.2      0.000      0.000
REMARK  Name = C:\Users\Docking\Desktop\test protocol\1iep_ligandH.pdb
REMARK  8 active torsions:
REMARK  status: ('A' for Active; 'I' for Inactive)
REMARK    1  A    between atoms: _5  and  _11
REMARK    2  A    between atoms: _19  and  _21
REMARK    3  A    between atoms: _22  and  _66
REMARK    4  A    between atoms: _27  and  _30
REMARK    5  A    between atoms: _32  and  _33
REMARK    6  A    between atoms: _38  and  _43
REMARK    7  A    between atoms: _43  and  _46
REMARK    8  A    between atoms: _53  and  _55
REMARK                            x       y       z     vdW  Elec       q    Type
REMARK                         _______ _______ _______ _____ _____    ______ ____
ROOT
ATOM     10  C   UNL     1       4.646  69.983  62.362  0.00  0.00    +0.038 A 
ATOM     11  C   UNL     1       5.036  70.927  63.346  0.00  0.00    +0.047 A 
ATOM     12  C   UNL     1       6.182  71.799  63.140  0.00  0.00    +0.035 A 
ATOM     32  C   UNL     1       6.907  71.684  61.918  0.00  0.00    +0.024 A 
ATOM     33  C   UNL     1       6.524  70.730  60.907  0.00  0.00    +0.007 A 
ATOM     34  C   UNL     1       5.396  69.865  61.106  0.00  0.00    -0.029 A 
ATOM     35  C   UNL     1       5.036  68.856  59.991  0.00  0.00    +0.045 C 
ENDROOT
BRANCH  10   9
ATOM      4  C   UNL     1       2.660  65.858  63.804  0.00  0.00    +0.077 A 
ATOM      5  C   UNL     1       3.940  65.261  64.053  0.00  0.00    +0.048 A 
ATOM      6  C   UNL     1       5.085  66.046  63.791  0.00  0.00    +0.116 A 
ATOM      7  N   UNL     1       4.948  67.332  63.315  0.00  0.00    -0.223 NA
ATOM      8  C   UNL     1       3.699  67.877  63.084  0.00  0.00    +0.220 A 
ATOM      9  N   UNL     1       3.537  69.171  62.613  0.00  0.00    -0.283 N 
ATOM     36  H   UNL     1       2.599  69.534  62.448  0.00  0.00    +0.155 HD
ATOM     37  N   UNL     1       2.590  67.147  63.325  0.00  0.00    -0.214 NA
BRANCH   4   3
ATOM      1  C   UNL     1      -1.162  65.098  64.142  0.00  0.00    +0.020 A 
ATOM      2  C   UNL     1       0.067  65.821  63.909  0.00  0.00    +0.013 A 
ATOM      3  C   UNL     1       1.358  65.157  64.035  0.00  0.00    +0.019 A 
ATOM     38  C   UNL     1       1.371  63.748  64.401  0.00  0.00    +0.120 A 
ATOM     39  N   UNL     1       0.172  63.078  64.622  0.00  0.00    -0.263 NA
ATOM     40  C   UNL     1      -1.076  63.707  64.505  0.00  0.00    +0.111 A 
ENDBRANCH   4   3
ENDBRANCH  10   9
BRANCH  12  13
ATOM     13  N   UNL     1       6.631  72.771  64.106  0.00  0.00    -0.281 N 
ATOM     14  C   UNL     1       7.305  72.542  65.295  0.00  0.00    +0.248 C 
ATOM     30  O   UNL     1       7.437  71.443  65.813  0.00  0.00    -0.270 OA
ATOM     31  H   UNL     1       6.426  73.746  63.888  0.00  0.00    +0.155 HD
BRANCH  14  15
ATOM     15  C   UNL     1       7.907  73.702  66.019  0.00  0.00    +0.037 A 
ATOM     16  C   UNL     1       8.567  73.529  67.315  0.00  0.00    +0.013 A 
ATOM     17  C   UNL     1       9.125  74.669  68.000  0.00  0.00    +0.005 A 
ATOM     18  C   UNL     1       9.025  75.992  67.389  0.00  0.00    -0.033 A 
ATOM     28  C   UNL     1       8.368  76.134  66.100  0.00  0.00    +0.005 A 
ATOM     29  C   UNL     1       7.820  75.020  65.425  0.00  0.00    +0.013 A 
BRANCH  18  19
ATOM     19  C   UNL     1       9.572  77.266  68.058  0.00  0.00    +0.119 C 
BRANCH  19  20
ATOM     20  N   UNL     1      11.033  77.302  68.368  0.00  0.00    -0.302 NA
ATOM     21  C   UNL     1      11.448  78.621  69.025  0.00  0.00    +0.066 C 
ATOM     22  C   UNL     1      12.974  78.633  69.363  0.00  0.00    -0.064 C 
ATOM     23  N   UNL     1      13.778  78.389  68.085  0.00  0.00    +0.379 N 
ATOM     24  C   UNL     1      15.215  78.457  68.389  0.00  0.00    -0.096 C 
ATOM     25  H   UNL     1      13.543  79.215  67.374  0.00  0.00    -0.082 HD
ATOM     26  C   UNL     1      13.370  77.080  67.423  0.00  0.00    -0.064 C 
ATOM     27  C   UNL     1      11.846  77.067  67.119  0.00  0.00    +0.066 C 
ENDBRANCH  19  20
ENDBRANCH  18  19
ENDBRANCH  14  15
ENDBRANCH  12  13
TORSDOF 6
ENDMDL
MODEL 2
REMARK VINA RESULT:      -8.0     30.756     33.002
REMARK  Name = C:\Users\Docking\Desktop\test protocol\1iep_ligandH.pdb
REMARK  8 active torsions:
REMARK  status: ('A' for Active; 'I' for Inactive)
REMARK    1  A    between atoms: _5  and  _11
REMARK    2  A    between atoms: _19  and  _21
REMARK    3  A    between atoms: _22  and  _66
REMARK    4  A    between atoms: _27  and  _30
REMARK    5  A    between atoms: _32  and  _33
REMARK    6  A    between atoms: _38  and  _43
REMARK    7  A    between atoms: _43  and  _46
REMARK    8  A    between atoms: _53  and  _55
REMARK                            x       y       z     vdW  Elec       q    Type
REMARK                         _______ _______ _______ _____ _____    ______ ____
ROOT
ATOM     10  C   UNL     1      -4.594  61.460  96.120  0.00  0.00    +0.038 A 
ATOM     11  C   UNL     1      -3.344  61.869  95.589  0.00  0.00    +0.047 A 
ATOM     12  C   UNL     1      -2.093  61.473  96.218  0.00  0.00    +0.035 A 
ATOM     32  C   UNL     1      -2.153  60.657  97.385  0.00  0.00    +0.024 A 
ATOM     33  C   UNL     1      -3.414  60.232  97.938  0.00  0.00    +0.007 A 
ATOM     34  C   UNL     1      -4.651  60.622  97.324  0.00  0.00    -0.029 A 
ATOM     35  C   UNL     1      -5.975  60.143  97.965  0.00  0.00    +0.045 C 
ENDROOT
BRANCH  10   9
ATOM      4  C   UNL     1      -8.333  64.427  95.619  0.00  0.00    +0.077 A 
ATOM      5  C   UNL     1      -7.937  65.213  96.753  0.00  0.00    +0.048 A 
ATOM      6  C   UNL     1      -6.769  64.815  97.441  0.00  0.00    +0.116 A 
ATOM      7  N   UNL     1      -6.058  63.713  97.019  0.00  0.00    -0.223 NA
ATOM      8  C   UNL     1      -6.468  62.976  95.923  0.00  0.00    +0.220 A 
ATOM      9  N   UNL     1      -5.764  61.869  95.476  0.00  0.00    -0.283 N 
ATOM     36  H   UNL     1      -6.103  61.348  94.668  0.00  0.00    +0.155 HD
ATOM     37  N   UNL     1      -7.581  63.335  95.249  0.00  0.00    -0.214 NA
BRANCH   4   3
ATOM      1  C   UNL     1     -11.965  64.392  94.168  0.00  0.00    +0.020 A 
ATOM      2  C   UNL     1     -10.828  64.071  95.000  0.00  0.00    +0.013 A 
ATOM      3  C   UNL     1      -9.542  64.722  94.787  0.00  0.00    +0.019 A 
ATOM     38  C   UNL     1      -9.438  65.702  93.716  0.00  0.00    +0.120 A 
ATOM     39  N   UNL     1     -10.550  65.990  92.930  0.00  0.00    -0.263 NA
ATOM     40  C   UNL     1     -11.792  65.369  93.124  0.00  0.00    +0.111 A 
ENDBRANCH   4   3
ENDBRANCH  10   9
BRANCH  12  13
ATOM     13  N   UNL     1      -0.795  61.865  95.729  0.00  0.00    -0.281 N 
ATOM     14  C   UNL     1       0.150  62.658  96.361  0.00  0.00    +0.248 C 
ATOM     30  O   UNL     1      -0.068  63.329  97.359  0.00  0.00    -0.270 OA
ATOM     31  H   UNL     1      -0.541  61.516  94.805  0.00  0.00    +0.155 HD
BRANCH  14  15
ATOM     15  C   UNL     1       1.531  62.726  95.794  0.00  0.00    +0.037 A 
ATOM     16  C   UNL     1       2.148  64.009  95.448  0.00  0.00    +0.013 A 
ATOM     17  C   UNL     1       3.475  64.045  94.887  0.00  0.00    +0.005 A 
ATOM     18  C   UNL     1       4.196  62.792  94.670  0.00  0.00    -0.033 A 
ATOM     28  C   UNL     1       3.562  61.534  95.028  0.00  0.00    +0.005 A 
ATOM     29  C   UNL     1       2.261  61.495  95.577  0.00  0.00    +0.013 A 
BRANCH  18  19
ATOM     19  C   UNL     1       5.607  62.735  94.057  0.00  0.00    +0.119 C 
BRANCH  19  20
ATOM     20  N   UNL     1       5.704  62.513  92.584  0.00  0.00    -0.302 NA
ATOM     21  C   UNL     1       6.523  61.265  92.243  0.00  0.00    +0.066 C 
ATOM     22  C   UNL     1       6.595  61.036  90.698  0.00  0.00    -0.064 C 
ATOM     23  N   UNL     1       7.193  62.275  90.029  0.00  0.00    +0.379 N 
ATOM     24  C   UNL     1       7.316  62.040  88.583  0.00  0.00    -0.096 C 
ATOM     25  H   UNL     1       8.221  62.416  90.437  0.00  0.00    -0.082 HD
ATOM     26  C   UNL     1       6.387  63.521  90.365  0.00  0.00    -0.064 C 
ATOM     27  C   UNL     1       6.296  63.723  91.903  0.00  0.00    +0.066 C 
ENDBRANCH  19  20
ENDBRANCH  18  19
ENDBRANCH  14  15
ENDBRANCH  12  13
TORSDOF 6
ENDMDL
MODEL 3
REMARK VINA RESULT:      -7.4      7.322     12.886
REMARK  Name = C:\Users\Docking\Desktop\test protocol\1iep_ligandH.pdb
REMARK  8 active torsions:
REMARK  status: ('A' for Active; 'I' for Inactive)
REMARK    1  A    between atoms: _5  and  _11
REMARK    2  A    between atoms: _19  and  _21
REMARK    3  A    between atoms: _22  and  _66
REMARK    4  A    between atoms: _27  and  _30
REMARK    5  A    between atoms: _32  and  _33
REMARK    6  A    between atoms: _38  and  _43
REMARK    7  A    between atoms: _43  and  _46
REMARK    8  A    between atoms: _53  and  _55
REMARK                            x       y       z     vdW  Elec       q    Type
REMARK                         _______ _______ _______ _____ _____    ______ ____
ROOT
ATOM     10  C   UNL     1      -3.679  59.961  61.891  0.00  0.00    +0.038 A 
ATOM     11  C   UNL     1      -2.694  60.943  62.169  0.00  0.00    +0.047 A 
ATOM     12  C   UNL     1      -2.839  62.310  61.692  0.00  0.00    +0.035 A 
ATOM     32  C   UNL     1      -4.002  62.643  60.938  0.00  0.00    +0.024 A 
ATOM     33  C   UNL     1      -5.013  61.657  60.646  0.00  0.00    +0.007 A 
ATOM     34  C   UNL     1      -4.874  60.306  61.111  0.00  0.00    -0.029 A 
ATOM     35  C   UNL     1      -5.985  59.289  60.762  0.00  0.00    +0.045 C 
ENDROOT
BRANCH  10   9
ATOM      4  C   UNL     1      -1.756  55.574  61.592  0.00  0.00    +0.077 A 
ATOM      5  C   UNL     1      -1.095  55.883  60.357  0.00  0.00    +0.048 A 
ATOM      6  C   UNL     1      -1.282  57.180  59.829  0.00  0.00    +0.116 A 
ATOM      7  N   UNL     1      -2.072  58.092  60.494  0.00  0.00    -0.223 NA
ATOM      8  C   UNL     1      -2.696  57.761  61.683  0.00  0.00    +0.220 A 
ATOM      9  N   UNL     1      -3.489  58.664  62.373  0.00  0.00    -0.283 N 
ATOM     36  H   UNL     1      -3.939  58.379  63.243  0.00  0.00    +0.155 HD
ATOM     37  N   UNL     1      -2.535  56.528  62.208  0.00  0.00    -0.214 NA
BRANCH   4   3
ATOM      1  C   UNL     1      -2.661  52.241  63.430  0.00  0.00    +0.020 A 
ATOM      2  C   UNL     1      -2.814  53.520  62.775  0.00  0.00    +0.013 A 
ATOM      3  C   UNL     1      -1.653  54.247  62.279  0.00  0.00    +0.019 A 
ATOM     38  C   UNL     1      -0.340  53.648  62.462  0.00  0.00    +0.120 A 
ATOM     39  N   UNL     1      -0.222  52.416  63.099  0.00  0.00    -0.263 NA
ATOM     40  C   UNL     1      -1.332  51.708  63.581  0.00  0.00    +0.111 A 
ENDBRANCH   4   3
ENDBRANCH  10   9
BRANCH  12  13
ATOM     13  N   UNL     1      -1.868  63.348  61.936  0.00  0.00    -0.281 N 
ATOM     14  C   UNL     1      -1.293  63.709  63.143  0.00  0.00    +0.248 C 
ATOM     30  O   UNL     1      -1.688  63.333  64.237  0.00  0.00    -0.270 OA
ATOM     31  H   UNL     1      -1.569  63.881  61.119  0.00  0.00    +0.155 HD
BRANCH  14  15
ATOM     15  C   UNL     1      -0.118  64.633  63.135  0.00  0.00    +0.037 A 
ATOM     16  C   UNL     1       1.118  64.284  62.430  0.00  0.00    +0.013 A 
ATOM     17  C   UNL     1       2.242  65.186  62.453  0.00  0.00    +0.005 A 
ATOM     18  C   UNL     1       2.134  66.447  63.182  0.00  0.00    -0.033 A 
ATOM     28  C   UNL     1       0.895  66.770  63.869  0.00  0.00    +0.005 A 
ATOM     29  C   UNL     1      -0.209  65.888  63.850  0.00  0.00    +0.013 A 
BRANCH  18  19
ATOM     19  C   UNL     1       3.291  67.460  63.277  0.00  0.00    +0.119 C 
BRANCH  19  20
ATOM     20  N   UNL     1       3.336  68.545  62.252  0.00  0.00    -0.302 NA
ATOM     21  C   UNL     1       3.642  68.002  60.854  0.00  0.00    +0.066 C 
ATOM     22  C   UNL     1       3.663  69.148  59.790  0.00  0.00    -0.064 C 
ATOM     23  N   UNL     1       4.693  70.202  60.200  0.00  0.00    +0.379 N 
ATOM     24  C   UNL     1       4.756  71.251  59.173  0.00  0.00    -0.096 C 
ATOM     25  H   UNL     1       5.690  69.704  60.237  0.00  0.00    -0.082 HD
ATOM     26  C   UNL     1       4.397  70.745  61.591  0.00  0.00    -0.064 C 
ATOM     27  C   UNL     1       4.350  69.595  62.635  0.00  0.00    +0.066 C 
ENDBRANCH  19  20
ENDBRANCH  18  19
ENDBRANCH  14  15
ENDBRANCH  12  13
TORSDOF 6
ENDMDL
