MODEL 1
REMARK VINA RESULT:      -6.2      0.000      0.000
REMARK  Name = C:\Users\Docking\Desktop\test protocol\1iep_ligandH.pdb
REMARK  8 active torsions:
REMARK  status: ('A' for Active; 'I' for Inactive)
REMARK    1  A    between atoms: _5  and  _11
REMARK    2  A    between atoms: _19  and  _21
REMARK    3  A    between atoms: _22  and  _66
REMARK    4  A    between atoms: _27  and  _30
REMARK    5  A    between atoms: _32  and  _33
REMARK    6  A    between atoms: _38  and  _43
REMARK    7  A    between atoms: _43  and  _46
REMARK    8  A    between atoms: _53  and  _55
REMARK                            x       y       z     vdW  Elec       q    Type
REMARK                         _______ _______ _______ _____ _____    ______ ____
ROOT
ATOM     10  C   UNL     1      20.752  10.683  13.925  0.00  0.00    +0.038 A 
ATOM     11  C   UNL     1      19.863  10.695  12.819  0.00  0.00    +0.047 A 
ATOM     12  C   UNL     1      19.750   9.548  11.932  0.00  0.00    +0.035 A 
ATOM     32  C   UNL     1      20.555   8.403  12.202  0.00  0.00    +0.024 A 
ATOM     33  C   UNL     1      21.464   8.374  13.320  0.00  0.00    +0.007 A 
ATOM     34  C   UNL     1      21.582   9.503  14.197  0.00  0.00    -0.029 A 
ATOM     35  C   UNL     1      22.579   9.419  15.377  0.00  0.00    +0.045 C 
ENDROOT
BRANCH  10   9
ATOM      4  C   UNL     1      19.278  13.284  17.680  0.00  0.00    +0.077 A 
ATOM      5  C   UNL     1      18.267  12.325  18.022  0.00  0.00    +0.048 A 
ATOM      6  C   UNL     1      18.155  11.180  17.202  0.00  0.00    +0.116 A 
ATOM      7  N   UNL     1      18.996  11.016  16.123  0.00  0.00    -0.223 NA
ATOM      8  C   UNL     1      19.959  11.960  15.820  0.00  0.00    +0.220 A 
ATOM      9  N   UNL     1      20.821  11.812  14.744  0.00  0.00    -0.283 N 
ATOM     36  H   UNL     1      21.513  12.535  14.549  0.00  0.00    +0.155 HD
ATOM     37  N   UNL     1      20.086  13.064  16.586  0.00  0.00    -0.214 NA
BRANCH   4   3
ATOM      1  C   UNL     1      18.784  16.405  19.984  0.00  0.00    +0.020 A 
ATOM      2  C   UNL     1      18.495  15.190  19.258  0.00  0.00    +0.013 A 
ATOM      3  C   UNL     1      19.523  14.543  18.451  0.00  0.00    +0.019 A 
ATOM     38  C   UNL     1      20.842  15.156  18.401  0.00  0.00    +0.120 A 
ATOM     39  N   UNL     1      21.089  16.327  19.110  0.00  0.00    -0.263 NA
ATOM     40  C   UNL     1      20.108  16.960  19.888  0.00  0.00    +0.111 A 
ENDBRANCH   4   3
ENDBRANCH  10   9
BRANCH  12  13
ATOM     13  N   UNL     1      18.871   9.506  10.790  0.00  0.00    -0.281 N 
ATOM     14  C   UNL     1      17.535   9.140  10.756  0.00  0.00    +0.248 C 
ATOM     30  O   UNL     1      16.947   8.586  11.673  0.00  0.00    -0.270 OA
ATOM     31  H   UNL     1      19.283   9.780   9.898  0.00  0.00    +0.155 HD
BRANCH  14  15
ATOM     15  C   UNL     1      16.742   9.418   9.520  0.00  0.00    +0.037 A 
ATOM     16  C   UNL     1      17.357   9.355   8.192  0.00  0.00    +0.013 A 
ATOM     17  C   UNL     1      16.573   9.644   7.017  0.00  0.00    +0.005 A 
ATOM     18  C   UNL     1      15.163   9.996   7.166  0.00  0.00    -0.033 A 
ATOM     28  C   UNL     1      14.577  10.046   8.495  0.00  0.00    +0.005 A 
ATOM     29  C   UNL     1      15.342   9.765   9.649  0.00  0.00    +0.013 A 
BRANCH  18  19
ATOM     19  C   UNL     1      14.256  10.340   5.970  0.00  0.00    +0.119 C 
BRANCH  19  20
ATOM     20  N   UNL     1      13.830  11.764   5.822  0.00  0.00    -0.302 NA
ATOM     21  C   UNL     1      12.550  11.897   4.993  0.00  0.00    +0.066 C 
ATOM     22  C   UNL     1      12.106  13.391   4.867  0.00  0.00    -0.064 C 
ATOM     23  N   UNL     1      13.241  14.207   4.246  0.00  0.00    +0.379 N 
ATOM     24  C   UNL     1      12.805  15.600   4.073  0.00  0.00    -0.096 C 
ATOM     25  H   UNL     1      13.443  13.788   3.233  0.00  0.00    -0.082 HD
ATOM     26  C   UNL     1      14.518  14.078   5.063  0.00  0.00    -0.064 C 
ATOM     27  C   UNL     1      14.934  12.587   5.207  0.00  0.00    +0.066 C 
ENDBRANCH  19  20
ENDBRANCH  18  19
ENDBRANCH  14  15
ENDBRANCH  12  13
TORSDOF 6
ENDMDL
MODEL 2
REMARK VINA RESULT:      -6.1      1.646      2.379
REMARK  Name = C:\Users\Docking\Desktop\test protocol\1iep_ligandH.pdb
REMARK  8 active torsions:
REMARK  status: ('A' for Active; 'I' for Inactive)
REMARK    1  A    between atoms: _5  and  _11
REMARK    2  A    between atoms: _19  and  _21
REMARK    3  A    between atoms: _22  and  _66
REMARK    4  A    between atoms: _27  and  _30
REMARK    5  A    between atoms: _32  and  _33
REMARK    6  A    between atoms: _38  and  _43
REMARK    7  A    between atoms: _43  and  _46
REMARK    8  A    between atoms: _53  and  _55
REMARK                            x       y       z     vdW  Elec       q    Type
REMARK                         _______ _______ _______ _____ _____    ______ ____
ROOT
ATOM     10  C   UNL     1      19.985  11.690  15.203  0.00  0.00    +0.038 A 
ATOM     11  C   UNL     1      18.979  11.494  14.223  0.00  0.00    +0.047 A 
ATOM     12  C   UNL     1      18.877  10.242  13.489  0.00  0.00    +0.035 A 
ATOM     32  C   UNL     1      19.815   9.210  13.780  0.00  0.00    +0.024 A 
ATOM     33  C   UNL     1      20.845   9.392  14.773  0.00  0.00    +0.007 A 
ATOM     34  C   UNL     1      20.952  10.625  15.498  0.00  0.00    -0.029 A 
ATOM     35  C   UNL     1      22.080  10.768  16.547  0.00  0.00    +0.045 C 
ENDROOT
BRANCH  10   9
ATOM      4  C   UNL     1      19.019  14.478  18.989  0.00  0.00    +0.077 A 
ATOM      5  C   UNL     1      18.329  13.419  19.668  0.00  0.00    +0.048 A 
ATOM      6  C   UNL     1      18.239  12.174  19.005  0.00  0.00    +0.116 A 
ATOM      7  N   UNL     1      18.801  12.012  17.757  0.00  0.00    -0.223 NA
ATOM      8  C   UNL     1      19.458  13.054  17.130  0.00  0.00    +0.220 A 
ATOM      9  N   UNL     1      20.037  12.911  15.878  0.00  0.00    -0.283 N 
ATOM     36  H   UNL     1      20.506  13.707  15.446  0.00  0.00    +0.155 HD
ATOM     37  N   UNL     1      19.556  14.253  17.741  0.00  0.00    -0.214 NA
BRANCH   4   3
ATOM      1  C   UNL     1      20.623  17.819  20.239  0.00  0.00    +0.020 A 
ATOM      2  C   UNL     1      20.503  16.492  19.681  0.00  0.00    +0.013 A 
ATOM      3  C   UNL     1      19.200  15.850  19.560  0.00  0.00    +0.019 A 
ATOM     38  C   UNL     1      18.029  16.583  20.017  0.00  0.00    +0.120 A 
ATOM     39  N   UNL     1      18.176  17.859  20.552  0.00  0.00    -0.263 NA
ATOM     40  C   UNL     1      19.425  18.487  20.675  0.00  0.00    +0.111 A 
ENDBRANCH   4   3
ENDBRANCH  10   9
BRANCH  12  13
ATOM     13  N   UNL     1      17.882   9.989  12.477  0.00  0.00    -0.281 N 
ATOM     14  C   UNL     1      16.539   9.700  12.656  0.00  0.00    +0.248 C 
ATOM     30  O   UNL     1      16.033   9.403  13.729  0.00  0.00    -0.270 OA
ATOM     31  H   UNL     1      18.206  10.028  11.510  0.00  0.00    +0.155 HD
BRANCH  14  15
ATOM     15  C   UNL     1      15.629   9.731  11.471  0.00  0.00    +0.037 A 
ATOM     16  C   UNL     1      14.181   9.886  11.629  0.00  0.00    +0.013 A 
ATOM     17  C   UNL     1      13.323   9.896  10.470  0.00  0.00    +0.005 A 
ATOM     18  C   UNL     1      13.914   9.751   9.142  0.00  0.00    -0.033 A 
ATOM     28  C   UNL     1      15.354   9.604   9.014  0.00  0.00    +0.005 A 
ATOM     29  C   UNL     1      16.197   9.593  10.147  0.00  0.00    +0.013 A 
BRANCH  18  19
ATOM     19  C   UNL     1      13.074   9.729   7.851  0.00  0.00    +0.119 C 
BRANCH  19  20
ATOM     20  N   UNL     1      13.094  10.956   7.001  0.00  0.00    -0.302 NA
ATOM     21  C   UNL     1      14.315  10.997   6.078  0.00  0.00    +0.066 C 
ATOM     22  C   UNL     1      14.308  12.277   5.180  0.00  0.00    -0.064 C 
ATOM     23  N   UNL     1      14.260  13.520   6.070  0.00  0.00    +0.379 N 
ATOM     24  C   UNL     1      14.312  14.726   5.231  0.00  0.00    -0.096 C 
ATOM     25  H   UNL     1      15.173  13.513   6.710  0.00  0.00    -0.082 HD
ATOM     26  C   UNL     1      13.050  13.487   6.993  0.00  0.00    -0.064 C 
ATOM     27  C   UNL     1      13.051  12.197   7.860  0.00  0.00    +0.066 C 
ENDBRANCH  19  20
ENDBRANCH  18  19
ENDBRANCH  14  15
ENDBRANCH  12  13
TORSDOF 6
ENDMDL
MODEL 3
REMARK VINA RESULT:      -5.9      1.583      2.077
REMARK  Name = C:\Users\Docking\Desktop\test protocol\1iep_ligandH.pdb
REMARK  8 active torsions:
REMARK  status: ('A' for Active; 'I' for Inactive)
REMARK    1  A    between atoms: _5  and  _11
REMARK    2  A    between atoms: _19  and  _21
REMARK    3  A    between atoms: _22  and  _66
REMARK    4  A    between atoms: _27  and  _30
REMARK    5  A    between atoms: _32  and  _33
REMARK    6  A    between atoms: _38  and  _43
REMARK    7  A    between atoms: _43  and  _46
REMARK    8  A    between atoms: _53  and  _55
REMARK                            x       y       z     vdW  Elec       q    Type
REMARK                         _______ _______ _______ _____ _____    ______ ____
ROOT
ATOM     10  C   UNL     1      19.981  10.788  15.043  0.00  0.00    +0.038 A 
ATOM     11  C   UNL     1      19.140  10.730  13.902  0.00  0.00    +0.047 A 
ATOM     12  C   UNL     1      19.679  10.426  12.586  0.00  0.00    +0.035 A 
ATOM     32  C   UNL     1      21.078  10.182  12.468  0.00  0.00    +0.024 A 
ATOM     33  C   UNL     1      21.947  10.238  13.617  0.00  0.00    +0.007 A 
ATOM     34  C   UNL     1      21.422  10.541  14.918  0.00  0.00    -0.029 A 
ATOM     35  C   UNL     1      22.402  10.594  16.113  0.00  0.00    +0.045 C 
ENDROOT
BRANCH  10   9
ATOM      4  C   UNL     1      19.061  13.797  18.668  0.00  0.00    +0.077 A 
ATOM      5  C   UNL     1      19.802  14.860  18.052  0.00  0.00    +0.048 A 
ATOM      6  C   UNL     1      20.411  14.589  16.806  0.00  0.00    +0.116 A 
ATOM      7  N   UNL     1      20.281  13.344  16.228  0.00  0.00    -0.223 NA
ATOM      8  C   UNL     1      19.561  12.341  16.850  0.00  0.00    +0.220 A 
ATOM      9  N   UNL     1      19.411  11.085  16.283  0.00  0.00    -0.283 N 
ATOM     36  H   UNL     1      18.878  10.369  16.777  0.00  0.00    +0.155 HD
ATOM     37  N   UNL     1      18.971  12.574  18.041  0.00  0.00    -0.214 NA
BRANCH   4   3
ATOM      1  C   UNL     1      17.360  12.969  22.091  0.00  0.00    +0.020 A 
ATOM      2  C   UNL     1      18.039  12.787  20.830  0.00  0.00    +0.013 A 
ATOM      3  C   UNL     1      18.359  13.930  19.983  0.00  0.00    +0.019 A 
ATOM     38  C   UNL     1      17.975  15.254  20.447  0.00  0.00    +0.120 A 
ATOM     39  N   UNL     1      17.320  15.399  21.666  0.00  0.00    -0.263 NA
ATOM     40  C   UNL     1      17.005  14.307  22.488  0.00  0.00    +0.111 A 
ENDBRANCH   4   3
ENDBRANCH  10   9
BRANCH  12  13
ATOM     13  N   UNL     1      18.876  10.361  11.390  0.00  0.00    -0.281 N 
ATOM     14  C   UNL     1      18.385   9.233  10.754  0.00  0.00    +0.248 C 
ATOM     30  O   UNL     1      18.743   8.090  10.999  0.00  0.00    -0.270 OA
ATOM     31  H   UNL     1      18.640  11.256  10.960  0.00  0.00    +0.155 HD
BRANCH  14  15
ATOM     15  C   UNL     1      17.358   9.398   9.680  0.00  0.00    +0.037 A 
ATOM     16  C   UNL     1      17.693   9.190   8.269  0.00  0.00    +0.013 A 
ATOM     17  C   UNL     1      16.688   9.373   7.252  0.00  0.00    +0.005 A 
ATOM     18  C   UNL     1      15.336   9.765   7.644  0.00  0.00    -0.033 A 
ATOM     28  C   UNL     1      15.030   9.960   9.051  0.00  0.00    +0.005 A 
ATOM     29  C   UNL     1      16.013   9.783  10.051  0.00  0.00    +0.013 A 
BRANCH  18  19
ATOM     19  C   UNL     1      14.206  10.003   6.625  0.00  0.00    +0.119 C 
BRANCH  19  20
ATOM     20  N   UNL     1      13.839  11.420   6.330  0.00  0.00    -0.302 NA
ATOM     21  C   UNL     1      12.395  11.549   5.835  0.00  0.00    +0.066 C 
ATOM     22  C   UNL     1      12.021  13.040   5.553  0.00  0.00    -0.064 C 
ATOM     23  N   UNL     1      12.998  13.623   4.530  0.00  0.00    +0.379 N 
ATOM     24  C   UNL     1      12.613  15.008   4.219  0.00  0.00    -0.096 C 
ATOM     25  H   UNL     1      12.902  13.027   3.593  0.00  0.00    -0.082 HD
ATOM     26  C   UNL     1      14.436  13.497   5.013  0.00  0.00    -0.064 C 
ATOM     27  C   UNL     1      14.788  12.015   5.319  0.00  0.00    +0.066 C 
ENDBRANCH  19  20
ENDBRANCH  18  19
ENDBRANCH  14  15
ENDBRANCH  12  13
TORSDOF 6
ENDMDL
