MODEL 1
REMARK VINA RESULT:      -6.2      0.000      0.000
REMARK  Name = C:\Users\Docking\Desktop\test protocol\1iep_ligandH.pdb
REMARK  8 active torsions:
REMARK  status: ('A' for Active; 'I' for Inactive)
REMARK    1  A    between atoms: _5  and  _11
REMARK    2  A    between atoms: _19  and  _21
REMARK    3  A    between atoms: _22  and  _66
REMARK    4  A    between atoms: _27  and  _30
REMARK    5  A    between atoms: _32  and  _33
REMARK    6  A    between atoms: _38  and  _43
REMARK    7  A    between atoms: _43  and  _46
REMARK    8  A    between atoms: _53  and  _55
REMARK                            x       y       z     vdW  Elec       q    Type
REMARK                         _______ _______ _______ _____ _____    ______ ____
ROOT
ATOM     10  C   UNL     1      20.642  10.353  13.699  0.00  0.00    +0.038 A 
ATOM     11  C   UNL     1      19.776  10.441  12.579  0.00  0.00    +0.047 A 
ATOM     12  C   UNL     1      19.571   9.305  11.695  0.00  0.00    +0.035 A 
ATOM     32  C   UNL     1      20.262   8.091  11.983  0.00  0.00    +0.024 A 
ATOM     33  C   UNL     1      21.147   7.985  13.117  0.00  0.00    +0.007 A 
ATOM     34  C   UNL     1      21.355   9.103  13.991  0.00  0.00    -0.029 A 
ATOM     35  C   UNL     1      22.319   8.934  15.188  0.00  0.00    +0.045 C 
ENDROOT
BRANCH  10   9
ATOM      4  C   UNL     1      19.337  13.115  17.401  0.00  0.00    +0.077 A 
ATOM      5  C   UNL     1      18.228  12.264  17.722  0.00  0.00    +0.048 A 
ATOM      6  C   UNL     1      18.023  11.130  16.905  0.00  0.00    +0.116 A 
ATOM      7  N   UNL     1      18.871  10.875  15.849  0.00  0.00    -0.223 NA
ATOM      8  C   UNL     1      19.931  11.717  15.566  0.00  0.00    +0.220 A 
ATOM      9  N   UNL     1      20.801  11.476  14.515  0.00  0.00    -0.283 N 
ATOM     36  H   UNL     1      21.567  12.125  14.335  0.00  0.00    +0.155 HD
ATOM     37  N   UNL     1      20.147  12.808  16.331  0.00  0.00    -0.214 NA
BRANCH   4   3
ATOM      1  C   UNL     1      19.161  16.163  19.847  0.00  0.00    +0.020 A 
ATOM      2  C   UNL     1      18.776  14.971  19.127  0.00  0.00    +0.013 A 
ATOM      3  C   UNL     1      19.686  14.350  18.173  0.00  0.00    +0.019 A 
ATOM     38  C   UNL     1      20.989  14.963  17.970  0.00  0.00    +0.120 A 
ATOM     39  N   UNL     1      21.333  16.112  18.677  0.00  0.00    -0.263 NA
ATOM     40  C   UNL     1      20.464  16.720  19.596  0.00  0.00    +0.111 A 
ENDBRANCH   4   3
ENDBRANCH  10   9
BRANCH  12  13
ATOM     13  N   UNL     1      18.711   9.337  10.538  0.00  0.00    -0.281 N 
ATOM     14  C   UNL     1      17.418   8.855  10.424  0.00  0.00    +0.248 C 
ATOM     30  O   UNL     1      16.878   8.126  11.243  0.00  0.00    -0.270 OA
ATOM     31  H   UNL     1      19.104   9.769   9.701  0.00  0.00    +0.155 HD
BRANCH  14  15
ATOM     15  C   UNL     1      16.613   9.223   9.220  0.00  0.00    +0.037 A 
ATOM     16  C   UNL     1      17.209   9.235   7.882  0.00  0.00    +0.013 A 
ATOM     17  C   UNL     1      16.414   9.611   6.740  0.00  0.00    +0.005 A 
ATOM     18  C   UNL     1      15.013   9.977   6.931  0.00  0.00    -0.033 A 
ATOM     28  C   UNL     1      14.446   9.952   8.269  0.00  0.00    +0.005 A 
ATOM     29  C   UNL     1      15.222   9.585   9.391  0.00  0.00    +0.013 A 
BRANCH  18  19
ATOM     19  C   UNL     1      14.096  10.412   5.772  0.00  0.00    +0.119 C 
BRANCH  19  20
ATOM     20  N   UNL     1      13.735  11.859   5.692  0.00  0.00    -0.302 NA
ATOM     21  C   UNL     1      12.461  12.088   4.875  0.00  0.00    +0.066 C 
ATOM     22  C   UNL     1      12.085  13.605   4.819  0.00  0.00    -0.064 C 
ATOM     23  N   UNL     1      13.255  14.396   4.232  0.00  0.00    +0.379 N 
ATOM     24  C   UNL     1      12.884  15.814   4.125  0.00  0.00    -0.096 C 
ATOM     25  H   UNL     1      13.437  14.015   3.200  0.00  0.00    -0.082 HD
ATOM     26  C   UNL     1      14.528  14.171   5.037  0.00  0.00    -0.064 C 
ATOM     27  C   UNL     1      14.875  12.658   5.110  0.00  0.00    +0.066 C 
ENDBRANCH  19  20
ENDBRANCH  18  19
ENDBRANCH  14  15
ENDBRANCH  12  13
TORSDOF 6
ENDMDL
MODEL 2
REMARK VINA RESULT:      -6.1      1.787      2.590
REMARK  Name = C:\Users\Docking\Desktop\test protocol\1iep_ligandH.pdb
REMARK  8 active torsions:
REMARK  status: ('A' for Active; 'I' for Inactive)
REMARK    1  A    between atoms: _5  and  _11
REMARK    2  A    between atoms: _19  and  _21
REMARK    3  A    between atoms: _22  and  _66
REMARK    4  A    between atoms: _27  and  _30
REMARK    5  A    between atoms: _32  and  _33
REMARK    6  A    between atoms: _38  and  _43
REMARK    7  A    between atoms: _43  and  _46
REMARK    8  A    between atoms: _53  and  _55
REMARK                            x       y       z     vdW  Elec       q    Type
REMARK                         _______ _______ _______ _____ _____    ______ ____
ROOT
ATOM     10  C   UNL     1      19.769  11.547  15.231  0.00  0.00    +0.038 A 
ATOM     11  C   UNL     1      18.784  11.397  14.222  0.00  0.00    +0.047 A 
ATOM     12  C   UNL     1      18.628  10.142  13.503  0.00  0.00    +0.035 A 
ATOM     32  C   UNL     1      19.492   9.059  13.839  0.00  0.00    +0.024 A 
ATOM     33  C   UNL     1      20.500   9.194  14.860  0.00  0.00    +0.007 A 
ATOM     34  C   UNL     1      20.660  10.431  15.571  0.00  0.00    -0.029 A 
ATOM     35  C   UNL     1      21.762  10.521  16.653  0.00  0.00    +0.045 C 
ENDROOT
BRANCH  10   9
ATOM      4  C   UNL     1      18.963  14.413  18.995  0.00  0.00    +0.077 A 
ATOM      5  C   UNL     1      18.248  13.387  19.698  0.00  0.00    +0.048 A 
ATOM      6  C   UNL     1      18.103  12.138  19.053  0.00  0.00    +0.116 A 
ATOM      7  N   UNL     1      18.639  11.941  17.799  0.00  0.00    -0.223 NA
ATOM      8  C   UNL     1      19.321  12.952  17.148  0.00  0.00    +0.220 A 
ATOM      9  N   UNL     1      19.875  12.774  15.889  0.00  0.00    -0.283 N 
ATOM     36  H   UNL     1      20.365  13.547  15.440  0.00  0.00    +0.155 HD
ATOM     37  N   UNL     1      19.472  14.154  17.742  0.00  0.00    -0.214 NA
BRANCH   4   3
ATOM      1  C   UNL     1      20.706  17.703  20.195  0.00  0.00    +0.020 A 
ATOM      2  C   UNL     1      20.530  16.374  19.656  0.00  0.00    +0.013 A 
ATOM      3  C   UNL     1      19.202  15.784  19.546  0.00  0.00    +0.019 A 
ATOM     38  C   UNL     1      18.063  16.572  19.994  0.00  0.00    +0.120 A 
ATOM     39  N   UNL     1      18.263  17.848  20.511  0.00  0.00    -0.263 NA
ATOM     40  C   UNL     1      19.537  18.426  20.622  0.00  0.00    +0.111 A 
ENDBRANCH   4   3
ENDBRANCH  10   9
BRANCH  12  13
ATOM     13  N   UNL     1      17.651   9.933  12.464  0.00  0.00    -0.281 N 
ATOM     14  C   UNL     1      16.326   9.552  12.604  0.00  0.00    +0.248 C 
ATOM     30  O   UNL     1      15.836   9.123  13.638  0.00  0.00    -0.270 OA
ATOM     31  H   UNL     1      17.974  10.085  11.508  0.00  0.00    +0.155 HD
BRANCH  14  15
ATOM     15  C   UNL     1      15.418   9.647  11.421  0.00  0.00    +0.037 A 
ATOM     16  C   UNL     1      13.987   9.919  11.581  0.00  0.00    +0.013 A 
ATOM     17  C   UNL     1      13.130   9.989  10.424  0.00  0.00    +0.005 A 
ATOM     18  C   UNL     1      13.703   9.788   9.095  0.00  0.00    -0.033 A 
ATOM     28  C   UNL     1      15.127   9.525   8.965  0.00  0.00    +0.005 A 
ATOM     29  C   UNL     1      15.970   9.454  10.097  0.00  0.00    +0.013 A 
BRANCH  18  19
ATOM     19  C   UNL     1      12.860   9.824   7.807  0.00  0.00    +0.119 C 
BRANCH  19  20
ATOM     20  N   UNL     1      12.937  11.061   6.974  0.00  0.00    -0.302 NA
ATOM     21  C   UNL     1      14.147  11.049   6.036  0.00  0.00    +0.066 C 
ATOM     22  C   UNL     1      14.199  12.340   5.157  0.00  0.00    -0.064 C 
ATOM     23  N   UNL     1      14.230  13.571   6.064  0.00  0.00    +0.379 N 
ATOM     24  C   UNL     1      14.337  14.784   5.241  0.00  0.00    -0.096 C 
ATOM     25  H   UNL     1      15.149  13.505   6.692  0.00  0.00    -0.082 HD
ATOM     26  C   UNL     1      13.031  13.590   7.002  0.00  0.00    -0.064 C 
ATOM     27  C   UNL     1      12.972  12.289   7.850  0.00  0.00    +0.066 C 
ENDBRANCH  19  20
ENDBRANCH  18  19
ENDBRANCH  14  15
ENDBRANCH  12  13
TORSDOF 6
ENDMDL
MODEL 3
REMARK VINA RESULT:      -6.0      1.696      2.234
REMARK  Name = C:\Users\Docking\Desktop\test protocol\1iep_ligandH.pdb
REMARK  8 active torsions:
REMARK  status: ('A' for Active; 'I' for Inactive)
REMARK    1  A    between atoms: _5  and  _11
REMARK    2  A    between atoms: _19  and  _21
REMARK    3  A    between atoms: _22  and  _66
REMARK    4  A    between atoms: _27  and  _30
REMARK    5  A    between atoms: _32  and  _33
REMARK    6  A    between atoms: _38  and  _43
REMARK    7  A    between atoms: _43  and  _46
REMARK    8  A    between atoms: _53  and  _55
REMARK                            x       y       z     vdW  Elec       q    Type
REMARK                         _______ _______ _______ _____ _____    ______ ____
ROOT
ATOM     10  C   UNL     1      19.841  10.546  14.753  0.00  0.00    +0.038 A 
ATOM     11  C   UNL     1      19.004  10.510  13.608  0.00  0.00    +0.047 A 
ATOM     12  C   UNL     1      19.556  10.306  12.278  0.00  0.00    +0.035 A 
ATOM     32  C   UNL     1      20.966  10.138  12.150  0.00  0.00    +0.024 A 
ATOM     33  C   UNL     1      21.832  10.173  13.302  0.00  0.00    +0.007 A 
ATOM     34  C   UNL     1      21.293  10.377  14.617  0.00  0.00    -0.029 A 
ATOM     35  C   UNL     1      22.269  10.411  15.816  0.00  0.00    +0.045 C 
ENDROOT
BRANCH  10   9
ATOM      4  C   UNL     1      18.838  13.280  18.568  0.00  0.00    +0.077 A 
ATOM      5  C   UNL     1      19.560  14.398  18.031  0.00  0.00    +0.048 A 
ATOM      6  C   UNL     1      20.181  14.225  16.773  0.00  0.00    +0.116 A 
ATOM      7  N   UNL     1      20.081  13.021  16.111  0.00  0.00    -0.223 NA
ATOM      8  C   UNL     1      19.378  11.963  16.658  0.00  0.00    +0.220 A 
ATOM      9  N   UNL     1      19.258  10.745  16.006  0.00  0.00    -0.283 N 
ATOM     36  H   UNL     1      18.737   9.987  16.446  0.00  0.00    +0.155 HD
ATOM     37  N   UNL     1      18.777  12.102  17.858  0.00  0.00    -0.214 NA
BRANCH   4   3
ATOM      1  C   UNL     1      16.667  12.267  21.660  0.00  0.00    +0.020 A 
ATOM      2  C   UNL     1      17.336  12.189  20.381  0.00  0.00    +0.013 A 
ATOM      3  C   UNL     1      18.125  13.308  19.884  0.00  0.00    +0.019 A 
ATOM     38  C   UNL     1      18.220  14.501  20.712  0.00  0.00    +0.120 A 
ATOM     39  N   UNL     1      17.564  14.548  21.938  0.00  0.00    -0.263 NA
ATOM     40  C   UNL     1      16.800  13.478  22.426  0.00  0.00    +0.111 A 
ENDBRANCH   4   3
ENDBRANCH  10   9
BRANCH  12  13
ATOM     13  N   UNL     1      18.756  10.268  11.079  0.00  0.00    -0.281 N 
ATOM     14  C   UNL     1      18.168   9.165  10.482  0.00  0.00    +0.248 C 
ATOM     30  O   UNL     1      18.419   8.005  10.773  0.00  0.00    -0.270 OA
ATOM     31  H   UNL     1      18.606  11.163  10.614  0.00  0.00    +0.155 HD
BRANCH  14  15
ATOM     15  C   UNL     1      17.166   9.382   9.394  0.00  0.00    +0.037 A 
ATOM     16  C   UNL     1      17.538   9.260   7.983  0.00  0.00    +0.013 A 
ATOM     17  C   UNL     1      16.556   9.490   6.953  0.00  0.00    +0.005 A 
ATOM     18  C   UNL     1      15.190   9.845   7.332  0.00  0.00    -0.033 A 
ATOM     28  C   UNL     1      14.847   9.954   8.740  0.00  0.00    +0.005 A 
ATOM     29  C   UNL     1      15.807   9.729   9.752  0.00  0.00    +0.013 A 
BRANCH  18  19
ATOM     19  C   UNL     1      14.083  10.129   6.301  0.00  0.00    +0.119 C 
BRANCH  19  20
ATOM     20  N   UNL     1      13.716  11.558   6.067  0.00  0.00    -0.302 NA
ATOM     21  C   UNL     1      12.376  11.696   5.340  0.00  0.00    +0.066 C 
ATOM     22  C   UNL     1      11.997  13.197   5.124  0.00  0.00    -0.064 C 
ATOM     23  N   UNL     1      13.112  13.895   4.343  0.00  0.00    +0.379 N 
ATOM     24  C   UNL     1      12.733  15.292   4.088  0.00  0.00    -0.096 C 
ATOM     25  H   UNL     1      13.204  13.384   3.356  0.00  0.00    -0.082 HD
ATOM     26  C   UNL     1      14.449  13.760   5.058  0.00  0.00    -0.064 C 
ATOM     27  C   UNL     1      14.802  12.265   5.294  0.00  0.00    +0.066 C 
ENDBRANCH  19  20
ENDBRANCH  18  19
ENDBRANCH  14  15
ENDBRANCH  12  13
TORSDOF 6
ENDMDL
