MODEL 1
REMARK VINA RESULT:      -8.2      0.000      0.000
REMARK  Name = C:\Users\Docking\Desktop\test protocol\1iep_ligandH.pdb
REMARK  8 active torsions:
REMARK  status: ('A' for Active; 'I' for Inactive)
REMARK    1  A    between atoms: _5  and  _11
REMARK    2  A    between atoms: _19  and  _21
REMARK    3  A    between atoms: _22  and  _66
REMARK    4  A    between atoms: _27  and  _30
REMARK    5  A    between atoms: _32  and  _33
REMARK    6  A    between atoms: _38  and  _43
REMARK    7  A    between atoms: _43  and  _46
REMARK    8  A    between atoms: _53  and  _55
REMARK                            x       y       z     vdW  Elec       q    Type
REMARK                         _______ _______ _______ _____ _____    ______ ____
ROOT
ATOM     10  C   UNL     1      18.114  19.938   4.535  0.00  0.00    +0.038 A 
ATOM     11  C   UNL     1      18.022  19.969   5.950  0.00  0.00    +0.047 A 
ATOM     12  C   UNL     1      17.534  18.821   6.697  0.00  0.00    +0.035 A 
ATOM     32  C   UNL     1      17.150  17.656   5.972  0.00  0.00    +0.024 A 
ATOM     33  C   UNL     1      17.236  17.607   4.534  0.00  0.00    +0.007 A 
ATOM     34  C   UNL     1      17.715  18.738   3.790  0.00  0.00    -0.029 A 
ATOM     35  C   UNL     1      17.780  18.632   2.249  0.00  0.00    +0.045 C 
ENDROOT
BRANCH  10   9
ATOM      4  C   UNL     1      17.453  24.193   2.414  0.00  0.00    +0.077 A 
ATOM      5  C   UNL     1      16.036  24.146   2.629  0.00  0.00    +0.048 A 
ATOM      6  C   UNL     1      15.516  23.007   3.284  0.00  0.00    +0.116 A 
ATOM      7  N   UNL     1      16.360  21.995   3.688  0.00  0.00    -0.223 NA
ATOM      8  C   UNL     1      17.722  22.071   3.462  0.00  0.00    +0.220 A 
ATOM      9  N   UNL     1      18.591  21.069   3.867  0.00  0.00    -0.283 N 
ATOM     36  H   UNL     1      19.588  21.159   3.676  0.00  0.00    +0.155 HD
ATOM     37  N   UNL     1      18.243  23.148   2.839  0.00  0.00    -0.214 NA
BRANCH   4   3
ATOM      1  C   UNL     1      19.752  27.283   1.730  0.00  0.00    +0.020 A 
ATOM      2  C   UNL     1      19.103  26.197   2.427  0.00  0.00    +0.013 A 
ATOM      3  C   UNL     1      18.153  25.332   1.739  0.00  0.00    +0.019 A 
ATOM     38  C   UNL     1      17.881  25.594   0.334  0.00  0.00    +0.120 A 
ATOM     39  N   UNL     1      18.520  26.648  -0.311  0.00  0.00    -0.263 NA
ATOM     40  C   UNL     1      19.434  27.488   0.341  0.00  0.00    +0.111 A 
ENDBRANCH   4   3
ENDBRANCH  10   9
BRANCH  12  13
ATOM     13  N   UNL     1      17.411  18.798   8.134  0.00  0.00    -0.281 N 
ATOM     14  C   UNL     1      16.862  19.767   8.958  0.00  0.00    +0.248 C 
ATOM     30  O   UNL     1      16.585  20.902   8.600  0.00  0.00    -0.270 OA
ATOM     31  H   UNL     1      17.772  17.966   8.600  0.00  0.00    +0.155 HD
BRANCH  14  15
ATOM     15  C   UNL     1      16.596  19.431  10.390  0.00  0.00    +0.037 A 
ATOM     16  C   UNL     1      16.241  20.469  11.360  0.00  0.00    +0.013 A 
ATOM     17  C   UNL     1      16.006  20.121  12.739  0.00  0.00    +0.005 A 
ATOM     18  C   UNL     1      16.124  18.725  13.155  0.00  0.00    -0.033 A 
ATOM     28  C   UNL     1      16.473  17.715  12.170  0.00  0.00    +0.005 A 
ATOM     29  C   UNL     1      16.705  18.053  10.818  0.00  0.00    +0.013 A 
BRANCH  18  19
ATOM     19  C   UNL     1      15.912  18.265  14.609  0.00  0.00    +0.119 C 
BRANCH  19  20
ATOM     20  N   UNL     1      16.580  19.060  15.682  0.00  0.00    -0.302 NA
ATOM     21  C   UNL     1      18.106  18.942  15.619  0.00  0.00    +0.066 C 
ATOM     22  C   UNL     1      18.790  19.798  16.735  0.00  0.00    -0.064 C 
ATOM     23  N   UNL     1      18.269  19.356  18.103  0.00  0.00    +0.379 N 
ATOM     24  C   UNL     1      18.953  20.119  19.158  0.00  0.00    -0.096 C 
ATOM     25  H   UNL     1      18.535  18.282  18.236  0.00  0.00    -0.082 HD
ATOM     26  C   UNL     1      16.752  19.468  18.174  0.00  0.00    -0.064 C 
ATOM     27  C   UNL     1      16.084  18.637  17.043  0.00  0.00    +0.066 C 
ENDBRANCH  19  20
ENDBRANCH  18  19
ENDBRANCH  14  15
ENDBRANCH  12  13
TORSDOF 6
ENDMDL
MODEL 2
REMARK VINA RESULT:      -8.1      2.216     12.572
REMARK  Name = C:\Users\Docking\Desktop\test protocol\1iep_ligandH.pdb
REMARK  8 active torsions:
REMARK  status: ('A' for Active; 'I' for Inactive)
REMARK    1  A    between atoms: _5  and  _11
REMARK    2  A    between atoms: _19  and  _21
REMARK    3  A    between atoms: _22  and  _66
REMARK    4  A    between atoms: _27  and  _30
REMARK    5  A    between atoms: _32  and  _33
REMARK    6  A    between atoms: _38  and  _43
REMARK    7  A    between atoms: _43  and  _46
REMARK    8  A    between atoms: _53  and  _55
REMARK                            x       y       z     vdW  Elec       q    Type
REMARK                         _______ _______ _______ _____ _____    ______ ____
ROOT
ATOM     10  C   UNL     1      17.120  18.338   9.148  0.00  0.00    +0.038 A 
ATOM     11  C   UNL     1      16.929  19.389   8.215  0.00  0.00    +0.047 A 
ATOM     12  C   UNL     1      17.653  19.415   6.953  0.00  0.00    +0.035 A 
ATOM     32  C   UNL     1      18.562  18.354   6.674  0.00  0.00    +0.024 A 
ATOM     33  C   UNL     1      18.770  17.279   7.612  0.00  0.00    +0.007 A 
ATOM     34  C   UNL     1      18.060  17.249   8.859  0.00  0.00    -0.029 A 
ATOM     35  C   UNL     1      18.327  16.075   9.830  0.00  0.00    +0.045 C 
ENDROOT
BRANCH  10   9
ATOM      4  C   UNL     1      16.725  19.300  13.834  0.00  0.00    +0.077 A 
ATOM      5  C   UNL     1      18.079  19.767  13.913  0.00  0.00    +0.048 A 
ATOM      6  C   UNL     1      18.846  19.737  12.726  0.00  0.00    +0.116 A 
ATOM      7  N   UNL     1      18.290  19.272  11.554  0.00  0.00    -0.223 NA
ATOM      8  C   UNL     1      16.981  18.827  11.513  0.00  0.00    +0.220 A 
ATOM      9  N   UNL     1      16.399  18.363  10.344  0.00  0.00    -0.283 N 
ATOM     36  H   UNL     1      15.433  18.036  10.357  0.00  0.00    +0.155 HD
ATOM     37  N   UNL     1      16.229  18.844  12.633  0.00  0.00    -0.214 NA
BRANCH   4   3
ATOM      1  C   UNL     1      14.943  20.147  17.211  0.00  0.00    +0.020 A 
ATOM      2  C   UNL     1      15.873  20.217  16.108  0.00  0.00    +0.013 A 
ATOM      3  C   UNL     1      15.788  19.272  15.001  0.00  0.00    +0.019 A 
ATOM     38  C   UNL     1      14.742  18.262  15.042  0.00  0.00    +0.120 A 
ATOM     39  N   UNL     1      13.861  18.218  16.118  0.00  0.00    -0.263 NA
ATOM     40  C   UNL     1      13.934  19.121  17.189  0.00  0.00    +0.111 A 
ENDBRANCH   4   3
ENDBRANCH  10   9
BRANCH  12  13
ATOM     13  N   UNL     1      17.506  20.459   5.970  0.00  0.00    -0.281 N 
ATOM     14  C   UNL     1      17.287  20.323   4.609  0.00  0.00    +0.248 C 
ATOM     30  O   UNL     1      17.398  19.273   3.993  0.00  0.00    -0.270 OA
ATOM     31  H   UNL     1      17.571  21.415   6.320  0.00  0.00    +0.155 HD
BRANCH  14  15
ATOM     15  C   UNL     1      16.904  21.530   3.815  0.00  0.00    +0.037 A 
ATOM     16  C   UNL     1      16.510  21.420   2.408  0.00  0.00    +0.013 A 
ATOM     17  C   UNL     1      16.161  22.602   1.660  0.00  0.00    +0.005 A 
ATOM     18  C   UNL     1      16.204  23.905   2.319  0.00  0.00    -0.033 A 
ATOM     28  C   UNL     1      16.594  23.985   3.717  0.00  0.00    +0.005 A 
ATOM     29  C   UNL     1      16.937  22.828   4.453  0.00  0.00    +0.013 A 
BRANCH  18  19
ATOM     19  C   UNL     1      15.869  25.221   1.593  0.00  0.00    +0.119 C 
BRANCH  19  20
ATOM     20  N   UNL     1      16.994  25.937   0.921  0.00  0.00    -0.302 NA
ATOM     21  C   UNL     1      17.807  25.007   0.015  0.00  0.00    +0.066 C 
ATOM     22  C   UNL     1      18.966  25.777  -0.698  0.00  0.00    -0.064 C 
ATOM     23  N   UNL     1      19.864  26.429   0.355  0.00  0.00    +0.379 N 
ATOM     24  C   UNL     1      20.988  27.105  -0.310  0.00  0.00    -0.096 C 
ATOM     25  H   UNL     1      20.286  25.615   0.989  0.00  0.00    -0.082 HD
ATOM     26  C   UNL     1      19.064  27.353   1.262  0.00  0.00    -0.064 C 
ATOM     27  C   UNL     1      17.897  26.585   1.942  0.00  0.00    +0.066 C 
ENDBRANCH  19  20
ENDBRANCH  18  19
ENDBRANCH  14  15
ENDBRANCH  12  13
TORSDOF 6
ENDMDL
MODEL 3
REMARK VINA RESULT:      -8.1      1.044      1.455
REMARK  Name = C:\Users\Docking\Desktop\test protocol\1iep_ligandH.pdb
REMARK  8 active torsions:
REMARK  status: ('A' for Active; 'I' for Inactive)
REMARK    1  A    between atoms: _5  and  _11
REMARK    2  A    between atoms: _19  and  _21
REMARK    3  A    between atoms: _22  and  _66
REMARK    4  A    between atoms: _27  and  _30
REMARK    5  A    between atoms: _32  and  _33
REMARK    6  A    between atoms: _38  and  _43
REMARK    7  A    between atoms: _43  and  _46
REMARK    8  A    between atoms: _53  and  _55
REMARK                            x       y       z     vdW  Elec       q    Type
REMARK                         _______ _______ _______ _____ _____    ______ ____
ROOT
ATOM     10  C   UNL     1      17.997  19.935   4.099  0.00  0.00    +0.038 A 
ATOM     11  C   UNL     1      17.762  19.946   5.498  0.00  0.00    +0.047 A 
ATOM     12  C   UNL     1      17.243  18.772   6.183  0.00  0.00    +0.035 A 
ATOM     32  C   UNL     1      16.978  17.603   5.412  0.00  0.00    +0.024 A 
ATOM     33  C   UNL     1      17.210  17.574   3.990  0.00  0.00    +0.007 A 
ATOM     34  C   UNL     1      17.719  18.730   3.308  0.00  0.00    -0.029 A 
ATOM     35  C   UNL     1      17.943  18.645   1.780  0.00  0.00    +0.045 C 
ENDROOT
BRANCH  10   9
ATOM      4  C   UNL     1      17.422  24.308   2.206  0.00  0.00    +0.077 A 
ATOM      5  C   UNL     1      16.003  24.277   2.418  0.00  0.00    +0.048 A 
ATOM      6  C   UNL     1      15.460  23.115   3.010  0.00  0.00    +0.116 A 
ATOM      7  N   UNL     1      16.284  22.068   3.361  0.00  0.00    -0.223 NA
ATOM      8  C   UNL     1      17.648  22.129   3.141  0.00  0.00    +0.220 A 
ATOM      9  N   UNL     1      18.496  21.090   3.493  0.00  0.00    -0.283 N 
ATOM     36  H   UNL     1      19.496  21.171   3.308  0.00  0.00    +0.155 HD
ATOM     37  N   UNL     1      18.190  23.227   2.576  0.00  0.00    -0.214 NA
BRANCH   4   3
ATOM      1  C   UNL     1      19.862  27.313   1.650  0.00  0.00    +0.020 A 
ATOM      2  C   UNL     1      19.195  26.201   2.287  0.00  0.00    +0.013 A 
ATOM      3  C   UNL     1      18.144  25.467   1.594  0.00  0.00    +0.019 A 
ATOM     38  C   UNL     1      17.790  25.887   0.246  0.00  0.00    +0.120 A 
ATOM     39  N   UNL     1      18.449  26.962  -0.341  0.00  0.00    -0.263 NA
ATOM     40  C   UNL     1      19.461  27.677   0.317  0.00  0.00    +0.111 A 
ENDBRANCH   4   3
ENDBRANCH  10   9
BRANCH  12  13
ATOM     13  N   UNL     1      16.977  18.726   7.599  0.00  0.00    -0.281 N 
ATOM     14  C   UNL     1      17.849  19.004   8.639  0.00  0.00    +0.248 C 
ATOM     30  O   UNL     1      19.058  19.127   8.513  0.00  0.00    -0.270 OA
ATOM     31  H   UNL     1      16.030  18.457   7.868  0.00  0.00    +0.155 HD
BRANCH  14  15
ATOM     15  C   UNL     1      17.300  19.151  10.022  0.00  0.00    +0.037 A 
ATOM     16  C   UNL     1      17.300  18.028  10.963  0.00  0.00    +0.013 A 
ATOM     17  C   UNL     1      16.749  18.193  12.285  0.00  0.00    +0.005 A 
ATOM     18  C   UNL     1      16.195  19.488  12.674  0.00  0.00    -0.033 A 
ATOM     28  C   UNL     1      16.213  20.586  11.722  0.00  0.00    +0.005 A 
ATOM     29  C   UNL     1      16.751  20.428  10.425  0.00  0.00    +0.013 A 
BRANCH  18  19
ATOM     19  C   UNL     1      15.568  19.747  14.056  0.00  0.00    +0.119 C 
BRANCH  19  20
ATOM     20  N   UNL     1      16.303  19.231  15.249  0.00  0.00    -0.302 NA
ATOM     21  C   UNL     1      15.710  17.917  15.765  0.00  0.00    +0.066 C 
ATOM     22  C   UNL     1      16.505  17.379  16.999  0.00  0.00    -0.064 C 
ATOM     23  N   UNL     1      16.511  18.440  18.100  0.00  0.00    +0.379 N 
ATOM     24  C   UNL     1      17.208  17.916  19.284  0.00  0.00    -0.096 C 
ATOM     25  H   UNL     1      15.451  18.633  18.389  0.00  0.00    -0.082 HD
ATOM     26  C   UNL     1      17.096  19.751  17.595  0.00  0.00    -0.064 C 
ATOM     27  C   UNL     1      16.317  20.262  16.351  0.00  0.00    +0.066 C 
ENDBRANCH  19  20
ENDBRANCH  18  19
ENDBRANCH  14  15
ENDBRANCH  12  13
TORSDOF 6
ENDMDL
