MODEL 1
REMARK VINA RESULT:      -8.3      0.000      0.000
REMARK  Name = C:\Users\Docking\Desktop\test protocol\1iep_ligandH.pdb
REMARK  8 active torsions:
REMARK  status: ('A' for Active; 'I' for Inactive)
REMARK    1  A    between atoms: _5  and  _11
REMARK    2  A    between atoms: _19  and  _21
REMARK    3  A    between atoms: _22  and  _66
REMARK    4  A    between atoms: _27  and  _30
REMARK    5  A    between atoms: _32  and  _33
REMARK    6  A    between atoms: _38  and  _43
REMARK    7  A    between atoms: _43  and  _46
REMARK    8  A    between atoms: _53  and  _55
REMARK                            x       y       z     vdW  Elec       q    Type
REMARK                         _______ _______ _______ _____ _____    ______ ____
ROOT
ATOM     10  C   UNL     1      20.148  -7.045  37.324  0.00  0.00    +0.038 A 
ATOM     11  C   UNL     1      21.222  -7.297  36.432  0.00  0.00    +0.047 A 
ATOM     12  C   UNL     1      22.493  -6.603  36.570  0.00  0.00    +0.035 A 
ATOM     32  C   UNL     1      22.637  -5.660  37.629  0.00  0.00    +0.024 A 
ATOM     33  C   UNL     1      21.555  -5.391  38.544  0.00  0.00    +0.007 A 
ATOM     34  C   UNL     1      20.299  -6.071  38.412  0.00  0.00    -0.029 A 
ATOM     35  C   UNL     1      19.172  -5.738  39.417  0.00  0.00    +0.045 C 
ENDROOT
BRANCH  10   9
ATOM      4  C   UNL     1      16.127  -7.989  34.880  0.00  0.00    +0.077 A 
ATOM      5  C   UNL     1      16.425  -6.995  33.889  0.00  0.00    +0.048 A 
ATOM      6  C   UNL     1      17.620  -6.258  34.049  0.00  0.00    +0.116 A 
ATOM      7  N   UNL     1      18.447  -6.505  35.123  0.00  0.00    -0.223 NA
ATOM      8  C   UNL     1      18.129  -7.469  36.061  0.00  0.00    +0.220 A 
ATOM      9  N   UNL     1      18.950  -7.740  37.145  0.00  0.00    -0.283 N 
ATOM     36  H   UNL     1      18.676  -8.454  37.819  0.00  0.00    +0.155 HD
ATOM     37  N   UNL     1      16.993  -8.186  35.932  0.00  0.00    -0.214 NA
BRANCH   4   3
ATOM      1  C   UNL     1      12.549  -9.420  35.551  0.00  0.00    +0.020 A 
ATOM      2  C   UNL     1      13.703  -8.554  35.618  0.00  0.00    +0.013 A 
ATOM      3  C   UNL     1      14.904  -8.852  34.847  0.00  0.00    +0.019 A 
ATOM     38  C   UNL     1      14.903 -10.042  34.010  0.00  0.00    +0.120 A 
ATOM     39  N   UNL     1      13.777 -10.858  33.967  0.00  0.00    -0.263 NA
ATOM     40  C   UNL     1      12.617 -10.583  34.705  0.00  0.00    +0.111 A 
ENDBRANCH   4   3
ENDBRANCH  10   9
BRANCH  12  13
ATOM     13  N   UNL     1      23.616  -6.811  35.690  0.00  0.00    -0.281 N 
ATOM     14  C   UNL     1      24.673  -7.691  35.852  0.00  0.00    +0.248 C 
ATOM     30  O   UNL     1      24.925  -8.285  36.890  0.00  0.00    -0.270 OA
ATOM     31  H   UNL     1      23.634  -6.240  34.844  0.00  0.00    +0.155 HD
BRANCH  14  15
ATOM     15  C   UNL     1      25.592  -7.937  34.698  0.00  0.00    +0.037 A 
ATOM     16  C   UNL     1      25.134  -8.646  33.500  0.00  0.00    +0.013 A 
ATOM     17  C   UNL     1      26.046  -8.885  32.409  0.00  0.00    +0.005 A 
ATOM     18  C   UNL     1      27.424  -8.412  32.511  0.00  0.00    -0.033 A 
ATOM     28  C   UNL     1      27.850  -7.707  33.709  0.00  0.00    +0.005 A 
ATOM     29  C   UNL     1      26.960  -7.472  34.781  0.00  0.00    +0.013 A 
BRANCH  18  19
ATOM     19  C   UNL     1      28.471  -8.641  31.404  0.00  0.00    +0.119 C 
BRANCH  19  20
ATOM     20  N   UNL     1      28.831 -10.055  31.086  0.00  0.00    -0.302 NA
ATOM     21  C   UNL     1      30.346 -10.276  31.086  0.00  0.00    +0.066 C 
ATOM     22  C   UNL     1      30.704 -11.765  30.773  0.00  0.00    -0.064 C 
ATOM     23  N   UNL     1      30.100 -12.159  29.424  0.00  0.00    +0.379 N 
ATOM     24  C   UNL     1      30.483 -13.541  29.100  0.00  0.00    -0.096 C 
ATOM     25  H   UNL     1      30.543 -11.494  28.648  0.00  0.00    -0.082 HD
ATOM     26  C   UNL     1      28.593 -11.940  29.414  0.00  0.00    -0.064 C 
ATOM     27  C   UNL     1      28.248 -10.464  29.755  0.00  0.00    +0.066 C 
ENDBRANCH  19  20
ENDBRANCH  18  19
ENDBRANCH  14  15
ENDBRANCH  12  13
TORSDOF 6
ENDMDL
MODEL 2
REMARK VINA RESULT:      -7.9     18.872     21.476
REMARK  Name = C:\Users\Docking\Desktop\test protocol\1iep_ligandH.pdb
REMARK  8 active torsions:
REMARK  status: ('A' for Active; 'I' for Inactive)
REMARK    1  A    between atoms: _5  and  _11
REMARK    2  A    between atoms: _19  and  _21
REMARK    3  A    between atoms: _22  and  _66
REMARK    4  A    between atoms: _27  and  _30
REMARK    5  A    between atoms: _32  and  _33
REMARK    6  A    between atoms: _38  and  _43
REMARK    7  A    between atoms: _43  and  _46
REMARK    8  A    between atoms: _53  and  _55
REMARK                            x       y       z     vdW  Elec       q    Type
REMARK                         _______ _______ _______ _____ _____    ______ ____
ROOT
ATOM     10  C   UNL     1      17.650 -13.793  18.225  0.00  0.00    +0.038 A 
ATOM     11  C   UNL     1      17.375 -13.906  16.838  0.00  0.00    +0.047 A 
ATOM     12  C   UNL     1      18.442 -13.846  15.852  0.00  0.00    +0.035 A 
ATOM     32  C   UNL     1      19.780 -13.672  16.314  0.00  0.00    +0.024 A 
ATOM     33  C   UNL     1      20.077 -13.554  17.720  0.00  0.00    +0.007 A 
ATOM     34  C   UNL     1      19.028 -13.611  18.697  0.00  0.00    -0.029 A 
ATOM     35  C   UNL     1      19.404 -13.472  20.191  0.00  0.00    +0.045 C 
ENDROOT
BRANCH  10   9
ATOM      4  C   UNL     1      14.010 -11.791  20.629  0.00  0.00    +0.077 A 
ATOM      5  C   UNL     1      14.265 -10.500  20.058  0.00  0.00    +0.048 A 
ATOM      6  C   UNL     1      15.347 -10.392  19.156  0.00  0.00    +0.116 A 
ATOM      7  N   UNL     1      16.110 -11.499  18.854  0.00  0.00    -0.223 NA
ATOM      8  C   UNL     1      15.837 -12.730  19.424  0.00  0.00    +0.220 A 
ATOM      9  N   UNL     1      16.586 -13.858  19.128  0.00  0.00    -0.283 N 
ATOM     36  H   UNL     1      16.358 -14.746  19.575  0.00  0.00    +0.155 HD
ATOM     37  N   UNL     1      14.811 -12.858  20.290  0.00  0.00    -0.214 NA
BRANCH   4   3
ATOM      1  C   UNL     1      10.629 -11.594  22.586  0.00  0.00    +0.020 A 
ATOM      2  C   UNL     1      11.669 -11.287  21.632  0.00  0.00    +0.013 A 
ATOM      3  C   UNL     1      12.901 -12.066  21.597  0.00  0.00    +0.019 A 
ATOM     38  C   UNL     1      13.049 -13.157  22.547  0.00  0.00    +0.120 A 
ATOM     39  N   UNL     1      12.030 -13.429  23.456  0.00  0.00    -0.263 NA
ATOM     40  C   UNL     1      10.841 -12.685  23.500  0.00  0.00    +0.111 A 
ENDBRANCH   4   3
ENDBRANCH  10   9
BRANCH  12  13
ATOM     13  N   UNL     1      18.223 -13.946  14.431  0.00  0.00    -0.281 N 
ATOM     14  C   UNL     1      17.897 -12.932  13.545  0.00  0.00    +0.248 C 
ATOM     30  O   UNL     1      17.534 -11.814  13.879  0.00  0.00    -0.270 OA
ATOM     31  H   UNL     1      18.320 -14.879  14.028  0.00  0.00    +0.155 HD
BRANCH  14  15
ATOM     15  C   UNL     1      17.972 -13.203  12.077  0.00  0.00    +0.037 A 
ATOM     16  C   UNL     1      18.885 -12.451  11.212  0.00  0.00    +0.013 A 
ATOM     17  C   UNL     1      18.925 -12.721   9.796  0.00  0.00    +0.005 A 
ATOM     18  C   UNL     1      18.050 -13.749   9.238  0.00  0.00    -0.033 A 
ATOM     28  C   UNL     1      17.159 -14.483  10.120  0.00  0.00    +0.005 A 
ATOM     29  C   UNL     1      17.116 -14.221  11.508  0.00  0.00    +0.013 A 
BRANCH  18  19
ATOM     19  C   UNL     1      18.011 -14.089   7.736  0.00  0.00    +0.119 C 
BRANCH  19  20
ATOM     20  N   UNL     1      18.643 -15.373   7.309  0.00  0.00    -0.302 NA
ATOM     21  C   UNL     1      20.019 -15.577   7.949  0.00  0.00    +0.066 C 
ATOM     22  C   UNL     1      20.655 -16.936   7.509  0.00  0.00    -0.064 C 
ATOM     23  N   UNL     1      20.756 -16.978   5.983  0.00  0.00    +0.379 N 
ATOM     24  C   UNL     1      21.407 -18.229   5.569  0.00  0.00    -0.096 C 
ATOM     25  H   UNL     1      21.411 -16.134   5.665  0.00  0.00    -0.082 HD
ATOM     26  C   UNL     1      19.393 -16.773   5.338  0.00  0.00    -0.064 C 
ATOM     27  C   UNL     1      18.756 -15.434   5.805  0.00  0.00    +0.066 C 
ENDBRANCH  19  20
ENDBRANCH  18  19
ENDBRANCH  14  15
ENDBRANCH  12  13
TORSDOF 6
ENDMDL
MODEL 3
REMARK VINA RESULT:      -7.7     16.769     18.969
REMARK  Name = C:\Users\Docking\Desktop\test protocol\1iep_ligandH.pdb
REMARK  8 active torsions:
REMARK  status: ('A' for Active; 'I' for Inactive)
REMARK    1  A    between atoms: _5  and  _11
REMARK    2  A    between atoms: _19  and  _21
REMARK    3  A    between atoms: _22  and  _66
REMARK    4  A    between atoms: _27  and  _30
REMARK    5  A    between atoms: _32  and  _33
REMARK    6  A    between atoms: _38  and  _43
REMARK    7  A    between atoms: _43  and  _46
REMARK    8  A    between atoms: _53  and  _55
REMARK                            x       y       z     vdW  Elec       q    Type
REMARK                         _______ _______ _______ _____ _____    ______ ____
ROOT
ATOM     10  C   UNL     1       6.414  -5.153  32.710  0.00  0.00    +0.038 A 
ATOM     11  C   UNL     1       6.708  -4.015  31.917  0.00  0.00    +0.047 A 
ATOM     12  C   UNL     1       6.384  -2.673  32.377  0.00  0.00    +0.035 A 
ATOM     32  C   UNL     1       5.764  -2.528  33.652  0.00  0.00    +0.024 A 
ATOM     33  C   UNL     1       5.457  -3.674  34.471  0.00  0.00    +0.007 A 
ATOM     34  C   UNL     1       5.772  -5.000  34.021  0.00  0.00    -0.029 A 
ATOM     35  C   UNL     1       5.414  -6.193  34.938  0.00  0.00    +0.045 C 
ENDROOT
BRANCH  10   9
ATOM      4  C   UNL     1       5.514  -9.014  30.004  0.00  0.00    +0.077 A 
ATOM      5  C   UNL     1       4.262  -8.478  29.552  0.00  0.00    +0.048 A 
ATOM      6  C   UNL     1       3.884  -7.209  30.044  0.00  0.00    +0.116 A 
ATOM      7  N   UNL     1       4.703  -6.535  30.923  0.00  0.00    -0.223 NA
ATOM      8  C   UNL     1       5.903  -7.081  31.341  0.00  0.00    +0.220 A 
ATOM      9  N   UNL     1       6.746  -6.418  32.219  0.00  0.00    -0.283 N 
ATOM     36  H   UNL     1       7.619  -6.858  32.509  0.00  0.00    +0.155 HD
ATOM     37  N   UNL     1       6.286  -8.292  30.887  0.00  0.00    -0.214 NA
BRANCH   4   3
ATOM      1  C   UNL     1       7.921 -12.015  29.298  0.00  0.00    +0.020 A 
ATOM      2  C   UNL     1       7.451 -10.720  29.733  0.00  0.00    +0.013 A 
ATOM      3  C   UNL     1       6.053 -10.342  29.571  0.00  0.00    +0.019 A 
ATOM     38  C   UNL     1       5.149 -11.305  28.962  0.00  0.00    +0.120 A 
ATOM     39  N   UNL     1       5.630 -12.545  28.551  0.00  0.00    -0.263 NA
ATOM     40  C   UNL     1       6.974 -12.919  28.700  0.00  0.00    +0.111 A 
ENDBRANCH   4   3
ENDBRANCH  10   9
BRANCH  12  13
ATOM     13  N   UNL     1       6.652  -1.480  31.612  0.00  0.00    -0.281 N 
ATOM     14  C   UNL     1       5.740  -0.554  31.133  0.00  0.00    +0.248 C 
ATOM     30  O   UNL     1       4.530  -0.725  31.107  0.00  0.00    -0.270 OA
ATOM     31  H   UNL     1       7.632  -1.297  31.398  0.00  0.00    +0.155 HD
BRANCH  14  15
ATOM     15  C   UNL     1       6.246   0.744  30.591  0.00  0.00    +0.037 A 
ATOM     16  C   UNL     1       5.668   2.021  31.015  0.00  0.00    +0.013 A 
ATOM     17  C   UNL     1       6.164   3.258  30.464  0.00  0.00    +0.005 A 
ATOM     18  C   UNL     1       7.246   3.222  29.483  0.00  0.00    -0.033 A 
ATOM     28  C   UNL     1       7.805   1.940  29.084  0.00  0.00    +0.005 A 
ATOM     29  C   UNL     1       7.321   0.726  29.622  0.00  0.00    +0.013 A 
BRANCH  18  19
ATOM     19  C   UNL     1       7.823   4.490  28.827  0.00  0.00    +0.119 C 
BRANCH  19  20
ATOM     20  N   UNL     1       8.635   4.309  27.587  0.00  0.00    -0.302 NA
ATOM     21  C   UNL     1       9.833   5.262  27.541  0.00  0.00    +0.066 C 
ATOM     22  C   UNL     1      10.685   5.044  26.248  0.00  0.00    -0.064 C 
ATOM     23  N   UNL     1       9.795   5.232  25.017  0.00  0.00    +0.379 N 
ATOM     24  C   UNL     1      10.606   5.085  23.799  0.00  0.00    -0.096 C 
ATOM     25  H   UNL     1       9.404   6.275  25.039  0.00  0.00    -0.082 HD
ATOM     26  C   UNL     1       8.601   4.290  25.056  0.00  0.00    -0.064 C 
ATOM     27  C   UNL     1       7.778   4.494  26.359  0.00  0.00    +0.066 C 
ENDBRANCH  19  20
ENDBRANCH  18  19
ENDBRANCH  14  15
ENDBRANCH  12  13
TORSDOF 6
ENDMDL
MODEL 4
REMARK VINA RESULT:      -7.7     12.752     18.672
REMARK  Name = C:\Users\Docking\Desktop\test protocol\1iep_ligandH.pdb
REMARK  8 active torsions:
REMARK  status: ('A' for Active; 'I' for Inactive)
REMARK    1  A    between atoms: _5  and  _11
REMARK    2  A    between atoms: _19  and  _21
REMARK    3  A    between atoms: _22  and  _66
REMARK    4  A    between atoms: _27  and  _30
REMARK    5  A    between atoms: _32  and  _33
REMARK    6  A    between atoms: _38  and  _43
REMARK    7  A    between atoms: _43  and  _46
REMARK    8  A    between atoms: _53  and  _55
REMARK                            x       y       z     vdW  Elec       q    Type
REMARK                         _______ _______ _______ _____ _____    ______ ____
ROOT
ATOM     10  C   UNL     1       5.556  -4.819  32.048  0.00  0.00    +0.038 A 
ATOM     11  C   UNL     1       5.976  -3.531  31.627  0.00  0.00    +0.047 A 
ATOM     12  C   UNL     1       5.025  -2.441  31.477  0.00  0.00    +0.035 A 
ATOM     32  C   UNL     1       3.653  -2.697  31.768  0.00  0.00    +0.024 A 
ATOM     33  C   UNL     1       3.209  -4.000  32.196  0.00  0.00    +0.007 A 
ATOM     34  C   UNL     1       4.142  -5.080  32.343  0.00  0.00    -0.029 A 
ATOM     35  C   UNL     1       3.609  -6.458  32.798  0.00  0.00    +0.045 C 
ENDROOT
BRANCH  10   9
ATOM      4  C   UNL     1       8.585  -7.477  34.655  0.00  0.00    +0.077 A 
ATOM      5  C   UNL     1       8.254  -6.776  35.863  0.00  0.00    +0.048 A 
ATOM      6  C   UNL     1       7.305  -5.733  35.768  0.00  0.00    +0.116 A 
ATOM      7  N   UNL     1       6.736  -5.423  34.552  0.00  0.00    -0.223 NA
ATOM      8  C   UNL     1       7.078  -6.118  33.407  0.00  0.00    +0.220 A 
ATOM      9  N   UNL     1       6.512  -5.829  32.175  0.00  0.00    -0.283 N 
ATOM     36  H   UNL     1       6.797  -6.360  31.352  0.00  0.00    +0.155 HD
ATOM     37  N   UNL     1       7.983  -7.117  33.470  0.00  0.00    -0.214 NA
BRANCH   4   3
ATOM      1  C   UNL     1      10.158 -11.044  34.342  0.00  0.00    +0.020 A 
ATOM      2  C   UNL     1       9.169  -9.992  34.394  0.00  0.00    +0.013 A 
ATOM      3  C   UNL     1       9.567  -8.605  34.594  0.00  0.00    +0.019 A 
ATOM     38  C   UNL     1      10.986  -8.313  34.737  0.00  0.00    +0.120 A 
ATOM     39  N   UNL     1      11.915  -9.347  34.683  0.00  0.00    -0.263 NA
ATOM     40  C   UNL     1      11.544 -10.686  34.494  0.00  0.00    +0.111 A 
ENDBRANCH   4   3
ENDBRANCH  10   9
BRANCH  12  13
ATOM     13  N   UNL     1       5.391  -1.115  31.046  0.00  0.00    -0.281 N 
ATOM     14  C   UNL     1       6.496  -0.371  31.425  0.00  0.00    +0.248 C 
ATOM     30  O   UNL     1       7.230  -0.651  32.361  0.00  0.00    -0.270 OA
ATOM     31  H   UNL     1       4.759  -0.671  30.380  0.00  0.00    +0.155 HD
BRANCH  14  15
ATOM     15  C   UNL     1       6.827   0.871  30.662  0.00  0.00    +0.037 A 
ATOM     16  C   UNL     1       7.728   0.837  29.507  0.00  0.00    +0.013 A 
ATOM     17  C   UNL     1       8.043   2.052  28.799  0.00  0.00    +0.005 A 
ATOM     18  C   UNL     1       7.456   3.314  29.245  0.00  0.00    -0.033 A 
ATOM     28  C   UNL     1       6.561   3.318  30.391  0.00  0.00    +0.005 A 
ATOM     29  C   UNL     1       6.250   2.129  31.087  0.00  0.00    +0.013 A 
BRANCH  18  19
ATOM     19  C   UNL     1       7.753   4.662  28.563  0.00  0.00    +0.119 C 
BRANCH  19  20
ATOM     20  N   UNL     1       8.384   4.619  27.210  0.00  0.00    -0.302 NA
ATOM     21  C   UNL     1       9.865   5.009  27.254  0.00  0.00    +0.066 C 
ATOM     22  C   UNL     1      10.515   4.937  25.835  0.00  0.00    -0.064 C 
ATOM     23  N   UNL     1       9.744   5.847  24.877  0.00  0.00    +0.379 N 
ATOM     24  C   UNL     1      10.388   5.827  23.555  0.00  0.00    -0.096 C 
ATOM     25  H   UNL     1       9.813   6.888  25.271  0.00  0.00    -0.082 HD
ATOM     26  C   UNL     1       8.270   5.469  24.829  0.00  0.00    -0.064 C 
ATOM     27  C   UNL     1       7.641   5.515  26.249  0.00  0.00    +0.066 C 
ENDBRANCH  19  20
ENDBRANCH  18  19
ENDBRANCH  14  15
ENDBRANCH  12  13
TORSDOF 6
ENDMDL
MODEL 5
REMARK VINA RESULT:      -7.7      1.305      1.791
REMARK  Name = C:\Users\Docking\Desktop\test protocol\1iep_ligandH.pdb
REMARK  8 active torsions:
REMARK  status: ('A' for Active; 'I' for Inactive)
REMARK    1  A    between atoms: _5  and  _11
REMARK    2  A    between atoms: _19  and  _21
REMARK    3  A    between atoms: _22  and  _66
REMARK    4  A    between atoms: _27  and  _30
REMARK    5  A    between atoms: _32  and  _33
REMARK    6  A    between atoms: _38  and  _43
REMARK    7  A    between atoms: _43  and  _46
REMARK    8  A    between atoms: _53  and  _55
REMARK                            x       y       z     vdW  Elec       q    Type
REMARK                         _______ _______ _______ _____ _____    ______ ____
ROOT
ATOM     10  C   UNL     1      20.142  -7.012  37.455  0.00  0.00    +0.038 A 
ATOM     11  C   UNL     1      21.272  -7.303  36.649  0.00  0.00    +0.047 A 
ATOM     12  C   UNL     1      22.537  -6.614  36.850  0.00  0.00    +0.035 A 
ATOM     32  C   UNL     1      22.617  -5.636  37.884  0.00  0.00    +0.024 A 
ATOM     33  C   UNL     1      21.478  -5.327  38.713  0.00  0.00    +0.007 A 
ATOM     34  C   UNL     1      20.226  -6.001  38.517  0.00  0.00    -0.029 A 
ATOM     35  C   UNL     1      19.036  -5.625  39.430  0.00  0.00    +0.045 C 
ENDROOT
BRANCH  10   9
ATOM      4  C   UNL     1      16.226  -7.923  34.834  0.00  0.00    +0.077 A 
ATOM      5  C   UNL     1      16.566  -6.918  33.868  0.00  0.00    +0.048 A 
ATOM      6  C   UNL     1      17.753  -6.184  34.087  0.00  0.00    +0.116 A 
ATOM      7  N   UNL     1      18.535  -6.444  35.192  0.00  0.00    -0.223 NA
ATOM      8  C   UNL     1      18.177  -7.419  36.104  0.00  0.00    +0.220 A 
ATOM      9  N   UNL     1      18.951  -7.703  37.218  0.00  0.00    -0.283 N 
ATOM     36  H   UNL     1      18.649  -8.425  37.872  0.00  0.00    +0.155 HD
ATOM     37  N   UNL     1      17.047  -8.133  35.919  0.00  0.00    -0.214 NA
BRANCH   4   3
ATOM      1  C   UNL     1      13.735 -10.773  33.848  0.00  0.00    +0.020 A 
ATOM      2  C   UNL     1      14.938  -9.976  33.903  0.00  0.00    +0.013 A 
ATOM      3  C   UNL     1      15.005  -8.785  34.739  0.00  0.00    +0.019 A 
ATOM     38  C   UNL     1      13.827  -8.425  35.515  0.00  0.00    +0.120 A 
ATOM     39  N   UNL     1      12.682  -9.212  35.441  0.00  0.00    -0.263 NA
ATOM     40  C   UNL     1      12.606 -10.359  34.638  0.00  0.00    +0.111 A 
ENDBRANCH   4   3
ENDBRANCH  10   9
BRANCH  12  13
ATOM     13  N   UNL     1      23.716  -6.862  36.058  0.00  0.00    -0.281 N 
ATOM     14  C   UNL     1      24.307  -8.080  35.769  0.00  0.00    +0.248 C 
ATOM     30  O   UNL     1      24.032  -9.132  36.328  0.00  0.00    -0.270 OA
ATOM     31  H   UNL     1      24.169  -6.038  35.662  0.00  0.00    +0.155 HD
BRANCH  14  15
ATOM     15  C   UNL     1      25.367  -8.137  34.716  0.00  0.00    +0.037 A 
ATOM     16  C   UNL     1      25.184  -8.926  33.495  0.00  0.00    +0.013 A 
ATOM     17  C   UNL     1      26.229  -8.977  32.504  0.00  0.00    +0.005 A 
ATOM     18  C   UNL     1      27.467  -8.235  32.730  0.00  0.00    -0.033 A 
ATOM     28  C   UNL     1      27.620  -7.457  33.948  0.00  0.00    +0.005 A 
ATOM     29  C   UNL     1      26.599  -7.405  34.922  0.00  0.00    +0.013 A 
BRANCH  18  19
ATOM     19  C   UNL     1      28.644  -8.250  31.736  0.00  0.00    +0.119 C 
BRANCH  19  20
ATOM     20  N   UNL     1      29.812  -9.118  32.072  0.00  0.00    -0.302 NA
ATOM     21  C   UNL     1      30.905  -8.348  32.816  0.00  0.00    +0.066 C 
ATOM     22  C   UNL     1      32.109  -9.276  33.180  0.00  0.00    -0.064 C 
ATOM     23  N   UNL     1      32.666  -9.908  31.902  0.00  0.00    +0.379 N 
ATOM     24  C   UNL     1      33.835 -10.736  32.234  0.00  0.00    -0.096 C 
ATOM     25  H   UNL     1      33.014  -9.081  31.240  0.00  0.00    -0.082 HD
ATOM     26  C   UNL     1      31.584 -10.674  31.154  0.00  0.00    -0.064 C 
ATOM     27  C   UNL     1      30.380  -9.749  30.824  0.00  0.00    +0.066 C 
ENDBRANCH  19  20
ENDBRANCH  18  19
ENDBRANCH  14  15
ENDBRANCH  12  13
TORSDOF 6
ENDMDL
