MODEL 1
REMARK VINA RESULT:      -9.2      0.000      0.000
REMARK  Name = C:\Users\Docking\Desktop\test protocol\1iep_ligandH.pdb
REMARK  8 active torsions:
REMARK  status: ('A' for Active; 'I' for Inactive)
REMARK    1  A    between atoms: _5  and  _11
REMARK    2  A    between atoms: _19  and  _21
REMARK    3  A    between atoms: _22  and  _66
REMARK    4  A    between atoms: _27  and  _30
REMARK    5  A    between atoms: _32  and  _33
REMARK    6  A    between atoms: _38  and  _43
REMARK    7  A    between atoms: _43  and  _46
REMARK    8  A    between atoms: _53  and  _55
REMARK                            x       y       z     vdW  Elec       q    Type
REMARK                         _______ _______ _______ _____ _____    ______ ____
ROOT
ATOM     10  C   UNL     1       4.782  23.672  26.050  0.00  0.00    +0.038 A 
ATOM     11  C   UNL     1       5.818  24.528  25.598  0.00  0.00    +0.047 A 
ATOM     12  C   UNL     1       6.046  24.749  24.178  0.00  0.00    +0.035 A 
ATOM     32  C   UNL     1       5.197  24.084  23.246  0.00  0.00    +0.024 A 
ATOM     33  C   UNL     1       4.140  23.210  23.688  0.00  0.00    +0.007 A 
ATOM     34  C   UNL     1       3.912  22.985  25.087  0.00  0.00    -0.029 A 
ATOM     35  C   UNL     1       2.768  22.032  25.503  0.00  0.00    +0.045 C 
ENDROOT
BRANCH  10   9
ATOM      4  C   UNL     1       3.408  25.230  30.377  0.00  0.00    +0.077 A 
ATOM      5  C   UNL     1       3.030  26.513  29.860  0.00  0.00    +0.048 A 
ATOM      6  C   UNL     1       3.211  26.735  28.476  0.00  0.00    +0.116 A 
ATOM      7  N   UNL     1       3.733  25.739  27.678  0.00  0.00    -0.223 NA
ATOM      8  C   UNL     1       4.089  24.513  28.209  0.00  0.00    +0.220 A 
ATOM      9  N   UNL     1       4.608  23.495  27.424  0.00  0.00    -0.283 N 
ATOM     36  H   UNL     1       4.866  22.608  27.855  0.00  0.00    +0.155 HD
ATOM     37  N   UNL     1       3.927  24.277  29.528  0.00  0.00    -0.214 NA
BRANCH   4   3
ATOM      1  C   UNL     1       2.392  23.366  33.662  0.00  0.00    +0.020 A 
ATOM      2  C   UNL     1       2.489  23.697  32.259  0.00  0.00    +0.013 A 
ATOM      3  C   UNL     1       3.274  24.843  31.817  0.00  0.00    +0.019 A 
ATOM     38  C   UNL     1       3.954  25.639  32.827  0.00  0.00    +0.120 A 
ATOM     39  N   UNL     1       3.841  25.297  34.171  0.00  0.00    -0.263 NA
ATOM     40  C   UNL     1       3.087  24.198  34.609  0.00  0.00    +0.111 A 
ENDBRANCH   4   3
ENDBRANCH  10   9
BRANCH  12  13
ATOM     13  N   UNL     1       7.088  25.601  23.660  0.00  0.00    -0.281 N 
ATOM     14  C   UNL     1       8.435  25.310  23.519  0.00  0.00    +0.248 C 
ATOM     30  O   UNL     1       8.989  24.342  24.019  0.00  0.00    -0.270 OA
ATOM     31  H   UNL     1       6.797  26.532  23.360  0.00  0.00    +0.155 HD
BRANCH  14  15
ATOM     15  C   UNL     1       9.294  26.235  22.720  0.00  0.00    +0.037 A 
ATOM     16  C   UNL     1       9.783  27.496  23.283  0.00  0.00    +0.013 A 
ATOM     17  C   UNL     1      10.596  28.379  22.485  0.00  0.00    +0.005 A 
ATOM     18  C   UNL     1      10.926  28.002  21.112  0.00  0.00    -0.033 A 
ATOM     28  C   UNL     1      10.433  26.743  20.580  0.00  0.00    +0.005 A 
ATOM     29  C   UNL     1       9.635  25.876  21.360  0.00  0.00    +0.013 A 
BRANCH  18  19
ATOM     19  C   UNL     1      11.770  28.892  20.181  0.00  0.00    +0.119 C 
BRANCH  19  20
ATOM     20  N   UNL     1      11.073  30.023  19.499  0.00  0.00    -0.302 NA
ATOM     21  C   UNL     1      10.304  29.560  18.259  0.00  0.00    +0.066 C 
ATOM     22  C   UNL     1       9.562  30.752  17.571  0.00  0.00    -0.064 C 
ATOM     23  N   UNL     1      10.576  31.838  17.206  0.00  0.00    +0.379 N 
ATOM     24  C   UNL     1       9.891  32.935  16.508  0.00  0.00    -0.096 C 
ATOM     25  H   UNL     1      11.310  31.390  16.496  0.00  0.00    -0.082 HD
ATOM     26  C   UNL     1      11.347  32.302  18.434  0.00  0.00    -0.064 C 
ATOM     27  C   UNL     1      12.057  31.105  19.127  0.00  0.00    +0.066 C 
ENDBRANCH  19  20
ENDBRANCH  18  19
ENDBRANCH  14  15
ENDBRANCH  12  13
TORSDOF 6
ENDMDL
MODEL 2
REMARK VINA RESULT:      -9.0      2.520      3.738
REMARK  Name = C:\Users\Docking\Desktop\test protocol\1iep_ligandH.pdb
REMARK  8 active torsions:
REMARK  status: ('A' for Active; 'I' for Inactive)
REMARK    1  A    between atoms: _5  and  _11
REMARK    2  A    between atoms: _19  and  _21
REMARK    3  A    between atoms: _22  and  _66
REMARK    4  A    between atoms: _27  and  _30
REMARK    5  A    between atoms: _32  and  _33
REMARK    6  A    between atoms: _38  and  _43
REMARK    7  A    between atoms: _43  and  _46
REMARK    8  A    between atoms: _53  and  _55
REMARK                            x       y       z     vdW  Elec       q    Type
REMARK                         _______ _______ _______ _____ _____    ______ ____
ROOT
ATOM     10  C   UNL     1       4.829  23.686  26.059  0.00  0.00    +0.038 A 
ATOM     11  C   UNL     1       5.990  24.370  25.618  0.00  0.00    +0.047 A 
ATOM     12  C   UNL     1       6.245  24.585  24.202  0.00  0.00    +0.035 A 
ATOM     32  C   UNL     1       5.294  24.090  23.262  0.00  0.00    +0.024 A 
ATOM     33  C   UNL     1       4.109  23.391  23.693  0.00  0.00    +0.007 A 
ATOM     34  C   UNL     1       3.854  23.174  25.088  0.00  0.00    -0.029 A 
ATOM     35  C   UNL     1       2.570  22.412  25.492  0.00  0.00    +0.045 C 
ENDROOT
BRANCH  10   9
ATOM      4  C   UNL     1       3.467  25.268  30.381  0.00  0.00    +0.077 A 
ATOM      5  C   UNL     1       3.141  26.568  29.867  0.00  0.00    +0.048 A 
ATOM      6  C   UNL     1       3.345  26.790  28.487  0.00  0.00    +0.116 A 
ATOM      7  N   UNL     1       3.838  25.781  27.689  0.00  0.00    -0.223 NA
ATOM      8  C   UNL     1       4.144  24.540  28.216  0.00  0.00    +0.220 A 
ATOM      9  N   UNL     1       4.634  23.508  27.431  0.00  0.00    -0.283 N 
ATOM     36  H   UNL     1       4.855  22.609  27.859  0.00  0.00    +0.155 HD
ATOM     37  N   UNL     1       3.960  24.303  29.532  0.00  0.00    -0.214 NA
BRANCH   4   3
ATOM      1  C   UNL     1       2.403  23.386  33.640  0.00  0.00    +0.020 A 
ATOM      2  C   UNL     1       2.529  23.719  32.240  0.00  0.00    +0.013 A 
ATOM      3  C   UNL     1       3.303  24.879  31.817  0.00  0.00    +0.019 A 
ATOM     38  C   UNL     1       3.944  25.687  32.844  0.00  0.00    +0.120 A 
ATOM     39  N   UNL     1       3.803  25.343  34.185  0.00  0.00    -0.263 NA
ATOM     40  C   UNL     1       3.059  24.230  34.604  0.00  0.00    +0.111 A 
ENDBRANCH   4   3
ENDBRANCH  10   9
BRANCH  12  13
ATOM     13  N   UNL     1       7.410  25.266  23.694  0.00  0.00    -0.281 N 
ATOM     14  C   UNL     1       8.733  24.861  23.769  0.00  0.00    +0.248 C 
ATOM     30  O   UNL     1       9.138  23.950  24.474  0.00  0.00    -0.270 OA
ATOM     31  H   UNL     1       7.239  26.154  23.223  0.00  0.00    +0.155 HD
BRANCH  14  15
ATOM     15  C   UNL     1       9.755  25.582  22.951  0.00  0.00    +0.037 A 
ATOM     16  C   UNL     1       9.591  25.751  21.505  0.00  0.00    +0.013 A 
ATOM     17  C   UNL     1      10.601  26.436  20.738  0.00  0.00    +0.005 A 
ATOM     18  C   UNL     1      11.784  26.959  21.416  0.00  0.00    -0.033 A 
ATOM     28  C   UNL     1      11.919  26.783  22.853  0.00  0.00    +0.005 A 
ATOM     29  C   UNL     1      10.932  26.111  23.608  0.00  0.00    +0.013 A 
BRANCH  18  19
ATOM     19  C   UNL     1      12.922  27.685  20.674  0.00  0.00    +0.119 C 
BRANCH  19  20
ATOM     20  N   UNL     1      14.192  26.928  20.461  0.00  0.00    -0.302 NA
ATOM     21  C   UNL     1      13.956  25.416  20.406  0.00  0.00    +0.066 C 
ATOM     22  C   UNL     1      15.292  24.640  20.160  0.00  0.00    -0.064 C 
ATOM     23  N   UNL     1      16.293  24.993  21.261  0.00  0.00    +0.379 N 
ATOM     24  C   UNL     1      17.529  24.222  21.066  0.00  0.00    -0.096 C 
ATOM     25  H   UNL     1      15.849  24.680  22.235  0.00  0.00    -0.082 HD
ATOM     26  C   UNL     1      16.531  26.496  21.324  0.00  0.00    -0.064 C 
ATOM     27  C   UNL     1      15.194  27.258  21.539  0.00  0.00    +0.066 C 
ENDBRANCH  19  20
ENDBRANCH  18  19
ENDBRANCH  14  15
ENDBRANCH  12  13
TORSDOF 6
ENDMDL
MODEL 3
REMARK VINA RESULT:      -8.6      2.894      3.471
REMARK  Name = C:\Users\Docking\Desktop\test protocol\1iep_ligandH.pdb
REMARK  8 active torsions:
REMARK  status: ('A' for Active; 'I' for Inactive)
REMARK    1  A    between atoms: _5  and  _11
REMARK    2  A    between atoms: _19  and  _21
REMARK    3  A    between atoms: _22  and  _66
REMARK    4  A    between atoms: _27  and  _30
REMARK    5  A    between atoms: _32  and  _33
REMARK    6  A    between atoms: _38  and  _43
REMARK    7  A    between atoms: _43  and  _46
REMARK    8  A    between atoms: _53  and  _55
REMARK                            x       y       z     vdW  Elec       q    Type
REMARK                         _______ _______ _______ _____ _____    ______ ____
ROOT
ATOM     10  C   UNL     1       4.770  23.563  26.019  0.00  0.00    +0.038 A 
ATOM     11  C   UNL     1       6.029  24.032  25.564  0.00  0.00    +0.047 A 
ATOM     12  C   UNL     1       6.296  24.216  24.146  0.00  0.00    +0.035 A 
ATOM     32  C   UNL     1       5.257  23.915  23.218  0.00  0.00    +0.024 A 
ATOM     33  C   UNL     1       3.972  23.436  23.663  0.00  0.00    +0.007 A 
ATOM     34  C   UNL     1       3.703  23.250  25.060  0.00  0.00    -0.029 A 
ATOM     35  C   UNL     1       2.309  22.728  25.479  0.00  0.00    +0.045 C 
ENDROOT
BRANCH  10   9
ATOM      4  C   UNL     1       3.523  25.249  30.336  0.00  0.00    +0.077 A 
ATOM      5  C   UNL     1       3.280  26.564  29.818  0.00  0.00    +0.048 A 
ATOM      6  C   UNL     1       3.494  26.766  28.436  0.00  0.00    +0.116 A 
ATOM      7  N   UNL     1       3.920  25.724  27.641  0.00  0.00    -0.223 NA
ATOM      8  C   UNL     1       4.147  24.468  28.174  0.00  0.00    +0.220 A 
ATOM      9  N   UNL     1       4.568  23.404  27.392  0.00  0.00    -0.283 N 
ATOM     36  H   UNL     1       4.732  22.495  27.824  0.00  0.00    +0.155 HD
ATOM     37  N   UNL     1       3.951  24.250  29.490  0.00  0.00    -0.214 NA
BRANCH   4   3
ATOM      1  C   UNL     1       2.407  23.410  33.603  0.00  0.00    +0.020 A 
ATOM      2  C   UNL     1       2.553  23.726  32.201  0.00  0.00    +0.013 A 
ATOM      3  C   UNL     1       3.339  24.876  31.775  0.00  0.00    +0.019 A 
ATOM     38  C   UNL     1       3.970  25.693  32.801  0.00  0.00    +0.120 A 
ATOM     39  N   UNL     1       3.811  25.365  34.143  0.00  0.00    -0.263 NA
ATOM     40  C   UNL     1       3.055  24.261  34.565  0.00  0.00    +0.111 A 
ENDBRANCH   4   3
ENDBRANCH  10   9
BRANCH  12  13
ATOM     13  N   UNL     1       7.558  24.682  23.626  0.00  0.00    -0.281 N 
ATOM     14  C   UNL     1       8.299  25.776  24.041  0.00  0.00    +0.248 C 
ATOM     30  O   UNL     1       7.883  26.649  24.788  0.00  0.00    -0.270 OA
ATOM     31  H   UNL     1       7.952  24.139  22.857  0.00  0.00    +0.155 HD
BRANCH  14  15
ATOM     15  C   UNL     1       9.700  25.929  23.545  0.00  0.00    +0.037 A 
ATOM     16  C   UNL     1      10.825  26.064  24.474  0.00  0.00    +0.013 A 
ATOM     17  C   UNL     1      12.165  26.227  23.969  0.00  0.00    +0.005 A 
ATOM     18  C   UNL     1      12.388  26.256  22.525  0.00  0.00    -0.033 A 
ATOM     28  C   UNL     1      11.254  26.115  21.626  0.00  0.00    +0.005 A 
ATOM     29  C   UNL     1       9.939  25.955  22.118  0.00  0.00    +0.013 A 
BRANCH  18  19
ATOM     19  C   UNL     1      13.781  26.447  21.897  0.00  0.00    +0.119 C 
BRANCH  19  20
ATOM     20  N   UNL     1      14.508  27.711  22.220  0.00  0.00    -0.302 NA
ATOM     21  C   UNL     1      15.159  28.332  20.980  0.00  0.00    +0.066 C 
ATOM     22  C   UNL     1      15.897  29.665  21.332  0.00  0.00    -0.064 C 
ATOM     23  N   UNL     1      16.943  29.395  22.415  0.00  0.00    +0.379 N 
ATOM     24  C   UNL     1      17.678  30.635  22.707  0.00  0.00    -0.096 C 
ATOM     25  H   UNL     1      17.671  28.658  22.005  0.00  0.00    -0.082 HD
ATOM     26  C   UNL     1      16.305  28.775  23.650  0.00  0.00    -0.064 C 
ATOM     27  C   UNL     1      15.549  27.467  23.285  0.00  0.00    +0.066 C 
ENDBRANCH  19  20
ENDBRANCH  18  19
ENDBRANCH  14  15
ENDBRANCH  12  13
TORSDOF 6
ENDMDL
