MODEL 1
REMARK VINA RESULT:      -8.5      0.000      0.000
REMARK  Name = C:\Users\Docking\Desktop\test protocol\1iep_ligandH.pdb
REMARK  8 active torsions:
REMARK  status: ('A' for Active; 'I' for Inactive)
REMARK    1  A    between atoms: _5  and  _11
REMARK    2  A    between atoms: _19  and  _21
REMARK    3  A    between atoms: _22  and  _66
REMARK    4  A    between atoms: _27  and  _30
REMARK    5  A    between atoms: _32  and  _33
REMARK    6  A    between atoms: _38  and  _43
REMARK    7  A    between atoms: _43  and  _46
REMARK    8  A    between atoms: _53  and  _55
REMARK                            x       y       z     vdW  Elec       q    Type
REMARK                         _______ _______ _______ _____ _____    ______ ____
ROOT
ATOM     10  C   UNL     1       5.089  -1.393  34.227  0.00  0.00    +0.038 A 
ATOM     11  C   UNL     1       5.792  -0.735  33.186  0.00  0.00    +0.047 A 
ATOM     12  C   UNL     1       5.120  -0.337  31.959  0.00  0.00    +0.035 A 
ATOM     32  C   UNL     1       3.730  -0.624  31.827  0.00  0.00    +0.024 A 
ATOM     33  C   UNL     1       3.000  -1.294  32.874  0.00  0.00    +0.007 A 
ATOM     34  C   UNL     1       3.659  -1.691  34.086  0.00  0.00    -0.029 A 
ATOM     35  C   UNL     1       2.828  -2.412  35.174  0.00  0.00    +0.045 C 
ENDROOT
BRANCH  10   9
ATOM      4  C   UNL     1       7.448  -4.582  36.930  0.00  0.00    +0.077 A 
ATOM      5  C   UNL     1       7.257  -5.628  35.968  0.00  0.00    +0.048 A 
ATOM      6  C   UNL     1       6.539  -5.307  34.794  0.00  0.00    +0.116 A 
ATOM      7  N   UNL     1       6.055  -4.030  34.606  0.00  0.00    -0.223 NA
ATOM      8  C   UNL     1       6.256  -3.045  35.555  0.00  0.00    +0.220 A 
ATOM      9  N   UNL     1       5.784  -1.752  35.384  0.00  0.00    -0.283 N 
ATOM     36  H   UNL     1       5.947  -1.056  36.111  0.00  0.00    +0.155 HD
ATOM     37  N   UNL     1       6.936  -3.327  36.686  0.00  0.00    -0.214 NA
BRANCH   4   3
ATOM      1  C   UNL     1       8.284  -5.251  40.692  0.00  0.00    +0.020 A 
ATOM      2  C   UNL     1       7.523  -5.084  39.476  0.00  0.00    +0.013 A 
ATOM      3  C   UNL     1       8.188  -4.765  38.219  0.00  0.00    +0.019 A 
ATOM     38  C   UNL     1       9.636  -4.622  38.227  0.00  0.00    +0.120 A 
ATOM     39  N   UNL     1      10.343  -4.788  39.414  0.00  0.00    -0.263 NA
ATOM     40  C   UNL     1       9.713  -5.093  40.630  0.00  0.00    +0.111 A 
ENDBRANCH   4   3
ENDBRANCH  10   9
BRANCH  12  13
ATOM     13  N   UNL     1       5.783   0.327  30.865  0.00  0.00    -0.281 N 
ATOM     14  C   UNL     1       6.405   1.564  30.871  0.00  0.00    +0.248 C 
ATOM     30  O   UNL     1       6.300   2.387  31.769  0.00  0.00    -0.270 OA
ATOM     31  H   UNL     1       5.795  -0.176  29.977  0.00  0.00    +0.155 HD
BRANCH  14  15
ATOM     15  C   UNL     1       7.257   1.950  29.705  0.00  0.00    +0.037 A 
ATOM     16  C   UNL     1       7.193   3.296  29.129  0.00  0.00    +0.013 A 
ATOM     17  C   UNL     1       8.012   3.637  27.994  0.00  0.00    +0.005 A 
ATOM     18  C   UNL     1       8.905   2.630  27.426  0.00  0.00    -0.033 A 
ATOM     28  C   UNL     1       8.952   1.304  28.020  0.00  0.00    +0.005 A 
ATOM     29  C   UNL     1       8.150   0.966  29.132  0.00  0.00    +0.013 A 
BRANCH  18  19
ATOM     19  C   UNL     1       9.799   2.899  26.202  0.00  0.00    +0.119 C 
BRANCH  19  20
ATOM     20  N   UNL     1       9.844   4.298  25.682  0.00  0.00    -0.302 NA
ATOM     21  C   UNL     1       9.477   4.371  24.197  0.00  0.00    +0.066 C 
ATOM     22  C   UNL     1       9.507   5.845  23.676  0.00  0.00    -0.064 C 
ATOM     23  N   UNL     1      10.893   6.442  23.921  0.00  0.00    +0.379 N 
ATOM     24  C   UNL     1      10.942   7.808  23.379  0.00  0.00    -0.096 C 
ATOM     25  H   UNL     1      11.631   5.827  23.355  0.00  0.00    -0.082 HD
ATOM     26  C   UNL     1      11.267   6.371  25.395  0.00  0.00    -0.064 C 
ATOM     27  C   UNL     1      11.206   4.906  25.910  0.00  0.00    +0.066 C 
ENDBRANCH  19  20
ENDBRANCH  18  19
ENDBRANCH  14  15
ENDBRANCH  12  13
TORSDOF 6
ENDMDL
MODEL 2
REMARK VINA RESULT:      -8.4     15.634     19.103
REMARK  Name = C:\Users\Docking\Desktop\test protocol\1iep_ligandH.pdb
REMARK  8 active torsions:
REMARK  status: ('A' for Active; 'I' for Inactive)
REMARK    1  A    between atoms: _5  and  _11
REMARK    2  A    between atoms: _19  and  _21
REMARK    3  A    between atoms: _22  and  _66
REMARK    4  A    between atoms: _27  and  _30
REMARK    5  A    between atoms: _32  and  _33
REMARK    6  A    between atoms: _38  and  _43
REMARK    7  A    between atoms: _43  and  _46
REMARK    8  A    between atoms: _53  and  _55
REMARK                            x       y       z     vdW  Elec       q    Type
REMARK                         _______ _______ _______ _____ _____    ______ ____
ROOT
ATOM     10  C   UNL     1      20.653  -6.891  37.168  0.00  0.00    +0.038 A 
ATOM     11  C   UNL     1      21.710  -7.074  36.240  0.00  0.00    +0.047 A 
ATOM     12  C   UNL     1      22.965  -6.352  36.377  0.00  0.00    +0.035 A 
ATOM     32  C   UNL     1      23.111  -5.453  37.473  0.00  0.00    +0.024 A 
ATOM     33  C   UNL     1      22.047  -5.254  38.425  0.00  0.00    +0.007 A 
ATOM     34  C   UNL     1      20.806  -5.961  38.294  0.00  0.00    -0.029 A 
ATOM     35  C   UNL     1      19.697  -5.704  39.341  0.00  0.00    +0.045 C 
ENDROOT
BRANCH  10   9
ATOM      4  C   UNL     1      16.681  -7.955  34.694  0.00  0.00    +0.077 A 
ATOM      5  C   UNL     1      16.974  -6.976  33.687  0.00  0.00    +0.048 A 
ATOM      6  C   UNL     1      18.154  -6.215  33.847  0.00  0.00    +0.116 A 
ATOM      7  N   UNL     1      18.971  -6.425  34.936  0.00  0.00    -0.223 NA
ATOM      8  C   UNL     1      18.658  -7.376  35.890  0.00  0.00    +0.220 A 
ATOM      9  N   UNL     1      19.470  -7.611  36.989  0.00  0.00    -0.283 N 
ATOM     36  H   UNL     1      19.200  -8.316  37.674  0.00  0.00    +0.155 HD
ATOM     37  N   UNL     1      17.537  -8.115  35.761  0.00  0.00    -0.214 NA
BRANCH   4   3
ATOM      1  C   UNL     1      14.232 -10.904  33.913  0.00  0.00    +0.020 A 
ATOM      2  C   UNL     1      15.423 -10.085  33.908  0.00  0.00    +0.013 A 
ATOM      3  C   UNL     1      15.473  -8.840  34.664  0.00  0.00    +0.019 A 
ATOM     38  C   UNL     1      14.293  -8.448  35.420  0.00  0.00    +0.120 A 
ATOM     39  N   UNL     1      13.160  -9.256  35.404  0.00  0.00    -0.263 NA
ATOM     40  C   UNL     1      13.099 -10.456  34.680  0.00  0.00    +0.111 A 
ENDBRANCH   4   3
ENDBRANCH  10   9
BRANCH  12  13
ATOM     13  N   UNL     1      24.070  -6.491  35.461  0.00  0.00    -0.281 N 
ATOM     14  C   UNL     1      25.286  -7.116  35.682  0.00  0.00    +0.248 C 
ATOM     30  O   UNL     1      25.693  -7.468  36.780  0.00  0.00    -0.270 OA
ATOM     31  H   UNL     1      23.941  -6.078  34.537  0.00  0.00    +0.155 HD
BRANCH  14  15
ATOM     15  C   UNL     1      26.187  -7.376  34.518  0.00  0.00    +0.037 A 
ATOM     16  C   UNL     1      27.587  -6.945  34.530  0.00  0.00    +0.013 A 
ATOM     17  C   UNL     1      28.430  -7.193  33.387  0.00  0.00    +0.005 A 
ATOM     18  C   UNL     1      27.874  -7.878  32.222  0.00  0.00    -0.033 A 
ATOM     28  C   UNL     1      26.483  -8.299  32.240  0.00  0.00    +0.005 A 
ATOM     29  C   UNL     1      25.654  -8.057  33.358  0.00  0.00    +0.013 A 
BRANCH  18  19
ATOM     19  C   UNL     1      28.694  -8.165  30.951  0.00  0.00    +0.119 C 
BRANCH  19  20
ATOM     20  N   UNL     1      29.026  -9.592  30.659  0.00  0.00    -0.302 NA
ATOM     21  C   UNL     1      30.513  -9.784  30.349  0.00  0.00    +0.066 C 
ATOM     22  C   UNL     1      30.846 -11.286  30.068  0.00  0.00    -0.064 C 
ATOM     23  N   UNL     1      29.982 -11.790  28.911  0.00  0.00    +0.379 N 
ATOM     24  C   UNL     1      30.334 -13.184  28.607  0.00  0.00    -0.096 C 
ATOM     25  H   UNL     1      30.227 -11.175  28.014  0.00  0.00    -0.082 HD
ATOM     26  C   UNL     1      28.502 -11.600  29.211  0.00  0.00    -0.064 C 
ATOM     27  C   UNL     1      28.186 -10.109  29.517  0.00  0.00    +0.066 C 
ENDBRANCH  19  20
ENDBRANCH  18  19
ENDBRANCH  14  15
ENDBRANCH  12  13
TORSDOF 6
ENDMDL
MODEL 3
REMARK VINA RESULT:      -8.1      3.497      4.506
REMARK  Name = C:\Users\Docking\Desktop\test protocol\1iep_ligandH.pdb
REMARK  8 active torsions:
REMARK  status: ('A' for Active; 'I' for Inactive)
REMARK    1  A    between atoms: _5  and  _11
REMARK    2  A    between atoms: _19  and  _21
REMARK    3  A    between atoms: _22  and  _66
REMARK    4  A    between atoms: _27  and  _30
REMARK    5  A    between atoms: _32  and  _33
REMARK    6  A    between atoms: _38  and  _43
REMARK    7  A    between atoms: _43  and  _46
REMARK    8  A    between atoms: _53  and  _55
REMARK                            x       y       z     vdW  Elec       q    Type
REMARK                         _______ _______ _______ _____ _____    ______ ____
ROOT
ATOM     10  C   UNL     1       6.693  -5.509  31.979  0.00  0.00    +0.038 A 
ATOM     11  C   UNL     1       6.891  -4.159  31.589  0.00  0.00    +0.047 A 
ATOM     12  C   UNL     1       5.765  -3.263  31.381  0.00  0.00    +0.035 A 
ATOM     32  C   UNL     1       4.449  -3.774  31.580  0.00  0.00    +0.024 A 
ATOM     33  C   UNL     1       4.229  -5.143  31.975  0.00  0.00    +0.007 A 
ATOM     34  C   UNL     1       5.336  -6.032  32.180  0.00  0.00    -0.029 A 
ATOM     35  C   UNL     1       5.041  -7.492  32.596  0.00  0.00    +0.045 C 
ENDROOT
BRANCH  10   9
ATOM      4  C   UNL     1       9.829  -7.813  34.787  0.00  0.00    +0.077 A 
ATOM      5  C   UNL     1       9.205  -7.328  35.984  0.00  0.00    +0.048 A 
ATOM      6  C   UNL     1       8.083  -6.482  35.833  0.00  0.00    +0.116 A 
ATOM      7  N   UNL     1       7.628  -6.153  34.575  0.00  0.00    -0.223 NA
ATOM      8  C   UNL     1       8.255  -6.637  33.441  0.00  0.00    +0.220 A 
ATOM      9  N   UNL     1       7.811  -6.325  32.165  0.00  0.00    -0.283 N 
ATOM     36  H   UNL     1       8.305  -6.696  31.354  0.00  0.00    +0.155 HD
ATOM     37  N   UNL     1       9.329  -7.445  33.558  0.00  0.00    -0.214 NA
BRANCH   4   3
ATOM      1  C   UNL     1      13.475  -9.187  35.139  0.00  0.00    +0.020 A 
ATOM      2  C   UNL     1      12.357  -8.273  35.161  0.00  0.00    +0.013 A 
ATOM      3  C   UNL     1      11.022  -8.719  34.782  0.00  0.00    +0.019 A 
ATOM     38  C   UNL     1      10.851 -10.108  34.385  0.00  0.00    +0.120 A 
ATOM     39  N   UNL     1      11.946 -10.966  34.372  0.00  0.00    -0.263 NA
ATOM     40  C   UNL     1      13.236 -10.547  34.733  0.00  0.00    +0.111 A 
ENDBRANCH   4   3
ENDBRANCH  10   9
BRANCH  12  13
ATOM     13  N   UNL     1       5.904  -1.886  30.977  0.00  0.00    -0.281 N 
ATOM     14  C   UNL     1       6.621  -0.882  31.608  0.00  0.00    +0.248 C 
ATOM     30  O   UNL     1       7.081  -0.966  32.737  0.00  0.00    -0.270 OA
ATOM     31  H   UNL     1       5.414  -1.618  30.123  0.00  0.00    +0.155 HD
BRANCH  14  15
ATOM     15  C   UNL     1       6.849   0.406  30.885  0.00  0.00    +0.037 A 
ATOM     16  C   UNL     1       6.330   1.673  31.407  0.00  0.00    +0.013 A 
ATOM     17  C   UNL     1       6.549   2.898  30.681  0.00  0.00    +0.005 A 
ATOM     18  C   UNL     1       7.293   2.863  29.424  0.00  0.00    -0.033 A 
ATOM     28  C   UNL     1       7.802   1.593  28.932  0.00  0.00    +0.005 A 
ATOM     29  C   UNL     1       7.588   0.390  29.640  0.00  0.00    +0.013 A 
BRANCH  18  19
ATOM     19  C   UNL     1       7.556   4.119  28.572  0.00  0.00    +0.119 C 
BRANCH  19  20
ATOM     20  N   UNL     1       8.372   3.946  27.333  0.00  0.00    -0.302 NA
ATOM     21  C   UNL     1       9.749   4.606  27.455  0.00  0.00    +0.066 C 
ATOM     22  C   UNL     1      10.597   4.396  26.158  0.00  0.00    -0.064 C 
ATOM     23  N   UNL     1       9.833   4.955  24.957  0.00  0.00    +0.379 N 
ATOM     24  C   UNL     1      10.653   4.812  23.745  0.00  0.00    -0.096 C 
ATOM     25  H   UNL     1       9.676   6.045  25.133  0.00  0.00    -0.082 HD
ATOM     26  C   UNL     1       8.462   4.306  24.830  0.00  0.00    -0.064 C 
ATOM     27  C   UNL     1       7.638   4.495  26.134  0.00  0.00    +0.066 C 
ENDBRANCH  19  20
ENDBRANCH  18  19
ENDBRANCH  14  15
ENDBRANCH  12  13
TORSDOF 6
ENDMDL
