MODEL 1
REMARK VINA RESULT:      -9.3      0.000      0.000
REMARK  Name = C:\Users\Docking\Desktop\test protocol\1iep_ligandH.pdb
REMARK  8 active torsions:
REMARK  status: ('A' for Active; 'I' for Inactive)
REMARK    1  A    between atoms: _5  and  _11
REMARK    2  A    between atoms: _19  and  _21
REMARK    3  A    between atoms: _22  and  _66
REMARK    4  A    between atoms: _27  and  _30
REMARK    5  A    between atoms: _32  and  _33
REMARK    6  A    between atoms: _38  and  _43
REMARK    7  A    between atoms: _43  and  _46
REMARK    8  A    between atoms: _53  and  _55
REMARK                            x       y       z     vdW  Elec       q    Type
REMARK                         _______ _______ _______ _____ _____    ______ ____
ROOT
ATOM     10  C   UNL     1      -3.015  -0.840 -19.269  0.00  0.00    +0.038 A 
ATOM     11  C   UNL     1      -2.286   0.009 -18.399  0.00  0.00    +0.047 A 
ATOM     12  C   UNL     1      -1.404   1.043 -18.919  0.00  0.00    +0.035 A 
ATOM     32  C   UNL     1      -1.291   1.185 -20.333  0.00  0.00    +0.024 A 
ATOM     33  C   UNL     1      -2.024   0.329 -21.233  0.00  0.00    +0.007 A 
ATOM     34  C   UNL     1      -2.893  -0.694 -20.725  0.00  0.00    -0.029 A 
ATOM     35  C   UNL     1      -3.649  -1.587 -21.736  0.00  0.00    +0.045 C 
ENDROOT
BRANCH  10   9
ATOM      4  C   UNL     1      -7.079  -2.210 -17.115  0.00  0.00    +0.077 A 
ATOM      5  C   UNL     1      -7.576  -0.865 -17.065  0.00  0.00    +0.048 A 
ATOM      6  C   UNL     1      -6.751   0.151 -17.598  0.00  0.00    +0.116 A 
ATOM      7  N   UNL     1      -5.524  -0.166 -18.139  0.00  0.00    -0.223 NA
ATOM      8  C   UNL     1      -5.074  -1.473 -18.169  0.00  0.00    +0.220 A 
ATOM      9  N   UNL     1      -3.847  -1.816 -18.715  0.00  0.00    -0.283 N 
ATOM     36  H   UNL     1      -3.548  -2.791 -18.712  0.00  0.00    +0.155 HD
ATOM     37  N   UNL     1      -5.842  -2.462 -17.665  0.00  0.00    -0.214 NA
BRANCH   4   3
ATOM      1  C   UNL     1      -9.972  -4.627 -16.069  0.00  0.00    +0.020 A 
ATOM      2  C   UNL     1      -9.291  -3.460 -16.582  0.00  0.00    +0.013 A 
ATOM      3  C   UNL     1      -7.835  -3.394 -16.595  0.00  0.00    +0.019 A 
ATOM     38  C   UNL     1      -7.092  -4.533 -16.079  0.00  0.00    +0.120 A 
ATOM     39  N   UNL     1      -7.775  -5.642 -15.590  0.00  0.00    -0.263 NA
ATOM     40  C   UNL     1      -9.176  -5.717 -15.571  0.00  0.00    +0.111 A 
ENDBRANCH   4   3
ENDBRANCH  10   9
BRANCH  12  13
ATOM     13  N   UNL     1      -0.633   1.930 -18.084  0.00  0.00    -0.281 N 
ATOM     14  C   UNL     1      -0.796   3.294 -17.913  0.00  0.00    +0.248 C 
ATOM     30  O   UNL     1      -1.500   4.001 -18.620  0.00  0.00    -0.270 OA
ATOM     31  H   UNL     1       0.126   1.499 -17.555  0.00  0.00    +0.155 HD
BRANCH  14  15
ATOM     15  C   UNL     1      -0.060   3.976 -16.804  0.00  0.00    +0.037 A 
ATOM     16  C   UNL     1       1.117   3.363 -16.184  0.00  0.00    +0.013 A 
ATOM     17  C   UNL     1       1.798   4.034 -15.106  0.00  0.00    +0.005 A 
ATOM     18  C   UNL     1       1.304   5.328 -14.641  0.00  0.00    -0.033 A 
ATOM     28  C   UNL     1       0.137   5.915 -15.278  0.00  0.00    +0.005 A 
ATOM     29  C   UNL     1      -0.534   5.260 -16.334  0.00  0.00    +0.013 A 
BRANCH  18  19
ATOM     19  C   UNL     1       1.955   6.105 -13.482  0.00  0.00    +0.119 C 
BRANCH  19  20
ATOM     20  N   UNL     1       3.323   5.681 -13.058  0.00  0.00    -0.302 NA
ATOM     21  C   UNL     1       3.341   5.149 -11.622  0.00  0.00    +0.066 C 
ATOM     22  C   UNL     1       4.775   4.690 -11.203  0.00  0.00    -0.064 C 
ATOM     23  N   UNL     1       5.749   5.859 -11.360  0.00  0.00    +0.379 N 
ATOM     24  C   UNL     1       7.087   5.447 -10.911  0.00  0.00    -0.096 C 
ATOM     25  H   UNL     1       5.403   6.678 -10.686  0.00  0.00    -0.082 HD
ATOM     26  C   UNL     1       5.735   6.396 -12.784  0.00  0.00    -0.064 C 
ATOM     27  C   UNL     1       4.300   6.823 -13.200  0.00  0.00    +0.066 C 
ENDBRANCH  19  20
ENDBRANCH  18  19
ENDBRANCH  14  15
ENDBRANCH  12  13
TORSDOF 6
ENDMDL
MODEL 2
REMARK VINA RESULT:      -9.1      1.656      2.377
REMARK  Name = C:\Users\Docking\Desktop\test protocol\1iep_ligandH.pdb
REMARK  8 active torsions:
REMARK  status: ('A' for Active; 'I' for Inactive)
REMARK    1  A    between atoms: _5  and  _11
REMARK    2  A    between atoms: _19  and  _21
REMARK    3  A    between atoms: _22  and  _66
REMARK    4  A    between atoms: _27  and  _30
REMARK    5  A    between atoms: _32  and  _33
REMARK    6  A    between atoms: _38  and  _43
REMARK    7  A    between atoms: _43  and  _46
REMARK    8  A    between atoms: _53  and  _55
REMARK                            x       y       z     vdW  Elec       q    Type
REMARK                         _______ _______ _______ _____ _____    ______ ____
ROOT
ATOM     10  C   UNL     1      -3.649  -0.982 -19.347  0.00  0.00    +0.038 A 
ATOM     11  C   UNL     1      -2.677  -0.396 -18.497  0.00  0.00    +0.047 A 
ATOM     12  C   UNL     1      -1.849   0.711 -18.952  0.00  0.00    +0.035 A 
ATOM     32  C   UNL     1      -2.041   1.197 -20.278  0.00  0.00    +0.024 A 
ATOM     33  C   UNL     1      -3.024   0.612 -21.156  0.00  0.00    +0.007 A 
ATOM     34  C   UNL     1      -3.841  -0.482 -20.713  0.00  0.00    -0.029 A 
ATOM     35  C   UNL     1      -4.874  -1.074 -21.699  0.00  0.00    +0.045 C 
ENDROOT
BRANCH  10   9
ATOM      4  C   UNL     1      -7.250  -2.735 -16.702  0.00  0.00    +0.077 A 
ATOM      5  C   UNL     1      -7.618  -1.431 -16.232  0.00  0.00    +0.048 A 
ATOM      6  C   UNL     1      -6.851  -0.336 -16.689  0.00  0.00    +0.116 A 
ATOM      7  N   UNL     1      -5.796  -0.542 -17.552  0.00  0.00    -0.223 NA
ATOM      8  C   UNL     1      -5.467  -1.813 -17.984  0.00  0.00    +0.220 A 
ATOM      9  N   UNL     1      -4.415  -2.043 -18.859  0.00  0.00    -0.283 N 
ATOM     36  H   UNL     1      -4.200  -2.996 -19.148  0.00  0.00    +0.155 HD
ATOM     37  N   UNL     1      -6.183  -2.875 -17.561  0.00  0.00    -0.214 NA
BRANCH   4   3
ATOM      1  C   UNL     1      -8.017  -6.354 -15.430  0.00  0.00    +0.020 A 
ATOM      2  C   UNL     1      -7.278  -5.167 -15.793  0.00  0.00    +0.013 A 
ATOM      3  C   UNL     1      -7.966  -3.991 -16.311  0.00  0.00    +0.019 A 
ATOM     38  C   UNL     1      -9.413  -4.049 -16.449  0.00  0.00    +0.120 A 
ATOM     39  N   UNL     1     -10.098  -5.206 -16.093  0.00  0.00    -0.263 NA
ATOM     40  C   UNL     1      -9.447  -6.345 -15.595  0.00  0.00    +0.111 A 
ENDBRANCH   4   3
ENDBRANCH  10   9
BRANCH  12  13
ATOM     13  N   UNL     1      -0.841   1.342 -18.137  0.00  0.00    -0.281 N 
ATOM     14  C   UNL     1      -0.643   2.696 -17.922  0.00  0.00    +0.248 C 
ATOM     30  O   UNL     1      -1.175   3.584 -18.572  0.00  0.00    -0.270 OA
ATOM     31  H   UNL     1      -0.194   0.713 -17.660  0.00  0.00    +0.155 HD
BRANCH  14  15
ATOM     15  C   UNL     1       0.291   3.127 -16.838  0.00  0.00    +0.037 A 
ATOM     16  C   UNL     1       1.290   2.208 -16.287  0.00  0.00    +0.013 A 
ATOM     17  C   UNL     1       2.168   2.643 -15.230  0.00  0.00    +0.005 A 
ATOM     18  C   UNL     1       2.051   4.007 -14.717  0.00  0.00    -0.033 A 
ATOM     28  C   UNL     1       1.054   4.899 -15.286  0.00  0.00    +0.005 A 
ATOM     29  C   UNL     1       0.191   4.475 -16.321  0.00  0.00    +0.013 A 
BRANCH  18  19
ATOM     19  C   UNL     1       2.931   4.550 -13.576  0.00  0.00    +0.119 C 
BRANCH  19  20
ATOM     20  N   UNL     1       2.445   4.343 -12.180  0.00  0.00    -0.302 NA
ATOM     21  C   UNL     1       1.420   3.209 -12.090  0.00  0.00    +0.066 C 
ATOM     22  C   UNL     1       0.939   2.992 -10.619  0.00  0.00    -0.064 C 
ATOM     23  N   UNL     1       0.351   4.297 -10.079  0.00  0.00    +0.379 N 
ATOM     24  C   UNL     1      -0.155   4.080  -8.716  0.00  0.00    -0.096 C 
ATOM     25  H   UNL     1      -0.517   4.568 -10.723  0.00  0.00    -0.082 HD
ATOM     26  C   UNL     1       1.363   5.430 -10.166  0.00  0.00    -0.064 C 
ATOM     27  C   UNL     1       1.857   5.619 -11.628  0.00  0.00    +0.066 C 
ENDBRANCH  19  20
ENDBRANCH  18  19
ENDBRANCH  14  15
ENDBRANCH  12  13
TORSDOF 6
ENDMDL
MODEL 3
REMARK VINA RESULT:      -8.9      5.495      9.220
REMARK  Name = C:\Users\Docking\Desktop\test protocol\1iep_ligandH.pdb
REMARK  8 active torsions:
REMARK  status: ('A' for Active; 'I' for Inactive)
REMARK    1  A    between atoms: _5  and  _11
REMARK    2  A    between atoms: _19  and  _21
REMARK    3  A    between atoms: _22  and  _66
REMARK    4  A    between atoms: _27  and  _30
REMARK    5  A    between atoms: _32  and  _33
REMARK    6  A    between atoms: _38  and  _43
REMARK    7  A    between atoms: _43  and  _46
REMARK    8  A    between atoms: _53  and  _55
REMARK                            x       y       z     vdW  Elec       q    Type
REMARK                         _______ _______ _______ _____ _____    ______ ____
ROOT
ATOM     10  C   UNL     1      -7.645  -6.375 -14.974  0.00  0.00    +0.038 A 
ATOM     11  C   UNL     1      -7.120  -5.176 -15.521  0.00  0.00    +0.047 A 
ATOM     12  C   UNL     1      -6.952  -5.013 -16.956  0.00  0.00    +0.035 A 
ATOM     32  C   UNL     1      -7.332  -6.092 -17.807  0.00  0.00    +0.024 A 
ATOM     33  C   UNL     1      -7.866  -7.318 -17.269  0.00  0.00    +0.007 A 
ATOM     34  C   UNL     1      -8.032  -7.485 -15.853  0.00  0.00    -0.029 A 
ATOM     35  C   UNL     1      -8.603  -8.824 -15.331  0.00  0.00    +0.045 C 
ENDROOT
BRANCH  10   9
ATOM      4  C   UNL     1     -10.267  -6.178 -10.959  0.00  0.00    +0.077 A 
ATOM      5  C   UNL     1     -11.453  -5.815 -11.681  0.00  0.00    +0.048 A 
ATOM      6  C   UNL     1     -11.344  -5.683 -13.083  0.00  0.00    +0.116 A 
ATOM      7  N   UNL     1     -10.134  -5.900 -13.707  0.00  0.00    -0.223 NA
ATOM      8  C   UNL     1      -9.009  -6.246 -12.981  0.00  0.00    +0.220 A 
ATOM      9  N   UNL     1      -7.785  -6.477 -13.588  0.00  0.00    -0.283 N 
ATOM     36  H   UNL     1      -6.977  -6.723 -13.017  0.00  0.00    +0.155 HD
ATOM     37  N   UNL     1      -9.087  -6.378 -11.640  0.00  0.00    -0.214 NA
BRANCH   4   3
ATOM      1  C   UNL     1     -10.688  -7.665  -7.366  0.00  0.00    +0.020 A 
ATOM      2  C   UNL     1     -10.756  -7.539  -8.803  0.00  0.00    +0.013 A 
ATOM      3  C   UNL     1     -10.223  -6.360  -9.473  0.00  0.00    +0.019 A 
ATOM     38  C   UNL     1      -9.621  -5.319  -8.654  0.00  0.00    +0.120 A 
ATOM     39  N   UNL     1      -9.571  -5.467  -7.271  0.00  0.00    -0.263 NA
ATOM     40  C   UNL     1     -10.083  -6.597  -6.615  0.00  0.00    +0.111 A 
ENDBRANCH   4   3
ENDBRANCH  10   9
BRANCH  12  13
ATOM     13  N   UNL     1      -6.417  -3.822 -17.568  0.00  0.00    -0.281 N 
ATOM     14  C   UNL     1      -6.322  -2.553 -17.021  0.00  0.00    +0.248 C 
ATOM     30  O   UNL     1      -6.881  -2.200 -15.994  0.00  0.00    -0.270 OA
ATOM     31  H   UNL     1      -6.066  -3.928 -18.520  0.00  0.00    +0.155 HD
BRANCH  14  15
ATOM     15  C   UNL     1      -5.498  -1.524 -17.725  0.00  0.00    +0.037 A 
ATOM     16  C   UNL     1      -4.112  -1.795 -18.113  0.00  0.00    +0.013 A 
ATOM     17  C   UNL     1      -3.334  -0.779 -18.776  0.00  0.00    +0.005 A 
ATOM     18  C   UNL     1      -3.942   0.520 -19.056  0.00  0.00    -0.033 A 
ATOM     28  C   UNL     1      -5.321   0.761 -18.664  0.00  0.00    +0.005 A 
ATOM     29  C   UNL     1      -6.086  -0.233 -18.014  0.00  0.00    +0.013 A 
BRANCH  18  19
ATOM     19  C   UNL     1      -3.180   1.670 -19.740  0.00  0.00    +0.119 C 
BRANCH  19  20
ATOM     20  N   UNL     1      -3.554   3.063 -19.352  0.00  0.00    -0.302 NA
ATOM     21  C   UNL     1      -4.246   3.811 -20.496  0.00  0.00    +0.066 C 
ATOM     22  C   UNL     1      -4.650   5.259 -20.066  0.00  0.00    -0.064 C 
ATOM     23  N   UNL     1      -3.406   6.016 -19.599  0.00  0.00    +0.379 N 
ATOM     24  C   UNL     1      -3.773   7.396 -19.249  0.00  0.00    -0.096 C 
ATOM     25  H   UNL     1      -2.696   6.062 -20.457  0.00  0.00    -0.082 HD
ATOM     26  C   UNL     1      -2.710   5.278 -18.464  0.00  0.00    -0.064 C 
ATOM     27  C   UNL     1      -2.339   3.830 -18.891  0.00  0.00    +0.066 C 
ENDBRANCH  19  20
ENDBRANCH  18  19
ENDBRANCH  14  15
ENDBRANCH  12  13
TORSDOF 6
ENDMDL
