MODEL 1
REMARK VINA RESULT:      -9.7      0.000      0.000
REMARK  Name = C:\Users\Docking\Desktop\test protocol\1iep_ligandH.pdb
REMARK  8 active torsions:
REMARK  status: ('A' for Active; 'I' for Inactive)
REMARK    1  A    between atoms: _5  and  _11
REMARK    2  A    between atoms: _19  and  _21
REMARK    3  A    between atoms: _22  and  _66
REMARK    4  A    between atoms: _27  and  _30
REMARK    5  A    between atoms: _32  and  _33
REMARK    6  A    between atoms: _38  and  _43
REMARK    7  A    between atoms: _43  and  _46
REMARK    8  A    between atoms: _53  and  _55
REMARK                            x       y       z     vdW  Elec       q    Type
REMARK                         _______ _______ _______ _____ _____    ______ ____
ROOT
ATOM     10  C   UNL     1      99.524  17.712  23.843  0.00  0.00    +0.038 A 
ATOM     11  C   UNL     1      99.307  17.413  22.474  0.00  0.00    +0.047 A 
ATOM     12  C   UNL     1      99.878  16.222  21.864  0.00  0.00    +0.035 A 
ATOM     32  C   UNL     1     100.663  15.356  22.679  0.00  0.00    +0.024 A 
ATOM     33  C   UNL     1     100.895  15.645  24.073  0.00  0.00    +0.007 A 
ATOM     34  C   UNL     1     100.336  16.819  24.679  0.00  0.00    -0.029 A 
ATOM     35  C   UNL     1     100.623  17.083  26.176  0.00  0.00    +0.045 C 
ENDROOT
BRANCH  10   9
ATOM      4  C   UNL     1      99.335  22.477  24.387  0.00  0.00    +0.077 A 
ATOM      5  C   UNL     1     100.490  22.677  23.560  0.00  0.00    +0.048 A 
ATOM      6  C   UNL     1     101.107  21.527  23.019  0.00  0.00    +0.116 A 
ATOM      7  N   UNL     1     100.599  20.275  23.292  0.00  0.00    -0.223 NA
ATOM      8  C   UNL     1      99.485  20.117  24.096  0.00  0.00    +0.220 A 
ATOM      9  N   UNL     1      98.952  18.869  24.377  0.00  0.00    -0.283 N 
ATOM     36  H   UNL     1      98.133  18.794  24.980  0.00  0.00    +0.155 HD
ATOM     37  N   UNL     1      98.878  21.200  24.625  0.00  0.00    -0.214 NA
BRANCH   4   3
ATOM      1  C   UNL     1      96.441  24.857  25.510  0.00  0.00    +0.020 A 
ATOM      2  C   UNL     1      97.132  23.762  24.869  0.00  0.00    +0.013 A 
ATOM      3  C   UNL     1      98.570  23.593  25.028  0.00  0.00    +0.019 A 
ATOM     38  C   UNL     1      99.286  24.557  25.850  0.00  0.00    +0.120 A 
ATOM     39  N   UNL     1      98.595  25.603  26.454  0.00  0.00    -0.263 NA
ATOM     40  C   UNL     1      97.211  25.776  26.307  0.00  0.00    +0.111 A 
ENDBRANCH   4   3
ENDBRANCH  10   9
BRANCH  12  13
ATOM     13  N   UNL     1      99.698  15.871  20.477  0.00  0.00    -0.281 N 
ATOM     14  C   UNL     1      98.599  15.270  19.886  0.00  0.00    +0.248 C 
ATOM     30  O   UNL     1      97.683  14.747  20.502  0.00  0.00    -0.270 OA
ATOM     31  H   UNL     1     100.477  16.092  19.855  0.00  0.00    +0.155 HD
BRANCH  14  15
ATOM     15  C   UNL     1      98.511  15.233  18.394  0.00  0.00    +0.037 A 
ATOM     16  C   UNL     1      98.706  16.443  17.591  0.00  0.00    +0.013 A 
ATOM     17  C   UNL     1      98.599  16.383  16.155  0.00  0.00    +0.005 A 
ATOM     18  C   UNL     1      98.297  15.106  15.512  0.00  0.00    -0.033 A 
ATOM     28  C   UNL     1      98.114  13.920  16.333  0.00  0.00    +0.005 A 
ATOM     29  C   UNL     1      98.217  13.976  17.741  0.00  0.00    +0.013 A 
BRANCH  18  19
ATOM     19  C   UNL     1      98.144  14.953  13.988  0.00  0.00    +0.119 C 
BRANCH  19  20
ATOM     20  N   UNL     1      99.298  14.370  13.239  0.00  0.00    -0.302 NA
ATOM     21  C   UNL     1     100.393  15.407  12.975  0.00  0.00    +0.066 C 
ATOM     22  C   UNL     1     101.603  14.775  12.212  0.00  0.00    -0.064 C 
ATOM     23  N   UNL     1     101.110  14.162  10.900  0.00  0.00    +0.379 N 
ATOM     24  C   UNL     1     102.253  13.618  10.152  0.00  0.00    -0.096 C 
ATOM     25  H   UNL     1     100.665  14.982  10.290  0.00  0.00    -0.082 HD
ATOM     26  C   UNL     1     100.018  13.132  11.153  0.00  0.00    -0.064 C 
ATOM     27  C   UNL     1      98.834  13.763  11.938  0.00  0.00    +0.066 C 
ENDBRANCH  19  20
ENDBRANCH  18  19
ENDBRANCH  14  15
ENDBRANCH  12  13
TORSDOF 6
ENDMDL
MODEL 2
REMARK VINA RESULT:      -8.6     13.679     19.777
REMARK  Name = C:\Users\Docking\Desktop\test protocol\1iep_ligandH.pdb
REMARK  8 active torsions:
REMARK  status: ('A' for Active; 'I' for Inactive)
REMARK    1  A    between atoms: _5  and  _11
REMARK    2  A    between atoms: _19  and  _21
REMARK    3  A    between atoms: _22  and  _66
REMARK    4  A    between atoms: _27  and  _30
REMARK    5  A    between atoms: _32  and  _33
REMARK    6  A    between atoms: _38  and  _43
REMARK    7  A    between atoms: _43  and  _46
REMARK    8  A    between atoms: _53  and  _55
REMARK                            x       y       z     vdW  Elec       q    Type
REMARK                         _______ _______ _______ _____ _____    ______ ____
ROOT
ATOM     10  C   UNL     1      91.821  11.678   8.110  0.00  0.00    +0.038 A 
ATOM     11  C   UNL     1      91.004  11.005   7.166  0.00  0.00    +0.047 A 
ATOM     12  C   UNL     1      91.032  11.362   5.756  0.00  0.00    +0.035 A 
ATOM     32  C   UNL     1      91.906  12.409   5.342  0.00  0.00    +0.024 A 
ATOM     33  C   UNL     1      92.743  13.105   6.288  0.00  0.00    +0.007 A 
ATOM     34  C   UNL     1      92.718  12.758   7.680  0.00  0.00    -0.029 A 
ATOM     35  C   UNL     1      93.632  13.541   8.651  0.00  0.00    +0.045 C 
ENDROOT
BRANCH  10   9
ATOM      4  C   UNL     1      93.118   8.864  11.775  0.00  0.00    +0.077 A 
ATOM      5  C   UNL     1      93.981   8.076  10.943  0.00  0.00    +0.048 A 
ATOM      6  C   UNL     1      94.057   8.423   9.575  0.00  0.00    +0.116 A 
ATOM      7  N   UNL     1      93.321   9.482   9.088  0.00  0.00    -0.223 NA
ATOM      8  C   UNL     1      92.498  10.220   9.918  0.00  0.00    +0.220 A 
ATOM      9  N   UNL     1      91.755  11.293   9.451  0.00  0.00    -0.283 N 
ATOM     36  H   UNL     1      91.153  11.808  10.093  0.00  0.00    +0.155 HD
ATOM     37  N   UNL     1      92.406   9.907  11.227  0.00  0.00    -0.214 NA
BRANCH   4   3
ATOM      1  C   UNL     1      92.585   7.114  15.233  0.00  0.00    +0.020 A 
ATOM      2  C   UNL     1      92.759   7.292  13.810  0.00  0.00    +0.013 A 
ATOM      3  C   UNL     1      92.933   8.623  13.241  0.00  0.00    +0.019 A 
ATOM     38  C   UNL     1      92.927   9.761  14.148  0.00  0.00    +0.120 A 
ATOM     39  N   UNL     1      92.756   9.559  15.514  0.00  0.00    -0.263 NA
ATOM     40  C   UNL     1      92.585   8.283  16.072  0.00  0.00    +0.111 A 
ENDBRANCH   4   3
ENDBRANCH  10   9
BRANCH  12  13
ATOM     13  N   UNL     1      90.219  10.720   4.753  0.00  0.00    -0.281 N 
ATOM     14  C   UNL     1      90.624   9.838   3.765  0.00  0.00    +0.248 C 
ATOM     30  O   UNL     1      91.789   9.632   3.458  0.00  0.00    -0.270 OA
ATOM     31  H   UNL     1      89.224  10.943   4.774  0.00  0.00    +0.155 HD
BRANCH  14  15
ATOM     15  C   UNL     1      89.585   9.087   2.996  0.00  0.00    +0.037 A 
ATOM     16  C   UNL     1      89.826   8.653   1.618  0.00  0.00    +0.013 A 
ATOM     17  C   UNL     1      88.800   7.945   0.894  0.00  0.00    +0.005 A 
ATOM     18  C   UNL     1      87.524   7.666   1.548  0.00  0.00    -0.033 A 
ATOM     28  C   UNL     1      87.314   8.104   2.918  0.00  0.00    +0.005 A 
ATOM     29  C   UNL     1      88.317   8.799   3.631  0.00  0.00    +0.013 A 
BRANCH  18  19
ATOM     19  C   UNL     1      86.365   6.935   0.844  0.00  0.00    +0.119 C 
BRANCH  19  20
ATOM     20  N   UNL     1      85.501   6.054   1.685  0.00  0.00    -0.302 NA
ATOM     21  C   UNL     1      85.540   4.596   1.219  0.00  0.00    +0.066 C 
ATOM     22  C   UNL     1      84.648   3.685   2.124  0.00  0.00    -0.064 C 
ATOM     23  N   UNL     1      83.214   4.216   2.121  0.00  0.00    +0.379 N 
ATOM     24  C   UNL     1      82.360   3.328   2.924  0.00  0.00    -0.096 C 
ATOM     25  H   UNL     1      82.843   4.182   1.070  0.00  0.00    -0.082 HD
ATOM     26  C   UNL     1      83.166   5.666   2.581  0.00  0.00    -0.064 C 
ATOM     27  C   UNL     1      84.079   6.558   1.693  0.00  0.00    +0.066 C 
ENDBRANCH  19  20
ENDBRANCH  18  19
ENDBRANCH  14  15
ENDBRANCH  12  13
TORSDOF 6
ENDMDL
MODEL 3
REMARK VINA RESULT:      -8.2     13.898     20.134
REMARK  Name = C:\Users\Docking\Desktop\test protocol\1iep_ligandH.pdb
REMARK  8 active torsions:
REMARK  status: ('A' for Active; 'I' for Inactive)
REMARK    1  A    between atoms: _5  and  _11
REMARK    2  A    between atoms: _19  and  _21
REMARK    3  A    between atoms: _22  and  _66
REMARK    4  A    between atoms: _27  and  _30
REMARK    5  A    between atoms: _32  and  _33
REMARK    6  A    between atoms: _38  and  _43
REMARK    7  A    between atoms: _43  and  _46
REMARK    8  A    between atoms: _53  and  _55
REMARK                            x       y       z     vdW  Elec       q    Type
REMARK                         _______ _______ _______ _____ _____    ______ ____
ROOT
ATOM     10  C   UNL     1      91.541  11.479   7.918  0.00  0.00    +0.038 A 
ATOM     11  C   UNL     1      90.780  10.670   7.037  0.00  0.00    +0.047 A 
ATOM     12  C   UNL     1      90.752  10.934   5.607  0.00  0.00    +0.035 A 
ATOM     32  C   UNL     1      91.514  12.030   5.108  0.00  0.00    +0.024 A 
ATOM     33  C   UNL     1      92.293  12.864   5.989  0.00  0.00    +0.007 A 
ATOM     34  C   UNL     1      92.322  12.609   7.401  0.00  0.00    -0.029 A 
ATOM     35  C   UNL     1      93.169  13.540   8.300  0.00  0.00    +0.045 C 
ENDROOT
BRANCH  10   9
ATOM      4  C   UNL     1      93.021   8.922  11.701  0.00  0.00    +0.077 A 
ATOM      5  C   UNL     1      93.864   8.095  10.887  0.00  0.00    +0.048 A 
ATOM      6  C   UNL     1      93.882   8.355   9.498  0.00  0.00    +0.116 A 
ATOM      7  N   UNL     1      93.112   9.371   8.974  0.00  0.00    -0.223 NA
ATOM      8  C   UNL     1      92.309  10.149   9.787  0.00  0.00    +0.220 A 
ATOM      9  N   UNL     1      91.532  11.180   9.283  0.00  0.00    -0.283 N 
ATOM     36  H   UNL     1      90.947  11.727   9.914  0.00  0.00    +0.155 HD
ATOM     37  N   UNL     1      92.272   9.919  11.116  0.00  0.00    -0.214 NA
BRANCH   4   3
ATOM      1  C   UNL     1      92.734   7.387  15.288  0.00  0.00    +0.020 A 
ATOM      2  C   UNL     1      92.856   7.476  13.851  0.00  0.00    +0.013 A 
ATOM      3  C   UNL     1      92.896   8.773  13.186  0.00  0.00    +0.019 A 
ATOM     38  C   UNL     1      92.811   9.969  14.010  0.00  0.00    +0.120 A 
ATOM     39  N   UNL     1      92.693   9.852  15.392  0.00  0.00    -0.263 NA
ATOM     40  C   UNL     1      92.652   8.610  16.042  0.00  0.00    +0.111 A 
ENDBRANCH   4   3
ENDBRANCH  10   9
BRANCH  12  13
ATOM     13  N   UNL     1      89.991  10.151   4.665  0.00  0.00    -0.281 N 
ATOM     14  C   UNL     1      89.305  10.596   3.547  0.00  0.00    +0.248 C 
ATOM     30  O   UNL     1      89.063  11.769   3.305  0.00  0.00    -0.270 OA
ATOM     31  H   UNL     1      89.953   9.148   4.845  0.00  0.00    +0.155 HD
BRANCH  14  15
ATOM     15  C   UNL     1      88.802   9.590   2.562  0.00  0.00    +0.037 A 
ATOM     16  C   UNL     1      89.228   9.620   1.160  0.00  0.00    +0.013 A 
ATOM     17  C   UNL     1      88.715   8.649   0.227  0.00  0.00    +0.005 A 
ATOM     18  C   UNL     1      87.768   7.638   0.694  0.00  0.00    -0.033 A 
ATOM     28  C   UNL     1      87.366   7.629   2.090  0.00  0.00    +0.005 A 
ATOM     29  C   UNL     1      87.867   8.579   3.008  0.00  0.00    +0.013 A 
BRANCH  18  19
ATOM     19  C   UNL     1      87.153   6.576  -0.237  0.00  0.00    +0.119 C 
BRANCH  19  20
ATOM     20  N   UNL     1      87.029   6.924  -1.684  0.00  0.00    -0.302 NA
ATOM     21  C   UNL     1      85.582   7.233  -2.078  0.00  0.00    +0.066 C 
ATOM     22  C   UNL     1      85.474   7.617  -3.590  0.00  0.00    -0.064 C 
ATOM     23  N   UNL     1      86.037   6.479  -4.444  0.00  0.00    +0.379 N 
ATOM     24  C   UNL     1      85.884   6.812  -5.867  0.00  0.00    -0.096 C 
ATOM     25  H   UNL     1      85.425   5.570  -4.241  0.00  0.00    -0.082 HD
ATOM     26  C   UNL     1      87.475   6.164  -4.056  0.00  0.00    -0.064 C 
ATOM     27  C   UNL     1      87.575   5.813  -2.545  0.00  0.00    +0.066 C 
ENDBRANCH  19  20
ENDBRANCH  18  19
ENDBRANCH  14  15
ENDBRANCH  12  13
TORSDOF 6
ENDMDL
MODEL 4
REMARK VINA RESULT:      -8.0     20.721     23.760
REMARK  Name = C:\Users\Docking\Desktop\test protocol\1iep_ligandH.pdb
REMARK  8 active torsions:
REMARK  status: ('A' for Active; 'I' for Inactive)
REMARK    1  A    between atoms: _5  and  _11
REMARK    2  A    between atoms: _19  and  _21
REMARK    3  A    between atoms: _22  and  _66
REMARK    4  A    between atoms: _27  and  _30
REMARK    5  A    between atoms: _32  and  _33
REMARK    6  A    between atoms: _38  and  _43
REMARK    7  A    between atoms: _43  and  _46
REMARK    8  A    between atoms: _53  and  _55
REMARK                            x       y       z     vdW  Elec       q    Type
REMARK                         _______ _______ _______ _____ _____    ______ ____
ROOT
ATOM     10  C   UNL     1      83.624  17.295  32.638  0.00  0.00    +0.038 A 
ATOM     11  C   UNL     1      82.484  17.108  31.814  0.00  0.00    +0.047 A 
ATOM     12  C   UNL     1      81.640  18.229  31.431  0.00  0.00    +0.035 A 
ATOM     32  C   UNL     1      81.987  19.528  31.903  0.00  0.00    +0.024 A 
ATOM     33  C   UNL     1      83.141  19.736  32.742  0.00  0.00    +0.007 A 
ATOM     34  C   UNL     1      83.976  18.634  33.125  0.00  0.00    -0.029 A 
ATOM     35  C   UNL     1      85.197  18.915  34.032  0.00  0.00    +0.045 C 
ENDROOT
BRANCH  10   9
ATOM      4  C   UNL     1      84.466  13.356  35.247  0.00  0.00    +0.077 A 
ATOM      5  C   UNL     1      83.274  13.543  36.023  0.00  0.00    +0.048 A 
ATOM      6  C   UNL     1      82.476  14.670  35.724  0.00  0.00    +0.116 A 
ATOM      7  N   UNL     1      82.850  15.537  34.721  0.00  0.00    -0.223 NA
ATOM      8  C   UNL     1      84.007  15.328  33.993  0.00  0.00    +0.220 A 
ATOM      9  N   UNL     1      84.399  16.183  32.974  0.00  0.00    -0.283 N 
ATOM     36  H   UNL     1      85.263  15.998  32.465  0.00  0.00    +0.155 HD
ATOM     37  N   UNL     1      84.788  14.260  34.260  0.00  0.00    -0.214 NA
BRANCH   4   3
ATOM      1  C   UNL     1      87.685  11.134  35.261  0.00  0.00    +0.020 A 
ATOM      2  C   UNL     1      86.814  12.267  35.051  0.00  0.00    +0.013 A 
ATOM      3  C   UNL     1      85.411  12.211  35.441  0.00  0.00    +0.019 A 
ATOM     38  C   UNL     1      84.917  10.984  36.048  0.00  0.00    +0.120 A 
ATOM     39  N   UNL     1      85.779   9.908  36.236  0.00  0.00    -0.263 NA
ATOM     40  C   UNL     1      87.131   9.950  35.863  0.00  0.00    +0.111 A 
ENDBRANCH   4   3
ENDBRANCH  10   9
BRANCH  12  13
ATOM     13  N   UNL     1      80.467  18.099  30.603  0.00  0.00    -0.281 N 
ATOM     14  C   UNL     1      79.149  17.962  31.009  0.00  0.00    +0.248 C 
ATOM     30  O   UNL     1      78.801  17.715  32.154  0.00  0.00    -0.270 OA
ATOM     31  H   UNL     1      80.627  18.109  29.596  0.00  0.00    +0.155 HD
BRANCH  14  15
ATOM     15  C   UNL     1      78.062  18.105  29.994  0.00  0.00    +0.037 A 
ATOM     16  C   UNL     1      77.118  19.225  30.044  0.00  0.00    +0.013 A 
ATOM     17  C   UNL     1      76.068  19.330  29.062  0.00  0.00    +0.005 A 
ATOM     18  C   UNL     1      75.958  18.313  28.019  0.00  0.00    -0.033 A 
ATOM     28  C   UNL     1      76.911  17.217  27.989  0.00  0.00    +0.005 A 
ATOM     29  C   UNL     1      77.941  17.109  28.951  0.00  0.00    +0.013 A 
BRANCH  18  19
ATOM     19  C   UNL     1      74.856  18.335  26.943  0.00  0.00    +0.119 C 
BRANCH  19  20
ATOM     20  N   UNL     1      74.086  17.074  26.728  0.00  0.00    -0.302 NA
ATOM     21  C   UNL     1      74.299  16.504  25.322  0.00  0.00    +0.066 C 
ATOM     22  C   UNL     1      73.504  15.173  25.121  0.00  0.00    -0.064 C 
ATOM     23  N   UNL     1      72.018  15.424  25.385  0.00  0.00    +0.379 N 
ATOM     24  C   UNL     1      71.261  14.188  25.141  0.00  0.00    -0.096 C 
ATOM     25  H   UNL     1      71.669  16.186  24.650  0.00  0.00    -0.082 HD
ATOM     26  C   UNL     1      71.798  15.993  26.780  0.00  0.00    -0.064 C 
ATOM     27  C   UNL     1      72.616  17.300  26.979  0.00  0.00    +0.066 C 
ENDBRANCH  19  20
ENDBRANCH  18  19
ENDBRANCH  14  15
ENDBRANCH  12  13
TORSDOF 6
ENDMDL
MODEL 5
REMARK VINA RESULT:      -8.0     19.201     25.896
REMARK  Name = C:\Users\Docking\Desktop\test protocol\1iep_ligandH.pdb
REMARK  8 active torsions:
REMARK  status: ('A' for Active; 'I' for Inactive)
REMARK    1  A    between atoms: _5  and  _11
REMARK    2  A    between atoms: _19  and  _21
REMARK    3  A    between atoms: _22  and  _66
REMARK    4  A    between atoms: _27  and  _30
REMARK    5  A    between atoms: _32  and  _33
REMARK    6  A    between atoms: _38  and  _43
REMARK    7  A    between atoms: _43  and  _46
REMARK    8  A    between atoms: _53  and  _55
REMARK                            x       y       z     vdW  Elec       q    Type
REMARK                         _______ _______ _______ _____ _____    ______ ____
ROOT
ATOM     10  C   UNL     1      88.756   7.745   1.858  0.00  0.00    +0.038 A 
ATOM     11  C   UNL     1      87.456   7.188   1.956  0.00  0.00    +0.047 A 
ATOM     12  C   UNL     1      86.653   6.937   0.769  0.00  0.00    +0.035 A 
ATOM     32  C   UNL     1      87.207   7.264  -0.503  0.00  0.00    +0.024 A 
ATOM     33  C   UNL     1      88.527   7.832  -0.621  0.00  0.00    +0.007 A 
ATOM     34  C   UNL     1      89.322   8.084   0.546  0.00  0.00    -0.029 A 
ATOM     35  C   UNL     1      90.728   8.701   0.360  0.00  0.00    +0.045 C 
ENDROOT
BRANCH  10   9
ATOM      4  C   UNL     1      90.277  10.569   5.428  0.00  0.00    +0.077 A 
ATOM      5  C   UNL     1      89.587  11.710   4.899  0.00  0.00    +0.048 A 
ATOM      6  C   UNL     1      88.858  11.530   3.702  0.00  0.00    +0.116 A 
ATOM      7  N   UNL     1      88.828  10.296   3.089  0.00  0.00    -0.223 NA
ATOM      8  C   UNL     1      89.506   9.217   3.625  0.00  0.00    +0.220 A 
ATOM      9  N   UNL     1      89.483   7.965   3.030  0.00  0.00    -0.283 N 
ATOM     36  H   UNL     1      90.002   7.196   3.452  0.00  0.00    +0.155 HD
ATOM     37  N   UNL     1      90.211   9.364   4.766  0.00  0.00    -0.214 NA
BRANCH   4   3
ATOM      1  C   UNL     1      91.969  11.751   8.751  0.00  0.00    +0.020 A 
ATOM      2  C   UNL     1      91.172  11.774   7.546  0.00  0.00    +0.013 A 
ATOM      3  C   UNL     1      91.088  10.600   6.687  0.00  0.00    +0.019 A 
ATOM     38  C   UNL     1      91.827   9.409   7.078  0.00  0.00    +0.120 A 
ATOM     39  N   UNL     1      92.587   9.417   8.244  0.00  0.00    -0.263 NA
ATOM     40  C   UNL     1      92.677  10.541   9.078  0.00  0.00    +0.111 A 
ENDBRANCH   4   3
ENDBRANCH  10   9
BRANCH  12  13
ATOM     13  N   UNL     1      85.323   6.381   0.807  0.00  0.00    -0.281 N 
ATOM     14  C   UNL     1      84.302   6.676   1.696  0.00  0.00    +0.248 C 
ATOM     30  O   UNL     1      84.447   7.310   2.730  0.00  0.00    -0.270 OA
ATOM     31  H   UNL     1      85.109   5.686   0.093  0.00  0.00    +0.155 HD
BRANCH  14  15
ATOM     15  C   UNL     1      82.923   6.182   1.400  0.00  0.00    +0.037 A 
ATOM     16  C   UNL     1      82.581   5.619   0.091  0.00  0.00    +0.013 A 
ATOM     17  C   UNL     1      81.239   5.166  -0.173  0.00  0.00    +0.005 A 
ATOM     18  C   UNL     1      80.227   5.272   0.876  0.00  0.00    -0.033 A 
ATOM     28  C   UNL     1      80.595   5.829   2.167  0.00  0.00    +0.005 A 
ATOM     29  C   UNL     1      81.909   6.275   2.430  0.00  0.00    +0.013 A 
BRANCH  18  19
ATOM     19  C   UNL     1      78.765   4.833   0.675  0.00  0.00    +0.119 C 
BRANCH  19  20
ATOM     20  N   UNL     1      77.978   5.538  -0.381  0.00  0.00    -0.302 NA
ATOM     21  C   UNL     1      78.051   7.060  -0.231  0.00  0.00    +0.066 C 
ATOM     22  C   UNL     1      77.241   7.782  -1.357  0.00  0.00    -0.064 C 
ATOM     23  N   UNL     1      75.788   7.303  -1.323  0.00  0.00    +0.379 N 
ATOM     24  C   UNL     1      75.011   8.023  -2.342  0.00  0.00    -0.096 C 
ATOM     25  H   UNL     1      75.368   7.570  -0.325  0.00  0.00    -0.082 HD
ATOM     26  C   UNL     1      75.707   5.790  -1.468  0.00  0.00    -0.064 C 
ATOM     27  C   UNL     1      76.539   5.083  -0.362  0.00  0.00    +0.066 C 
ENDBRANCH  19  20
ENDBRANCH  18  19
ENDBRANCH  14  15
ENDBRANCH  12  13
TORSDOF 6
ENDMDL
