MODEL 1
REMARK VINA RESULT:      -7.5      0.000      0.000
REMARK  Name = C:\Users\Docking\Desktop\test protocol\1iep_ligandH.pdb
REMARK  8 active torsions:
REMARK  status: ('A' for Active; 'I' for Inactive)
REMARK    1  A    between atoms: _5  and  _11
REMARK    2  A    between atoms: _19  and  _21
REMARK    3  A    between atoms: _22  and  _66
REMARK    4  A    between atoms: _27  and  _30
REMARK    5  A    between atoms: _32  and  _33
REMARK    6  A    between atoms: _38  and  _43
REMARK    7  A    between atoms: _43  and  _46
REMARK    8  A    between atoms: _53  and  _55
REMARK                            x       y       z     vdW  Elec       q    Type
REMARK                         _______ _______ _______ _____ _____    ______ ____
ROOT
ATOM     10  C   UNL     1      56.155  21.986  28.323  0.00  0.00    +0.038 A 
ATOM     11  C   UNL     1      55.403  21.353  29.345  0.00  0.00    +0.047 A 
ATOM     12  C   UNL     1      56.039  20.472  30.311  0.00  0.00    +0.035 A 
ATOM     32  C   UNL     1      57.444  20.259  30.209  0.00  0.00    +0.024 A 
ATOM     33  C   UNL     1      58.224  20.893  29.176  0.00  0.00    +0.007 A 
ATOM     34  C   UNL     1      57.602  21.762  28.218  0.00  0.00    -0.029 A 
ATOM     35  C   UNL     1      58.487  22.410  27.127  0.00  0.00    +0.045 C 
ENDROOT
BRANCH  10   9
ATOM      4  C   UNL     1      54.114  26.167  27.144  0.00  0.00    +0.077 A 
ATOM      5  C   UNL     1      54.363  26.723  28.443  0.00  0.00    +0.048 A 
ATOM      6  C   UNL     1      55.013  25.897  29.388  0.00  0.00    +0.116 A 
ATOM      7  N   UNL     1      55.381  24.613  29.048  0.00  0.00    -0.223 NA
ATOM      8  C   UNL     1      55.124  24.108  27.787  0.00  0.00    +0.220 A 
ATOM      9  N   UNL     1      55.493  22.823  27.421  0.00  0.00    -0.283 N 
ATOM     36  H   UNL     1      55.279  22.484  26.483  0.00  0.00    +0.155 HD
ATOM     37  N   UNL     1      54.504  24.876  26.867  0.00  0.00    -0.214 NA
BRANCH   4   3
ATOM      1  C   UNL     1      51.402  27.597  24.715  0.00  0.00    +0.020 A 
ATOM      2  C   UNL     1      52.003  26.854  25.798  0.00  0.00    +0.013 A 
ATOM      3  C   UNL     1      53.440  26.916  26.037  0.00  0.00    +0.019 A 
ATOM     38  C   UNL     1      54.245  27.748  25.156  0.00  0.00    +0.120 A 
ATOM     39  N   UNL     1      53.639  28.451  24.120  0.00  0.00    -0.263 NA
ATOM     40  C   UNL     1      52.258  28.397  23.879  0.00  0.00    +0.111 A 
ENDBRANCH   4   3
ENDBRANCH  10   9
BRANCH  12  13
ATOM     13  N   UNL     1      55.325  19.796  31.366  0.00  0.00    -0.281 N 
ATOM     14  C   UNL     1      55.158  20.204  32.679  0.00  0.00    +0.248 C 
ATOM     30  O   UNL     1      55.781  21.114  33.205  0.00  0.00    -0.270 OA
ATOM     31  H   UNL     1      54.889  18.908  31.114  0.00  0.00    +0.155 HD
BRANCH  14  15
ATOM     15  C   UNL     1      54.165  19.488  33.537  0.00  0.00    +0.037 A 
ATOM     16  C   UNL     1      54.582  18.766  34.742  0.00  0.00    +0.013 A 
ATOM     17  C   UNL     1      53.607  18.070  35.542  0.00  0.00    +0.005 A 
ATOM     18  C   UNL     1      52.202  18.094  35.141  0.00  0.00    -0.033 A 
ATOM     28  C   UNL     1      51.815  18.822  33.944  0.00  0.00    +0.005 A 
ATOM     29  C   UNL     1      52.769  19.505  33.156  0.00  0.00    +0.013 A 
BRANCH  18  19
ATOM     19  C   UNL     1      51.096  17.361  35.923  0.00  0.00    +0.119 C 
BRANCH  19  20
ATOM     20  N   UNL     1      49.890  18.154  36.307  0.00  0.00    -0.302 NA
ATOM     21  C   UNL     1      50.033  18.782  37.696  0.00  0.00    +0.066 C 
ATOM     22  C   UNL     1      48.773  19.627  38.072  0.00  0.00    -0.064 C 
ATOM     23  N   UNL     1      47.529  18.739  38.004  0.00  0.00    +0.379 N 
ATOM     24  C   UNL     1      46.349  19.515  38.413  0.00  0.00    -0.096 C 
ATOM     25  H   UNL     1      47.663  17.913  38.741  0.00  0.00    -0.082 HD
ATOM     26  C   UNL     1      47.380  18.108  36.627  0.00  0.00    -0.064 C 
ATOM     27  C   UNL     1      48.651  17.296  36.251  0.00  0.00    +0.066 C 
ENDBRANCH  19  20
ENDBRANCH  18  19
ENDBRANCH  14  15
ENDBRANCH  12  13
TORSDOF 6
ENDMDL
MODEL 2
REMARK VINA RESULT:      -7.0     11.347     14.697
REMARK  Name = C:\Users\Docking\Desktop\test protocol\1iep_ligandH.pdb
REMARK  8 active torsions:
REMARK  status: ('A' for Active; 'I' for Inactive)
REMARK    1  A    between atoms: _5  and  _11
REMARK    2  A    between atoms: _19  and  _21
REMARK    3  A    between atoms: _22  and  _66
REMARK    4  A    between atoms: _27  and  _30
REMARK    5  A    between atoms: _32  and  _33
REMARK    6  A    between atoms: _38  and  _43
REMARK    7  A    between atoms: _43  and  _46
REMARK    8  A    between atoms: _53  and  _55
REMARK                            x       y       z     vdW  Elec       q    Type
REMARK                         _______ _______ _______ _____ _____    ______ ____
ROOT
ATOM     10  C   UNL     1      48.299   7.226  29.279  0.00  0.00    +0.038 A 
ATOM     11  C   UNL     1      48.430   8.367  30.112  0.00  0.00    +0.047 A 
ATOM     12  C   UNL     1      49.299   8.352  31.278  0.00  0.00    +0.035 A 
ATOM     32  C   UNL     1      50.024   7.159  31.565  0.00  0.00    +0.024 A 
ATOM     33  C   UNL     1      49.902   5.989  30.730  0.00  0.00    +0.007 A 
ATOM     34  C   UNL     1      49.044   5.997  29.580  0.00  0.00    -0.029 A 
ATOM     35  C   UNL     1      48.947   4.713  28.724  0.00  0.00    +0.045 C 
ENDROOT
BRANCH  10   9
ATOM      4  C   UNL     1      47.469   8.074  24.629  0.00  0.00    +0.077 A 
ATOM      5  C   UNL     1      48.836   8.435  24.389  0.00  0.00    +0.048 A 
ATOM      6  C   UNL     1      49.720   8.396  25.491  0.00  0.00    +0.116 A 
ATOM      7  N   UNL     1      49.259   8.022  26.735  0.00  0.00    -0.223 NA
ATOM      8  C   UNL     1      47.933   7.682  26.932  0.00  0.00    +0.220 A 
ATOM      9  N   UNL     1      47.450   7.296  28.172  0.00  0.00    -0.283 N 
ATOM     36  H   UNL     1      46.464   7.060  28.278  0.00  0.00    +0.155 HD
ATOM     37  N   UNL     1      47.069   7.713  25.896  0.00  0.00    -0.214 NA
BRANCH   4   3
ATOM      1  C   UNL     1      44.599   6.932  22.228  0.00  0.00    +0.020 A 
ATOM      2  C   UNL     1      45.604   6.890  23.265  0.00  0.00    +0.013 A 
ATOM      3  C   UNL     1      46.415   8.063  23.565  0.00  0.00    +0.019 A 
ATOM     38  C   UNL     1      46.182   9.273  22.791  0.00  0.00    +0.120 A 
ATOM     39  N   UNL     1      45.209   9.284  21.797  0.00  0.00    -0.263 NA
ATOM     40  C   UNL     1      44.423   8.161  21.498  0.00  0.00    +0.111 A 
ENDBRANCH   4   3
ENDBRANCH  10   9
BRANCH  12  13
ATOM     13  N   UNL     1      49.466   9.477  32.164  0.00  0.00    -0.281 N 
ATOM     14  C   UNL     1      48.738   9.779  33.303  0.00  0.00    +0.248 C 
ATOM     30  O   UNL     1      47.687   9.237  33.616  0.00  0.00    -0.270 OA
ATOM     31  H   UNL     1      50.211  10.130  31.922  0.00  0.00    +0.155 HD
BRANCH  14  15
ATOM     15  C   UNL     1      49.241  10.846  34.221  0.00  0.00    +0.037 A 
ATOM     16  C   UNL     1      50.672  11.144  34.326  0.00  0.00    +0.013 A 
ATOM     17  C   UNL     1      51.132  12.167  35.232  0.00  0.00    +0.005 A 
ATOM     18  C   UNL     1      50.159  12.901  36.038  0.00  0.00    -0.033 A 
ATOM     28  C   UNL     1      48.746  12.588  35.909  0.00  0.00    +0.005 A 
ATOM     29  C   UNL     1      48.291  11.585  35.024  0.00  0.00    +0.013 A 
BRANCH  18  19
ATOM     19  C   UNL     1      50.563  13.994  37.045  0.00  0.00    +0.119 C 
BRANCH  19  20
ATOM     20  N   UNL     1      50.670  15.392  36.531  0.00  0.00    -0.302 NA
ATOM     21  C   UNL     1      51.849  16.144  37.154  0.00  0.00    +0.066 C 
ATOM     22  C   UNL     1      51.961  17.597  36.588  0.00  0.00    -0.064 C 
ATOM     23  N   UNL     1      50.649  18.342  36.840  0.00  0.00    +0.379 N 
ATOM     24  C   UNL     1      50.771  19.726  36.361  0.00  0.00    -0.096 C 
ATOM     25  H   UNL     1      50.488  18.378  37.943  0.00  0.00    -0.082 HD
ATOM     26  C   UNL     1      49.471  17.599  36.226  0.00  0.00    -0.064 C 
ATOM     27  C   UNL     1      49.387  16.147  36.773  0.00  0.00    +0.066 C 
ENDBRANCH  19  20
ENDBRANCH  18  19
ENDBRANCH  14  15
ENDBRANCH  12  13
TORSDOF 6
ENDMDL
MODEL 3
REMARK VINA RESULT:      -6.9      1.577      2.430
REMARK  Name = C:\Users\Docking\Desktop\test protocol\1iep_ligandH.pdb
REMARK  8 active torsions:
REMARK  status: ('A' for Active; 'I' for Inactive)
REMARK    1  A    between atoms: _5  and  _11
REMARK    2  A    between atoms: _19  and  _21
REMARK    3  A    between atoms: _22  and  _66
REMARK    4  A    between atoms: _27  and  _30
REMARK    5  A    between atoms: _32  and  _33
REMARK    6  A    between atoms: _38  and  _43
REMARK    7  A    between atoms: _43  and  _46
REMARK    8  A    between atoms: _53  and  _55
REMARK                            x       y       z     vdW  Elec       q    Type
REMARK                         _______ _______ _______ _____ _____    ______ ____
ROOT
ATOM     10  C   UNL     1      55.944  22.152  28.336  0.00  0.00    +0.038 A 
ATOM     11  C   UNL     1      55.127  21.696  29.402  0.00  0.00    +0.047 A 
ATOM     12  C   UNL     1      55.650  20.799  30.421  0.00  0.00    +0.035 A 
ATOM     32  C   UNL     1      57.012  20.387  30.324  0.00  0.00    +0.024 A 
ATOM     33  C   UNL     1      57.856  20.840  29.247  0.00  0.00    +0.007 A 
ATOM     34  C   UNL     1      57.345  21.723  28.238  0.00  0.00    -0.029 A 
ATOM     35  C   UNL     1      58.294  22.171  27.102  0.00  0.00    +0.045 C 
ENDROOT
BRANCH  10   9
ATOM      4  C   UNL     1      53.921  26.314  27.065  0.00  0.00    +0.077 A 
ATOM      5  C   UNL     1      53.945  26.805  28.413  0.00  0.00    +0.048 A 
ATOM      6  C   UNL     1      54.479  25.953  29.405  0.00  0.00    +0.116 A 
ATOM      7  N   UNL     1      54.952  24.704  29.063  0.00  0.00    -0.223 NA
ATOM      8  C   UNL     1      54.913  24.261  27.754  0.00  0.00    +0.220 A 
ATOM      9  N   UNL     1      55.390  23.012  27.386  0.00  0.00    -0.283 N 
ATOM     36  H   UNL     1      55.337  22.719  26.411  0.00  0.00    +0.155 HD
ATOM     37  N   UNL     1      54.406  25.056  26.788  0.00  0.00    -0.214 NA
BRANCH   4   3
ATOM      1  C   UNL     1      51.510  27.947  24.453  0.00  0.00    +0.020 A 
ATOM      2  C   UNL     1      51.970  27.175  25.584  0.00  0.00    +0.013 A 
ATOM      3  C   UNL     1      53.390  27.098  25.905  0.00  0.00    +0.019 A 
ATOM     38  C   UNL     1      54.325  27.821  25.056  0.00  0.00    +0.120 A 
ATOM     39  N   UNL     1      53.852  28.555  23.973  0.00  0.00    -0.263 NA
ATOM     40  C   UNL     1      52.488  28.635  23.653  0.00  0.00    +0.111 A 
ENDBRANCH   4   3
ENDBRANCH  10   9
BRANCH  12  13
ATOM     13  N   UNL     1      54.866  20.297  31.522  0.00  0.00    -0.281 N 
ATOM     14  C   UNL     1      54.270  21.020  32.542  0.00  0.00    +0.248 C 
ATOM     30  O   UNL     1      54.500  22.196  32.782  0.00  0.00    -0.270 OA
ATOM     31  H   UNL     1      54.735  19.286  31.553  0.00  0.00    +0.155 HD
BRANCH  14  15
ATOM     15  C   UNL     1      53.285  20.334  33.433  0.00  0.00    +0.037 A 
ATOM     16  C   UNL     1      52.784  20.979  34.650  0.00  0.00    +0.013 A 
ATOM     17  C   UNL     1      51.848  20.288  35.501  0.00  0.00    +0.005 A 
ATOM     18  C   UNL     1      51.406  18.944  35.137  0.00  0.00    -0.033 A 
ATOM     28  C   UNL     1      51.916  18.330  33.922  0.00  0.00    +0.005 A 
ATOM     29  C   UNL     1      52.834  19.004  33.086  0.00  0.00    +0.013 A 
BRANCH  18  19
ATOM     19  C   UNL     1      50.426  18.124  35.997  0.00  0.00    +0.119 C 
BRANCH  19  20
ATOM     20  N   UNL     1      50.581  16.639  35.983  0.00  0.00    -0.302 NA
ATOM     21  C   UNL     1      49.287  15.922  36.377  0.00  0.00    +0.066 C 
ATOM     22  C   UNL     1      49.461  14.369  36.335  0.00  0.00    -0.064 C 
ATOM     23  N   UNL     1      50.608  13.962  37.261  0.00  0.00    +0.379 N 
ATOM     24  C   UNL     1      50.737  12.498  37.269  0.00  0.00    -0.096 C 
ATOM     25  H   UNL     1      50.339  14.284  38.294  0.00  0.00    -0.082 HD
ATOM     26  C   UNL     1      51.899  14.672  36.878  0.00  0.00    -0.064 C 
ATOM     27  C   UNL     1      51.707  16.215  36.894  0.00  0.00    +0.066 C 
ENDBRANCH  19  20
ENDBRANCH  18  19
ENDBRANCH  14  15
ENDBRANCH  12  13
TORSDOF 6
ENDMDL
