MODEL 1
REMARK VINA RESULT:      -7.5      0.000      0.000
REMARK  Name = C:\Users\Docking\Desktop\test protocol\1iep_ligandH.pdb
REMARK  8 active torsions:
REMARK  status: ('A' for Active; 'I' for Inactive)
REMARK    1  A    between atoms: _5  and  _11
REMARK    2  A    between atoms: _19  and  _21
REMARK    3  A    between atoms: _22  and  _66
REMARK    4  A    between atoms: _27  and  _30
REMARK    5  A    between atoms: _32  and  _33
REMARK    6  A    between atoms: _38  and  _43
REMARK    7  A    between atoms: _43  and  _46
REMARK    8  A    between atoms: _53  and  _55
REMARK                            x       y       z     vdW  Elec       q    Type
REMARK                         _______ _______ _______ _____ _____    ______ ____
ROOT
ATOM     10  C   UNL     1      42.516   7.813  21.602  0.00  0.00    +0.038 A 
ATOM     11  C   UNL     1      43.022   7.415  20.338  0.00  0.00    +0.047 A 
ATOM     12  C   UNL     1      42.167   6.770  19.354  0.00  0.00    +0.035 A 
ATOM     32  C   UNL     1      40.799   6.549  19.689  0.00  0.00    +0.024 A 
ATOM     33  C   UNL     1      40.268   6.946  20.969  0.00  0.00    +0.007 A 
ATOM     34  C   UNL     1      41.108   7.580  21.945  0.00  0.00    -0.029 A 
ATOM     35  C   UNL     1      40.487   7.979  23.304  0.00  0.00    +0.045 C 
ENDROOT
BRANCH  10   9
ATOM      4  C   UNL     1      46.064   7.666  24.832  0.00  0.00    +0.077 A 
ATOM      5  C   UNL     1      46.184   6.241  24.722  0.00  0.00    +0.048 A 
ATOM      6  C   UNL     1      45.309   5.582  23.829  0.00  0.00    +0.116 A 
ATOM      7  N   UNL     1      44.387   6.306  23.104  0.00  0.00    -0.223 NA
ATOM      8  C   UNL     1      44.296   7.679  23.234  0.00  0.00    +0.220 A 
ATOM      9  N   UNL     1      43.382   8.428  22.509  0.00  0.00    -0.283 N 
ATOM     36  H   UNL     1      43.342   9.438  22.639  0.00  0.00    +0.155 HD
ATOM     37  N   UNL     1      45.119   8.331  24.082  0.00  0.00    -0.214 NA
BRANCH   4   3
ATOM      1  C   UNL     1      47.778   9.186  28.002  0.00  0.00    +0.020 A 
ATOM      2  C   UNL     1      46.933   8.351  27.179  0.00  0.00    +0.013 A 
ATOM      3  C   UNL     1      46.919   8.505  25.730  0.00  0.00    +0.019 A 
ATOM     38  C   UNL     1      47.778   9.520  25.140  0.00  0.00    +0.120 A 
ATOM     39  N   UNL     1      48.580  10.310  25.957  0.00  0.00    -0.263 NA
ATOM     40  C   UNL     1      48.601  10.173  27.353  0.00  0.00    +0.111 A 
ENDBRANCH   4   3
ENDBRANCH  10   9
BRANCH  12  13
ATOM     13  N   UNL     1      42.627   6.337  18.058  0.00  0.00    -0.281 N 
ATOM     14  C   UNL     1      43.329   7.070  17.114  0.00  0.00    +0.248 C 
ATOM     30  O   UNL     1      43.483   8.281  17.155  0.00  0.00    -0.270 OA
ATOM     31  H   UNL     1      42.409   5.373  17.805  0.00  0.00    +0.155 HD
BRANCH  14  15
ATOM     15  C   UNL     1      43.935   6.355  15.950  0.00  0.00    +0.037 A 
ATOM     16  C   UNL     1      45.005   6.966  15.157  0.00  0.00    +0.013 A 
ATOM     17  C   UNL     1      45.561   6.262  14.028  0.00  0.00    +0.005 A 
ATOM     18  C   UNL     1      45.047   4.937  13.687  0.00  0.00    -0.033 A 
ATOM     28  C   UNL     1      43.988   4.353  14.494  0.00  0.00    +0.005 A 
ATOM     29  C   UNL     1      43.441   5.041  15.600  0.00  0.00    +0.013 A 
BRANCH  18  19
ATOM     19  C   UNL     1      45.566   4.123  12.487  0.00  0.00    +0.119 C 
BRANCH  19  20
ATOM     20  N   UNL     1      46.636   3.117  12.755  0.00  0.00    -0.302 NA
ATOM     21  C   UNL     1      47.647   3.615  13.792  0.00  0.00    +0.066 C 
ATOM     22  C   UNL     1      48.747   2.542  14.078  0.00  0.00    -0.064 C 
ATOM     23  N   UNL     1      49.450   2.176  12.769  0.00  0.00    +0.379 N 
ATOM     24  C   UNL     1      50.523   1.210  13.043  0.00  0.00    -0.096 C 
ATOM     25  H   UNL     1      49.922   3.103  12.369  0.00  0.00    -0.082 HD
ATOM     26  C   UNL     1      48.452   1.681  11.731  0.00  0.00    -0.064 C 
ATOM     27  C   UNL     1      47.346   2.744  11.477  0.00  0.00    +0.066 C 
ENDBRANCH  19  20
ENDBRANCH  18  19
ENDBRANCH  14  15
ENDBRANCH  12  13
TORSDOF 6
ENDMDL
MODEL 2
REMARK VINA RESULT:      -7.4      1.495      2.524
REMARK  Name = C:\Users\Docking\Desktop\test protocol\1iep_ligandH.pdb
REMARK  8 active torsions:
REMARK  status: ('A' for Active; 'I' for Inactive)
REMARK    1  A    between atoms: _5  and  _11
REMARK    2  A    between atoms: _19  and  _21
REMARK    3  A    between atoms: _22  and  _66
REMARK    4  A    between atoms: _27  and  _30
REMARK    5  A    between atoms: _32  and  _33
REMARK    6  A    between atoms: _38  and  _43
REMARK    7  A    between atoms: _43  and  _46
REMARK    8  A    between atoms: _53  and  _55
REMARK                            x       y       z     vdW  Elec       q    Type
REMARK                         _______ _______ _______ _____ _____    ______ ____
ROOT
ATOM     10  C   UNL     1      42.571   7.870  21.513  0.00  0.00    +0.038 A 
ATOM     11  C   UNL     1      43.088   7.423  20.271  0.00  0.00    +0.047 A 
ATOM     12  C   UNL     1      42.231   6.778  19.288  0.00  0.00    +0.035 A 
ATOM     32  C   UNL     1      40.852   6.607  19.602  0.00  0.00    +0.024 A 
ATOM     33  C   UNL     1      40.310   7.055  20.861  0.00  0.00    +0.007 A 
ATOM     34  C   UNL     1      41.151   7.689  21.836  0.00  0.00    -0.029 A 
ATOM     35  C   UNL     1      40.517   8.144  23.171  0.00  0.00    +0.045 C 
ENDROOT
BRANCH  10   9
ATOM      4  C   UNL     1      46.070   7.706  24.795  0.00  0.00    +0.077 A 
ATOM      5  C   UNL     1      46.158   6.276  24.716  0.00  0.00    +0.048 A 
ATOM      6  C   UNL     1      45.280   5.620  23.824  0.00  0.00    +0.116 A 
ATOM      7  N   UNL     1      44.386   6.350  23.071  0.00  0.00    -0.223 NA
ATOM      8  C   UNL     1      44.326   7.728  23.173  0.00  0.00    +0.220 A 
ATOM      9  N   UNL     1      43.439   8.482  22.420  0.00  0.00    -0.283 N 
ATOM     36  H   UNL     1      43.421   9.496  22.530  0.00  0.00    +0.155 HD
ATOM     37  N   UNL     1      45.152   8.377  24.019  0.00  0.00    -0.214 NA
BRANCH   4   3
ATOM      1  C   UNL     1      47.811   9.217  27.955  0.00  0.00    +0.020 A 
ATOM      2  C   UNL     1      46.960   8.384  27.138  0.00  0.00    +0.013 A 
ATOM      3  C   UNL     1      46.932   8.542  25.689  0.00  0.00    +0.019 A 
ATOM     38  C   UNL     1      47.786   9.559  25.094  0.00  0.00    +0.120 A 
ATOM     39  N   UNL     1      48.594  10.348  25.907  0.00  0.00    -0.263 NA
ATOM     40  C   UNL     1      48.627  10.206  27.303  0.00  0.00    +0.111 A 
ENDBRANCH   4   3
ENDBRANCH  10   9
BRANCH  12  13
ATOM     13  N   UNL     1      42.701   6.296  18.012  0.00  0.00    -0.281 N 
ATOM     14  C   UNL     1      43.431   6.985  17.058  0.00  0.00    +0.248 C 
ATOM     30  O   UNL     1      43.608   8.194  17.064  0.00  0.00    -0.270 OA
ATOM     31  H   UNL     1      42.468   5.329  17.786  0.00  0.00    +0.155 HD
BRANCH  14  15
ATOM     15  C   UNL     1      44.039   6.223  15.925  0.00  0.00    +0.037 A 
ATOM     16  C   UNL     1      43.352   5.078  15.323  0.00  0.00    +0.013 A 
ATOM     17  C   UNL     1      43.969   4.350  14.243  0.00  0.00    +0.005 A 
ATOM     18  C   UNL     1      45.282   4.767  13.757  0.00  0.00    -0.033 A 
ATOM     28  C   UNL     1      45.940   5.910  14.369  0.00  0.00    +0.005 A 
ATOM     29  C   UNL     1      45.338   6.625  15.428  0.00  0.00    +0.013 A 
BRANCH  18  19
ATOM     19  C   UNL     1      46.025   4.036  12.623  0.00  0.00    +0.119 C 
BRANCH  19  20
ATOM     20  N   UNL     1      45.194   3.438  11.535  0.00  0.00    -0.302 NA
ATOM     21  C   UNL     1      45.951   2.353  10.764  0.00  0.00    +0.066 C 
ATOM     22  C   UNL     1      45.059   1.723   9.645  0.00  0.00    -0.064 C 
ATOM     23  N   UNL     1      44.579   2.824   8.699  0.00  0.00    +0.379 N 
ATOM     24  C   UNL     1      43.789   2.228   7.612  0.00  0.00    -0.096 C 
ATOM     25  H   UNL     1      45.481   3.294   8.242  0.00  0.00    -0.082 HD
ATOM     26  C   UNL     1      43.828   3.909   9.457  0.00  0.00    -0.064 C 
ATOM     27  C   UNL     1      44.713   4.508  10.586  0.00  0.00    +0.066 C 
ENDBRANCH  19  20
ENDBRANCH  18  19
ENDBRANCH  14  15
ENDBRANCH  12  13
TORSDOF 6
ENDMDL
MODEL 3
REMARK VINA RESULT:      -7.2     20.713     23.710
REMARK  Name = C:\Users\Docking\Desktop\test protocol\1iep_ligandH.pdb
REMARK  8 active torsions:
REMARK  status: ('A' for Active; 'I' for Inactive)
REMARK    1  A    between atoms: _5  and  _11
REMARK    2  A    between atoms: _19  and  _21
REMARK    3  A    between atoms: _22  and  _66
REMARK    4  A    between atoms: _27  and  _30
REMARK    5  A    between atoms: _32  and  _33
REMARK    6  A    between atoms: _38  and  _43
REMARK    7  A    between atoms: _43  and  _46
REMARK    8  A    between atoms: _53  and  _55
REMARK                            x       y       z     vdW  Elec       q    Type
REMARK                         _______ _______ _______ _____ _____    ______ ____
ROOT
ATOM     10  C   UNL     1      55.632  21.740  28.459  0.00  0.00    +0.038 A 
ATOM     11  C   UNL     1      54.875  21.073  29.456  0.00  0.00    +0.047 A 
ATOM     12  C   UNL     1      55.518  20.222  30.445  0.00  0.00    +0.035 A 
ATOM     32  C   UNL     1      56.935  20.075  30.391  0.00  0.00    +0.024 A 
ATOM     33  C   UNL     1      57.719  20.745  29.384  0.00  0.00    +0.007 A 
ATOM     34  C   UNL     1      57.090  21.584  28.404  0.00  0.00    -0.029 A 
ATOM     35  C   UNL     1      57.981  22.273  27.344  0.00  0.00    +0.045 C 
ENDROOT
BRANCH  10   9
ATOM      4  C   UNL     1      53.644  25.901  27.127  0.00  0.00    +0.077 A 
ATOM      5  C   UNL     1      53.939  26.514  28.390  0.00  0.00    +0.048 A 
ATOM      6  C   UNL     1      54.597  25.722  29.358  0.00  0.00    +0.116 A 
ATOM      7  N   UNL     1      54.930  24.416  29.073  0.00  0.00    -0.223 NA
ATOM      8  C   UNL     1      54.630  23.855  27.845  0.00  0.00    +0.220 A 
ATOM      9  N   UNL     1      54.963  22.545  27.534  0.00  0.00    -0.283 N 
ATOM     36  H   UNL     1      54.717  22.166  26.620  0.00  0.00    +0.155 HD
ATOM     37  N   UNL     1      54.000  24.589  26.905  0.00  0.00    -0.214 NA
BRANCH   4   3
ATOM      1  C   UNL     1      50.890  27.339  24.750  0.00  0.00    +0.020 A 
ATOM      2  C   UNL     1      51.505  26.641  25.855  0.00  0.00    +0.013 A 
ATOM      3  C   UNL     1      52.955  26.608  26.001  0.00  0.00    +0.019 A 
ATOM     38  C   UNL     1      53.760  27.299  25.005  0.00  0.00    +0.120 A 
ATOM     39  N   UNL     1      53.140  27.962  23.951  0.00  0.00    -0.263 NA
ATOM     40  C   UNL     1      51.746  27.998  23.798  0.00  0.00    +0.111 A 
ENDBRANCH   4   3
ENDBRANCH  10   9
BRANCH  12  13
ATOM     13  N   UNL     1      54.801  19.512  31.475  0.00  0.00    -0.281 N 
ATOM     14  C   UNL     1      54.397  19.987  32.712  0.00  0.00    +0.248 C 
ATOM     30  O   UNL     1      54.781  21.035  33.209  0.00  0.00    -0.270 OA
ATOM     31  H   UNL     1      54.561  18.543  31.267  0.00  0.00    +0.155 HD
BRANCH  14  15
ATOM     15  C   UNL     1      53.440  19.172  33.521  0.00  0.00    +0.037 A 
ATOM     16  C   UNL     1      52.007  19.161  33.217  0.00  0.00    +0.013 A 
ATOM     17  C   UNL     1      51.102  18.380  34.024  0.00  0.00    +0.005 A 
ATOM     18  C   UNL     1      51.630  17.601  35.142  0.00  0.00    -0.033 A 
ATOM     28  C   UNL     1      53.057  17.626  35.417  0.00  0.00    +0.005 A 
ATOM     29  C   UNL     1      53.946  18.392  34.630  0.00  0.00    +0.013 A 
BRANCH  18  19
ATOM     19  C   UNL     1      50.737  16.756  36.068  0.00  0.00    +0.119 C 
BRANCH  19  20
ATOM     20  N   UNL     1      49.855  17.490  37.025  0.00  0.00    -0.302 NA
ATOM     21  C   UNL     1      48.432  17.653  36.485  0.00  0.00    +0.066 C 
ATOM     22  C   UNL     1      47.518  18.403  37.508  0.00  0.00    -0.064 C 
ATOM     23  N   UNL     1      48.133  19.765  37.834  0.00  0.00    +0.379 N 
ATOM     24  C   UNL     1      47.246  20.497  38.750  0.00  0.00    -0.096 C 
ATOM     25  H   UNL     1      48.191  20.346  36.884  0.00  0.00    -0.082 HD
ATOM     26  C   UNL     1      49.550  19.612  38.369  0.00  0.00    -0.064 C 
ATOM     27  C   UNL     1      50.442  18.840  37.357  0.00  0.00    +0.066 C 
ENDBRANCH  19  20
ENDBRANCH  18  19
ENDBRANCH  14  15
ENDBRANCH  12  13
TORSDOF 6
ENDMDL
