MODEL 1
REMARK VINA RESULT:      -8.3      0.000      0.000
REMARK  Name = C:\Users\Docking\Desktop\test protocol\1iep_ligandH.pdb
REMARK  8 active torsions:
REMARK  status: ('A' for Active; 'I' for Inactive)
REMARK    1  A    between atoms: _5  and  _11
REMARK    2  A    between atoms: _19  and  _21
REMARK    3  A    between atoms: _22  and  _66
REMARK    4  A    between atoms: _27  and  _30
REMARK    5  A    between atoms: _32  and  _33
REMARK    6  A    between atoms: _38  and  _43
REMARK    7  A    between atoms: _43  and  _46
REMARK    8  A    between atoms: _53  and  _55
REMARK                            x       y       z     vdW  Elec       q    Type
REMARK                         _______ _______ _______ _____ _____    ______ ____
ROOT
ATOM     10  C   UNL     1      59.130  14.405  15.841  0.00  0.00    +0.038 A 
ATOM     11  C   UNL     1      58.551  15.657  15.510  0.00  0.00    +0.047 A 
ATOM     12  C   UNL     1      59.047  16.443  14.391  0.00  0.00    +0.035 A 
ATOM     32  C   UNL     1      60.132  15.923  13.628  0.00  0.00    +0.024 A 
ATOM     33  C   UNL     1      60.733  14.653  13.950  0.00  0.00    +0.007 A 
ATOM     34  C   UNL     1      60.251  13.874  15.055  0.00  0.00    -0.029 A 
ATOM     35  C   UNL     1      60.938  12.522  15.359  0.00  0.00    +0.045 C 
ENDROOT
BRANCH  10   9
ATOM      4  C   UNL     1      58.626  13.649  20.553  0.00  0.00    +0.077 A 
ATOM      5  C   UNL     1      59.484  14.751  20.882  0.00  0.00    +0.048 A 
ATOM      6  C   UNL     1      60.040  15.482  19.809  0.00  0.00    +0.116 A 
ATOM      7  N   UNL     1      59.753  15.130  18.508  0.00  0.00    -0.223 NA
ATOM      8  C   UNL     1      58.923  14.060  18.226  0.00  0.00    +0.220 A 
ATOM      9  N   UNL     1      58.615  13.692  16.925  0.00  0.00    -0.283 N 
ATOM     36  H   UNL     1      58.005  12.892  16.759  0.00  0.00    +0.155 HD
ATOM     37  N   UNL     1      58.381  13.344  19.233  0.00  0.00    -0.214 NA
BRANCH   4   3
ATOM      1  C   UNL     1      58.005  11.258  23.586  0.00  0.00    +0.020 A 
ATOM      2  C   UNL     1      58.696  12.082  22.622  0.00  0.00    +0.013 A 
ATOM      3  C   UNL     1      57.960  12.782  21.576  0.00  0.00    +0.019 A 
ATOM     38  C   UNL     1      56.514  12.625  21.534  0.00  0.00    +0.120 A 
ATOM     39  N   UNL     1      55.876  11.824  22.475  0.00  0.00    -0.263 NA
ATOM     40  C   UNL     1      56.573  11.144  23.485  0.00  0.00    +0.111 A 
ENDBRANCH   4   3
ENDBRANCH  10   9
BRANCH  12  13
ATOM     13  N   UNL     1      58.504  17.724  14.013  0.00  0.00    -0.281 N 
ATOM     14  C   UNL     1      57.441  18.402  14.587  0.00  0.00    +0.248 C 
ATOM     30  O   UNL     1      56.656  17.909  15.383  0.00  0.00    -0.270 OA
ATOM     31  H   UNL     1      58.958  18.188  13.225  0.00  0.00    +0.155 HD
BRANCH  14  15
ATOM     15  C   UNL     1      57.209  19.830  14.213  0.00  0.00    +0.037 A 
ATOM     16  C   UNL     1      55.868  20.322  13.887  0.00  0.00    +0.013 A 
ATOM     17  C   UNL     1      55.674  21.700  13.513  0.00  0.00    +0.005 A 
ATOM     18  C   UNL     1      56.825  22.598  13.464  0.00  0.00    -0.033 A 
ATOM     28  C   UNL     1      58.144  22.085  13.798  0.00  0.00    +0.005 A 
ATOM     29  C   UNL     1      58.338  20.735  14.164  0.00  0.00    +0.013 A 
BRANCH  18  19
ATOM     19  C   UNL     1      56.715  24.079  13.055  0.00  0.00    +0.119 C 
BRANCH  19  20
ATOM     20  N   UNL     1      56.130  24.375  11.713  0.00  0.00    -0.302 NA
ATOM     21  C   UNL     1      57.044  23.916  10.574  0.00  0.00    +0.066 C 
ATOM     22  C   UNL     1      56.406  24.214   9.178  0.00  0.00    -0.064 C 
ATOM     23  N   UNL     1      56.109  25.710   9.064  0.00  0.00    +0.379 N 
ATOM     24  C   UNL     1      55.563  26.002   7.731  0.00  0.00    -0.096 C 
ATOM     25  H   UNL     1      57.077  26.255   9.161  0.00  0.00    -0.082 HD
ATOM     26  C   UNL     1      55.203  26.176  10.195  0.00  0.00    -0.064 C 
ATOM     27  C   UNL     1      55.833  25.849  11.578  0.00  0.00    +0.066 C 
ENDBRANCH  19  20
ENDBRANCH  18  19
ENDBRANCH  14  15
ENDBRANCH  12  13
TORSDOF 6
ENDMDL
MODEL 2
REMARK VINA RESULT:      -7.7      5.955     12.149
REMARK  Name = C:\Users\Docking\Desktop\test protocol\1iep_ligandH.pdb
REMARK  8 active torsions:
REMARK  status: ('A' for Active; 'I' for Inactive)
REMARK    1  A    between atoms: _5  and  _11
REMARK    2  A    between atoms: _19  and  _21
REMARK    3  A    between atoms: _22  and  _66
REMARK    4  A    between atoms: _27  and  _30
REMARK    5  A    between atoms: _32  and  _33
REMARK    6  A    between atoms: _38  and  _43
REMARK    7  A    between atoms: _43  and  _46
REMARK    8  A    between atoms: _53  and  _55
REMARK                            x       y       z     vdW  Elec       q    Type
REMARK                         _______ _______ _______ _____ _____    ______ ____
ROOT
ATOM     10  C   UNL     1      56.197  25.281   9.861  0.00  0.00    +0.038 A 
ATOM     11  C   UNL     1      54.993  25.319   9.113  0.00  0.00    +0.047 A 
ATOM     12  C   UNL     1      54.447  26.578   8.630  0.00  0.00    +0.035 A 
ATOM     32  C   UNL     1      55.156  27.779   8.925  0.00  0.00    +0.024 A 
ATOM     33  C   UNL     1      56.382  27.758   9.685  0.00  0.00    +0.007 A 
ATOM     34  C   UNL     1      56.923  26.520  10.166  0.00  0.00    -0.029 A 
ATOM     35  C   UNL     1      58.237  26.557  10.981  0.00  0.00    +0.045 C 
ENDROOT
BRANCH  10   9
ATOM      4  C   UNL     1      56.292  21.651  13.000  0.00  0.00    +0.077 A 
ATOM      5  C   UNL     1      55.326  22.284  13.851  0.00  0.00    +0.048 A 
ATOM      6  C   UNL     1      54.835  23.546  13.449  0.00  0.00    +0.116 A 
ATOM      7  N   UNL     1      55.283  24.123  12.280  0.00  0.00    -0.223 NA
ATOM      8  C   UNL     1      56.217  23.486  11.483  0.00  0.00    +0.220 A 
ATOM      9  N   UNL     1      56.676  24.044  10.300  0.00  0.00    -0.283 N 
ATOM     36  H   UNL     1      57.371  23.546   9.744  0.00  0.00    +0.155 HD
ATOM     37  N   UNL     1      56.702  22.281  11.846  0.00  0.00    -0.214 NA
BRANCH   4   3
ATOM      1  C   UNL     1      57.302  18.311  14.768  0.00  0.00    +0.020 A 
ATOM      2  C   UNL     1      56.690  19.600  14.541  0.00  0.00    +0.013 A 
ATOM      3  C   UNL     1      56.902  20.314  13.288  0.00  0.00    +0.019 A 
ATOM     38  C   UNL     1      57.744  19.691  12.278  0.00  0.00    +0.120 A 
ATOM     39  N   UNL     1      58.321  18.450  12.526  0.00  0.00    -0.263 NA
ATOM     40  C   UNL     1      58.126  17.754  13.728  0.00  0.00    +0.111 A 
ENDBRANCH   4   3
ENDBRANCH  10   9
BRANCH  12  13
ATOM     13  N   UNL     1      53.224  26.680   7.873  0.00  0.00    -0.281 N 
ATOM     14  C   UNL     1      52.934  26.113   6.644  0.00  0.00    +0.248 C 
ATOM     30  O   UNL     1      53.763  25.603   5.905  0.00  0.00    -0.270 OA
ATOM     31  H   UNL     1      52.483  27.239   8.296  0.00  0.00    +0.155 HD
BRANCH  14  15
ATOM     15  C   UNL     1      51.520  26.126   6.158  0.00  0.00    +0.037 A 
ATOM     16  C   UNL     1      50.396  26.204   7.094  0.00  0.00    +0.013 A 
ATOM     17  C   UNL     1      49.042  26.197   6.600  0.00  0.00    +0.005 A 
ATOM     18  C   UNL     1      48.805  26.113   5.161  0.00  0.00    -0.033 A 
ATOM     28  C   UNL     1      49.939  26.042   4.255  0.00  0.00    +0.005 A 
ATOM     29  C   UNL     1      51.268  26.048   4.735  0.00  0.00    +0.013 A 
BRANCH  18  19
ATOM     19  C   UNL     1      47.393  26.079   4.547  0.00  0.00    +0.119 C 
BRANCH  19  20
ATOM     20  N   UNL     1      46.768  24.738   4.343  0.00  0.00    -0.302 NA
ATOM     21  C   UNL     1      47.515  23.636   5.099  0.00  0.00    +0.066 C 
ATOM     22  C   UNL     1      46.835  22.243   4.894  0.00  0.00    -0.064 C 
ATOM     23  N   UNL     1      46.769  21.926   3.399  0.00  0.00    +0.379 N 
ATOM     24  C   UNL     1      46.183  20.592   3.205  0.00  0.00    -0.096 C 
ATOM     25  H   UNL     1      47.815  21.895   3.013  0.00  0.00    -0.082 HD
ATOM     26  C   UNL     1      46.030  23.019   2.639  0.00  0.00    -0.064 C 
ATOM     27  C   UNL     1      46.697  24.403   2.874  0.00  0.00    +0.066 C 
ENDBRANCH  19  20
ENDBRANCH  18  19
ENDBRANCH  14  15
ENDBRANCH  12  13
TORSDOF 6
ENDMDL
MODEL 3
REMARK VINA RESULT:      -7.7      3.122     13.581
REMARK  Name = C:\Users\Docking\Desktop\test protocol\1iep_ligandH.pdb
REMARK  8 active torsions:
REMARK  status: ('A' for Active; 'I' for Inactive)
REMARK    1  A    between atoms: _5  and  _11
REMARK    2  A    between atoms: _19  and  _21
REMARK    3  A    between atoms: _22  and  _66
REMARK    4  A    between atoms: _27  and  _30
REMARK    5  A    between atoms: _32  and  _33
REMARK    6  A    between atoms: _38  and  _43
REMARK    7  A    between atoms: _43  and  _46
REMARK    8  A    between atoms: _53  and  _55
REMARK                            x       y       z     vdW  Elec       q    Type
REMARK                         _______ _______ _______ _____ _____    ______ ____
ROOT
ATOM     10  C   UNL     1      60.403  17.274  18.821  0.00  0.00    +0.038 A 
ATOM     11  C   UNL     1      59.549  16.515  19.660  0.00  0.00    +0.047 A 
ATOM     12  C   UNL     1      60.051  15.378  20.415  0.00  0.00    +0.035 A 
ATOM     32  C   UNL     1      61.431  15.042  20.292  0.00  0.00    +0.024 A 
ATOM     33  C   UNL     1      62.314  15.802  19.443  0.00  0.00    +0.007 A 
ATOM     34  C   UNL     1      61.823  16.924  18.694  0.00  0.00    -0.029 A 
ATOM     35  C   UNL     1      62.814  17.699  17.794  0.00  0.00    +0.045 C 
ENDROOT
BRANCH  10   9
ATOM      4  C   UNL     1      58.188  19.168  15.007  0.00  0.00    +0.077 A 
ATOM      5  C   UNL     1      58.116  17.897  14.344  0.00  0.00    +0.048 A 
ATOM      6  C   UNL     1      58.667  16.783  15.015  0.00  0.00    +0.116 A 
ATOM      7  N   UNL     1      59.244  16.939  16.257  0.00  0.00    -0.223 NA
ATOM      8  C   UNL     1      59.299  18.178  16.867  0.00  0.00    +0.220 A 
ATOM      9  N   UNL     1      59.868  18.357  18.119  0.00  0.00    -0.283 N 
ATOM     36  H   UNL     1      59.895  19.288  18.532  0.00  0.00    +0.155 HD
ATOM     37  N   UNL     1      58.781  19.258  16.246  0.00  0.00    -0.214 NA
BRANCH   4   3
ATOM      1  C   UNL     1      55.768  21.870  13.543  0.00  0.00    +0.020 A 
ATOM      2  C   UNL     1      56.239  20.623  14.101  0.00  0.00    +0.013 A 
ATOM      3  C   UNL     1      57.648  20.438  14.427  0.00  0.00    +0.019 A 
ATOM     38  C   UNL     1      58.560  21.543  14.176  0.00  0.00    +0.120 A 
ATOM     39  N   UNL     1      58.079  22.732  13.637  0.00  0.00    -0.263 NA
ATOM     40  C   UNL     1      56.726  22.921  13.318  0.00  0.00    +0.111 A 
ENDBRANCH   4   3
ENDBRANCH  10   9
BRANCH  12  13
ATOM     13  N   UNL     1      59.229  14.565  21.277  0.00  0.00    -0.281 N 
ATOM     14  C   UNL     1      58.592  13.374  20.971  0.00  0.00    +0.248 C 
ATOM     30  O   UNL     1      58.456  12.934  19.839  0.00  0.00    -0.270 OA
ATOM     31  H   UNL     1      59.102  14.910  22.228  0.00  0.00    +0.155 HD
BRANCH  14  15
ATOM     15  C   UNL     1      58.007  12.562  22.081  0.00  0.00    +0.037 A 
ATOM     16  C   UNL     1      56.581  12.225  22.107  0.00  0.00    +0.013 A 
ATOM     17  C   UNL     1      56.040  11.454  23.198  0.00  0.00    +0.005 A 
ATOM     18  C   UNL     1      56.927  11.014  24.273  0.00  0.00    -0.033 A 
ATOM     28  C   UNL     1      58.338  11.358  24.219  0.00  0.00    +0.005 A 
ATOM     29  C   UNL     1      58.872  12.114  23.152  0.00  0.00    +0.013 A 
BRANCH  18  19
ATOM     19  C   UNL     1      56.431  10.206  25.487  0.00  0.00    +0.119 C 
BRANCH  19  20
ATOM     20  N   UNL     1      56.318  10.929  26.789  0.00  0.00    -0.302 NA
ATOM     21  C   UNL     1      55.951   9.987  27.939  0.00  0.00    +0.066 C 
ATOM     22  C   UNL     1      55.859  10.756  29.297  0.00  0.00    -0.064 C 
ATOM     23  N   UNL     1      54.834  11.884  29.173  0.00  0.00    +0.379 N 
ATOM     24  C   UNL     1      54.703  12.572  30.466  0.00  0.00    -0.096 C 
ATOM     25  H   UNL     1      53.848  11.420  28.935  0.00  0.00    -0.082 HD
ATOM     26  C   UNL     1      55.190  12.824  28.030  0.00  0.00    -0.064 C 
ATOM     27  C   UNL     1      55.308  12.045  26.690  0.00  0.00    +0.066 C 
ENDBRANCH  19  20
ENDBRANCH  18  19
ENDBRANCH  14  15
ENDBRANCH  12  13
TORSDOF 6
ENDMDL
