MODEL 1
REMARK VINA RESULT:      -7.3      0.000      0.000
REMARK  Name = C:\Users\Docking\Desktop\test protocol\1iep_ligandH.pdb
REMARK  8 active torsions:
REMARK  status: ('A' for Active; 'I' for Inactive)
REMARK    1  A    between atoms: _5  and  _11
REMARK    2  A    between atoms: _19  and  _21
REMARK    3  A    between atoms: _22  and  _66
REMARK    4  A    between atoms: _27  and  _30
REMARK    5  A    between atoms: _32  and  _33
REMARK    6  A    between atoms: _38  and  _43
REMARK    7  A    between atoms: _43  and  _46
REMARK    8  A    between atoms: _53  and  _55
REMARK                            x       y       z     vdW  Elec       q    Type
REMARK                         _______ _______ _______ _____ _____    ______ ____
ROOT
ATOM     10  C   UNL     1      18.398  15.884  61.606  0.00  0.00    +0.038 A 
ATOM     11  C   UNL     1      19.269  15.609  60.521  0.00  0.00    +0.047 A 
ATOM     12  C   UNL     1      18.750  15.354  59.186  0.00  0.00    +0.035 A 
ATOM     32  C   UNL     1      17.339  15.389  58.991  0.00  0.00    +0.024 A 
ATOM     33  C   UNL     1      16.439  15.666  60.083  0.00  0.00    +0.007 A 
ATOM     34  C   UNL     1      16.944  15.916  61.403  0.00  0.00    -0.029 A 
ATOM     35  C   UNL     1      15.933  16.200  62.538  0.00  0.00    +0.045 C 
ENDROOT
BRANCH  10   9
ATOM      4  C   UNL     1      20.135  14.377  65.819  0.00  0.00    +0.077 A 
ATOM      5  C   UNL     1      19.899  13.000  65.491  0.00  0.00    +0.048 A 
ATOM      6  C   UNL     1      19.322  12.723  64.231  0.00  0.00    +0.116 A 
ATOM      7  N   UNL     1      19.009  13.754  63.371  0.00  0.00    -0.223 NA
ATOM      8  C   UNL     1      19.249  15.070  63.719  0.00  0.00    +0.220 A 
ATOM      9  N   UNL     1      18.950  16.122  62.867  0.00  0.00    -0.283 N 
ATOM     36  H   UNL     1      19.135  17.080  63.164  0.00  0.00    +0.155 HD
ATOM     37  N   UNL     1      19.798  15.361  64.917  0.00  0.00    -0.214 NA
BRANCH   4   3
ATOM      1  C   UNL     1      22.602  14.871  68.814  0.00  0.00    +0.020 A 
ATOM      2  C   UNL     1      22.062  14.404  67.558  0.00  0.00    +0.013 A 
ATOM      3  C   UNL     1      20.742  14.830  67.110  0.00  0.00    +0.019 A 
ATOM     38  C   UNL     1      19.989  15.736  67.963  0.00  0.00    +0.120 A 
ATOM     39  N   UNL     1      20.534  16.168  69.168  0.00  0.00    -0.263 NA
ATOM     40  C   UNL     1      21.802  15.764  69.610  0.00  0.00    +0.111 A 
ENDBRANCH   4   3
ENDBRANCH  10   9
BRANCH  12  13
ATOM     13  N   UNL     1      19.585  15.062  58.048  0.00  0.00    -0.281 N 
ATOM     14  C   UNL     1      20.027  15.937  57.068  0.00  0.00    +0.248 C 
ATOM     30  O   UNL     1      19.593  17.067  56.905  0.00  0.00    -0.270 OA
ATOM     31  H   UNL     1      19.887  14.092  57.952  0.00  0.00    +0.155 HD
BRANCH  14  15
ATOM     15  C   UNL     1      21.095  15.485  56.126  0.00  0.00    +0.037 A 
ATOM     16  C   UNL     1      22.261  14.735  56.601  0.00  0.00    +0.013 A 
ATOM     17  C   UNL     1      23.285  14.327  55.673  0.00  0.00    +0.005 A 
ATOM     18  C   UNL     1      23.147  14.667  54.258  0.00  0.00    -0.033 A 
ATOM     28  C   UNL     1      21.978  15.407  53.813  0.00  0.00    +0.005 A 
ATOM     29  C   UNL     1      20.973  15.810  54.720  0.00  0.00    +0.013 A 
BRANCH  18  19
ATOM     19  C   UNL     1      24.202  14.290  53.201  0.00  0.00    +0.119 C 
BRANCH  19  20
ATOM     20  N   UNL     1      24.596  12.852  53.110  0.00  0.00    -0.302 NA
ATOM     21  C   UNL     1      25.737  12.631  52.114  0.00  0.00    +0.066 C 
ATOM     22  C   UNL     1      26.152  11.125  52.048  0.00  0.00    -0.064 C 
ATOM     23  N   UNL     1      24.934  10.279  51.673  0.00  0.00    +0.379 N 
ATOM     24  C   UNL     1      25.333   8.869  51.554  0.00  0.00    -0.096 C 
ATOM     25  H   UNL     1      24.583  10.617  50.671  0.00  0.00    -0.082 HD
ATOM     26  C   UNL     1      23.793  10.495  52.658  0.00  0.00    -0.064 C 
ATOM     27  C   UNL     1      23.409  11.999  52.737  0.00  0.00    +0.066 C 
ENDBRANCH  19  20
ENDBRANCH  18  19
ENDBRANCH  14  15
ENDBRANCH  12  13
TORSDOF 6
ENDMDL
MODEL 2
REMARK VINA RESULT:      -7.0      7.157     13.703
REMARK  Name = C:\Users\Docking\Desktop\test protocol\1iep_ligandH.pdb
REMARK  8 active torsions:
REMARK  status: ('A' for Active; 'I' for Inactive)
REMARK    1  A    between atoms: _5  and  _11
REMARK    2  A    between atoms: _19  and  _21
REMARK    3  A    between atoms: _22  and  _66
REMARK    4  A    between atoms: _27  and  _30
REMARK    5  A    between atoms: _32  and  _33
REMARK    6  A    between atoms: _38  and  _43
REMARK    7  A    between atoms: _43  and  _46
REMARK    8  A    between atoms: _53  and  _55
REMARK                            x       y       z     vdW  Elec       q    Type
REMARK                         _______ _______ _______ _____ _____    ______ ____
ROOT
ATOM     10  C   UNL     1      26.824  15.675  73.183  0.00  0.00    +0.038 A 
ATOM     11  C   UNL     1      25.974  15.733  72.049  0.00  0.00    +0.047 A 
ATOM     12  C   UNL     1      24.535  15.887  72.194  0.00  0.00    +0.035 A 
ATOM     32  C   UNL     1      23.995  15.982  73.510  0.00  0.00    +0.024 A 
ATOM     33  C   UNL     1      24.844  15.924  74.673  0.00  0.00    +0.007 A 
ATOM     34  C   UNL     1      26.264  15.769  74.537  0.00  0.00    -0.029 A 
ATOM     35  C   UNL     1      27.125  15.706  75.820  0.00  0.00    +0.045 C 
ENDROOT
BRANCH  10   9
ATOM      4  C   UNL     1      30.738  12.976  72.528  0.00  0.00    +0.077 A 
ATOM      5  C   UNL     1      29.985  11.758  72.613  0.00  0.00    +0.048 A 
ATOM      6  C   UNL     1      28.594  11.870  72.834  0.00  0.00    +0.116 A 
ATOM      7  N   UNL     1      28.010  13.112  72.957  0.00  0.00    -0.223 NA
ATOM      8  C   UNL     1      28.766  14.267  72.872  0.00  0.00    +0.220 A 
ATOM      9  N   UNL     1      28.198  15.526  72.985  0.00  0.00    -0.283 N 
ATOM     36  H   UNL     1      28.791  16.354  72.924  0.00  0.00    +0.155 HD
ATOM     37  N   UNL     1      30.096  14.187  72.663  0.00  0.00    -0.214 NA
BRANCH   4   3
ATOM      1  C   UNL     1      34.239  13.270  70.807  0.00  0.00    +0.020 A 
ATOM      2  C   UNL     1      32.805  13.233  70.978  0.00  0.00    +0.013 A 
ATOM      3  C   UNL     1      32.216  13.022  72.295  0.00  0.00    +0.019 A 
ATOM     38  C   UNL     1      33.114  12.852  73.427  0.00  0.00    +0.120 A 
ATOM     39  N   UNL     1      34.491  12.891  73.232  0.00  0.00    -0.263 NA
ATOM     40  C   UNL     1      35.069  13.091  71.970  0.00  0.00    +0.111 A 
ENDBRANCH   4   3
ENDBRANCH  10   9
BRANCH  12  13
ATOM     13  N   UNL     1      23.622  15.944  71.080  0.00  0.00    -0.281 N 
ATOM     14  C   UNL     1      23.503  15.050  70.029  0.00  0.00    +0.248 C 
ATOM     30  O   UNL     1      24.315  14.172  69.773  0.00  0.00    -0.270 OA
ATOM     31  H   UNL     1      22.985  16.741  71.064  0.00  0.00    +0.155 HD
BRANCH  14  15
ATOM     15  C   UNL     1      22.320  15.154  69.121  0.00  0.00    +0.037 A 
ATOM     16  C   UNL     1      21.192  16.033  69.441  0.00  0.00    +0.013 A 
ATOM     17  C   UNL     1      20.056  16.101  68.557  0.00  0.00    +0.005 A 
ATOM     18  C   UNL     1      20.042  15.289  67.343  0.00  0.00    -0.033 A 
ATOM     28  C   UNL     1      21.177  14.429  67.048  0.00  0.00    +0.005 A 
ATOM     29  C   UNL     1      22.292  14.359  67.912  0.00  0.00    +0.013 A 
BRANCH  18  19
ATOM     19  C   UNL     1      18.862  15.283  66.354  0.00  0.00    +0.119 C 
BRANCH  19  20
ATOM     20  N   UNL     1      19.191  15.220  64.898  0.00  0.00    -0.302 NA
ATOM     21  C   UNL     1      18.923  16.551  64.191  0.00  0.00    +0.066 C 
ATOM     22  C   UNL     1      19.294  16.474  62.674  0.00  0.00    -0.064 C 
ATOM     23  N   UNL     1      18.502  15.343  62.015  0.00  0.00    +0.379 N 
ATOM     24  C   UNL     1      18.805  15.305  60.577  0.00  0.00    -0.096 C 
ATOM     25  H   UNL     1      17.419  15.578  62.127  0.00  0.00    -0.082 HD
ATOM     26  C   UNL     1      18.761  14.015  62.714  0.00  0.00    -0.064 C 
ATOM     27  C   UNL     1      18.417  14.112  64.227  0.00  0.00    +0.066 C 
ENDBRANCH  19  20
ENDBRANCH  18  19
ENDBRANCH  14  15
ENDBRANCH  12  13
TORSDOF 6
ENDMDL
MODEL 3
REMARK VINA RESULT:      -7.0     24.128     26.673
REMARK  Name = C:\Users\Docking\Desktop\test protocol\1iep_ligandH.pdb
REMARK  8 active torsions:
REMARK  status: ('A' for Active; 'I' for Inactive)
REMARK    1  A    between atoms: _5  and  _11
REMARK    2  A    between atoms: _19  and  _21
REMARK    3  A    between atoms: _22  and  _66
REMARK    4  A    between atoms: _27  and  _30
REMARK    5  A    between atoms: _32  and  _33
REMARK    6  A    between atoms: _38  and  _43
REMARK    7  A    between atoms: _43  and  _46
REMARK    8  A    between atoms: _53  and  _55
REMARK                            x       y       z     vdW  Elec       q    Type
REMARK                         _______ _______ _______ _____ _____    ______ ____
ROOT
ATOM     10  C   UNL     1      36.922  29.427  59.905  0.00  0.00    +0.038 A 
ATOM     11  C   UNL     1      37.152  30.811  59.696  0.00  0.00    +0.047 A 
ATOM     12  C   UNL     1      38.315  31.475  60.263  0.00  0.00    +0.035 A 
ATOM     32  C   UNL     1      39.226  30.697  61.035  0.00  0.00    +0.024 A 
ATOM     33  C   UNL     1      39.008  29.290  61.259  0.00  0.00    +0.007 A 
ATOM     34  C   UNL     1      37.860  28.630  60.704  0.00  0.00    -0.029 A 
ATOM     35  C   UNL     1      37.673  27.121  60.982  0.00  0.00    +0.045 C 
ENDROOT
BRANCH  10   9
ATOM      4  C   UNL     1      34.733  26.931  56.438  0.00  0.00    +0.077 A 
ATOM      5  C   UNL     1      35.945  26.807  55.681  0.00  0.00    +0.048 A 
ATOM      6  C   UNL     1      37.108  27.406  56.215  0.00  0.00    +0.116 A 
ATOM      7  N   UNL     1      37.052  28.076  57.418  0.00  0.00    -0.223 NA
ATOM      8  C   UNL     1      35.866  28.179  58.122  0.00  0.00    +0.220 A 
ATOM      9  N   UNL     1      35.788  28.841  59.337  0.00  0.00    -0.283 N 
ATOM     36  H   UNL     1      34.893  28.901  59.822  0.00  0.00    +0.155 HD
ATOM     37  N   UNL     1      34.741  27.617  57.632  0.00  0.00    -0.214 NA
BRANCH   4   3
ATOM      1  C   UNL     1      31.465  24.787  56.302  0.00  0.00    +0.020 A 
ATOM      2  C   UNL     1      32.729  25.314  56.762  0.00  0.00    +0.013 A 
ATOM      3  C   UNL     1      33.423  26.350  56.007  0.00  0.00    +0.019 A 
ATOM     38  C   UNL     1      32.805  26.835  54.782  0.00  0.00    +0.120 A 
ATOM     39  N   UNL     1      31.588  26.307  54.363  0.00  0.00    -0.263 NA
ATOM     40  C   UNL     1      30.911  25.309  55.081  0.00  0.00    +0.111 A 
ENDBRANCH   4   3
ENDBRANCH  10   9
BRANCH  12  13
ATOM     13  N   UNL     1      38.597  32.878  60.091  0.00  0.00    -0.281 N 
ATOM     14  C   UNL     1      37.782  33.955  60.404  0.00  0.00    +0.248 C 
ATOM     30  O   UNL     1      36.596  33.865  60.683  0.00  0.00    -0.270 OA
ATOM     31  H   UNL     1      39.506  33.106  59.690  0.00  0.00    +0.155 HD
BRANCH  14  15
ATOM     15  C   UNL     1      38.367  35.330  60.391  0.00  0.00    +0.037 A 
ATOM     16  C   UNL     1      39.398  35.708  59.421  0.00  0.00    +0.013 A 
ATOM     17  C   UNL     1      39.957  37.037  59.441  0.00  0.00    +0.005 A 
ATOM     18  C   UNL     1      39.485  37.998  60.435  0.00  0.00    -0.033 A 
ATOM     28  C   UNL     1      38.458  37.597  61.382  0.00  0.00    +0.005 A 
ATOM     29  C   UNL     1      37.908  36.296  61.366  0.00  0.00    +0.013 A 
BRANCH  18  19
ATOM     19  C   UNL     1      40.041  39.430  60.543  0.00  0.00    +0.119 C 
BRANCH  19  20
ATOM     20  N   UNL     1      41.048  39.693  61.614  0.00  0.00    -0.302 NA
ATOM     21  C   UNL     1      41.843  38.436  61.977  0.00  0.00    +0.066 C 
ATOM     22  C   UNL     1      42.907  38.735  63.082  0.00  0.00    -0.064 C 
ATOM     23  N   UNL     1      42.210  39.310  64.316  0.00  0.00    +0.379 N 
ATOM     24  C   UNL     1      43.200  39.537  65.378  0.00  0.00    -0.096 C 
ATOM     25  H   UNL     1      41.489  38.543  64.685  0.00  0.00    -0.082 HD
ATOM     26  C   UNL     1      41.415  40.559  63.964  0.00  0.00    -0.064 C 
ATOM     27  C   UNL     1      40.380  40.258  62.844  0.00  0.00    +0.066 C 
ENDBRANCH  19  20
ENDBRANCH  18  19
ENDBRANCH  14  15
ENDBRANCH  12  13
TORSDOF 6
ENDMDL
MODEL 4
REMARK VINA RESULT:      -7.0     28.494     30.631
REMARK  Name = C:\Users\Docking\Desktop\test protocol\1iep_ligandH.pdb
REMARK  8 active torsions:
REMARK  status: ('A' for Active; 'I' for Inactive)
REMARK    1  A    between atoms: _5  and  _11
REMARK    2  A    between atoms: _19  and  _21
REMARK    3  A    between atoms: _22  and  _66
REMARK    4  A    between atoms: _27  and  _30
REMARK    5  A    between atoms: _32  and  _33
REMARK    6  A    between atoms: _38  and  _43
REMARK    7  A    between atoms: _43  and  _46
REMARK    8  A    between atoms: _53  and  _55
REMARK                            x       y       z     vdW  Elec       q    Type
REMARK                         _______ _______ _______ _____ _____    ______ ____
ROOT
ATOM     10  C   UNL     1      36.940  35.361  60.702  0.00  0.00    +0.038 A 
ATOM     11  C   UNL     1      38.176  35.883  61.162  0.00  0.00    +0.047 A 
ATOM     12  C   UNL     1      38.492  37.297  61.030  0.00  0.00    +0.035 A 
ATOM     32  C   UNL     1      37.524  38.151  60.426  0.00  0.00    +0.024 A 
ATOM     33  C   UNL     1      36.263  37.638  59.952  0.00  0.00    +0.007 A 
ATOM     34  C   UNL     1      35.947  36.243  60.078  0.00  0.00    -0.029 A 
ATOM     35  C   UNL     1      34.582  35.747  59.546  0.00  0.00    +0.045 C 
ENDROOT
BRANCH  10   9
ATOM      4  C   UNL     1      37.322  30.800  59.258  0.00  0.00    +0.077 A 
ATOM      5  C   UNL     1      38.061  31.171  58.086  0.00  0.00    +0.048 A 
ATOM      6  C   UNL     1      38.316  32.546  57.888  0.00  0.00    +0.116 A 
ATOM      7  N   UNL     1      37.861  33.473  58.801  0.00  0.00    -0.223 NA
ATOM      8  C   UNL     1      37.149  33.082  59.920  0.00  0.00    +0.220 A 
ATOM      9  N   UNL     1      36.689  33.996  60.855  0.00  0.00    -0.283 N 
ATOM     36  H   UNL     1      36.161  33.667  61.664  0.00  0.00    +0.155 HD
ATOM     37  N   UNL     1      36.892  31.774  60.131  0.00  0.00    -0.214 NA
BRANCH   4   3
ATOM      1  C   UNL     1      36.881  27.437  61.207  0.00  0.00    +0.020 A 
ATOM      2  C   UNL     1      37.235  28.808  60.921  0.00  0.00    +0.013 A 
ATOM      3  C   UNL     1      36.976  29.386  59.608  0.00  0.00    +0.019 A 
ATOM     38  C   UNL     1      36.352  28.542  58.599  0.00  0.00    +0.120 A 
ATOM     39  N   UNL     1      36.024  27.225  58.903  0.00  0.00    -0.263 NA
ATOM     40  C   UNL     1      36.270  26.658  60.163  0.00  0.00    +0.111 A 
ENDBRANCH   4   3
ENDBRANCH  10   9
BRANCH  12  13
ATOM     13  N   UNL     1      39.734  37.882  61.470  0.00  0.00    -0.281 N 
ATOM     14  C   UNL     1      39.933  38.770  62.515  0.00  0.00    +0.248 C 
ATOM     30  O   UNL     1      39.038  39.364  63.097  0.00  0.00    -0.270 OA
ATOM     31  H   UNL     1      40.567  37.609  60.949  0.00  0.00    +0.155 HD
BRANCH  14  15
ATOM     15  C   UNL     1      41.330  39.049  62.969  0.00  0.00    +0.037 A 
ATOM     16  C   UNL     1      41.609  40.067  63.985  0.00  0.00    +0.013 A 
ATOM     17  C   UNL     1      42.967  40.328  64.392  0.00  0.00    +0.005 A 
ATOM     18  C   UNL     1      44.056  39.568  63.783  0.00  0.00    -0.033 A 
ATOM     28  C   UNL     1      43.750  38.561  62.781  0.00  0.00    +0.005 A 
ATOM     29  C   UNL     1      42.420  38.303  62.379  0.00  0.00    +0.013 A 
BRANCH  18  19
ATOM     19  C   UNL     1      45.537  39.795  64.142  0.00  0.00    +0.119 C 
BRANCH  19  20
ATOM     20  N   UNL     1      45.841  40.260  65.528  0.00  0.00    -0.302 NA
ATOM     21  C   UNL     1      47.193  40.974  65.610  0.00  0.00    +0.066 C 
ATOM     22  C   UNL     1      47.486  41.474  67.063  0.00  0.00    -0.064 C 
ATOM     23  N   UNL     1      47.440  40.287  68.026  0.00  0.00    +0.379 N 
ATOM     24  C   UNL     1      47.772  40.744  69.384  0.00  0.00    -0.096 C 
ATOM     25  H   UNL     1      48.229  39.565  67.710  0.00  0.00    -0.082 HD
ATOM     26  C   UNL     1      46.100  39.569  67.949  0.00  0.00    -0.064 C 
ATOM     27  C   UNL     1      45.806  39.103  66.495  0.00  0.00    +0.066 C 
ENDBRANCH  19  20
ENDBRANCH  18  19
ENDBRANCH  14  15
ENDBRANCH  12  13
TORSDOF 6
ENDMDL
MODEL 5
REMARK VINA RESULT:      -6.9      1.500      2.338
REMARK  Name = C:\Users\Docking\Desktop\test protocol\1iep_ligandH.pdb
REMARK  8 active torsions:
REMARK  status: ('A' for Active; 'I' for Inactive)
REMARK    1  A    between atoms: _5  and  _11
REMARK    2  A    between atoms: _19  and  _21
REMARK    3  A    between atoms: _22  and  _66
REMARK    4  A    between atoms: _27  and  _30
REMARK    5  A    between atoms: _32  and  _33
REMARK    6  A    between atoms: _38  and  _43
REMARK    7  A    between atoms: _43  and  _46
REMARK    8  A    between atoms: _53  and  _55
REMARK                            x       y       z     vdW  Elec       q    Type
REMARK                         _______ _______ _______ _____ _____    ______ ____
ROOT
ATOM     10  C   UNL     1      18.328  15.749  61.437  0.00  0.00    +0.038 A 
ATOM     11  C   UNL     1      19.174  15.380  60.360  0.00  0.00    +0.047 A 
ATOM     12  C   UNL     1      18.632  15.095  59.040  0.00  0.00    +0.035 A 
ATOM     32  C   UNL     1      17.223  15.198  58.852  0.00  0.00    +0.024 A 
ATOM     33  C   UNL     1      16.348  15.571  59.936  0.00  0.00    +0.007 A 
ATOM     34  C   UNL     1      16.877  15.851  61.240  0.00  0.00    -0.029 A 
ATOM     35  C   UNL     1      15.891  16.239  62.367  0.00  0.00    +0.045 C 
ENDROOT
BRANCH  10   9
ATOM      4  C   UNL     1      20.047  14.332  65.688  0.00  0.00    +0.077 A 
ATOM      5  C   UNL     1      19.753  12.955  65.414  0.00  0.00    +0.048 A 
ATOM      6  C   UNL     1      19.152  12.654  64.171  0.00  0.00    +0.116 A 
ATOM      7  N   UNL     1      18.872  13.663  63.276  0.00  0.00    -0.223 NA
ATOM      8  C   UNL     1      19.168  14.981  63.572  0.00  0.00    +0.220 A 
ATOM      9  N   UNL     1      18.902  16.012  62.683  0.00  0.00    -0.283 N 
ATOM     36  H   UNL     1      19.128  16.972  62.941  0.00  0.00    +0.155 HD
ATOM     37  N   UNL     1      19.740  15.295  64.753  0.00  0.00    -0.214 NA
BRANCH   4   3
ATOM      1  C   UNL     1      20.674  16.130  69.105  0.00  0.00    +0.020 A 
ATOM      2  C   UNL     1      20.014  15.700  67.894  0.00  0.00    +0.013 A 
ATOM      3  C   UNL     1      20.685  14.808  66.956  0.00  0.00    +0.019 A 
ATOM     38  C   UNL     1      22.033  14.366  67.277  0.00  0.00    +0.120 A 
ATOM     39  N   UNL     1      22.644  14.797  68.450  0.00  0.00    -0.263 NA
ATOM     40  C   UNL     1      22.009  15.657  69.359  0.00  0.00    +0.111 A 
ENDBRANCH   4   3
ENDBRANCH  10   9
BRANCH  12  13
ATOM     13  N   UNL     1      19.441  14.708  57.911  0.00  0.00    -0.281 N 
ATOM     14  C   UNL     1      20.004  15.528  56.947  0.00  0.00    +0.248 C 
ATOM     30  O   UNL     1      19.719  16.705  56.787  0.00  0.00    -0.270 OA
ATOM     31  H   UNL     1      19.621  13.709  57.811  0.00  0.00    +0.155 HD
BRANCH  14  15
ATOM     15  C   UNL     1      21.022  14.952  56.015  0.00  0.00    +0.037 A 
ATOM     16  C   UNL     1      22.439  14.892  56.381  0.00  0.00    +0.013 A 
ATOM     17  C   UNL     1      23.402  14.348  55.457  0.00  0.00    +0.005 A 
ATOM     18  C   UNL     1      22.950  13.857  54.157  0.00  0.00    -0.033 A 
ATOM     28  C   UNL     1      21.537  13.924  53.822  0.00  0.00    +0.005 A 
ATOM     29  C   UNL     1      20.590  14.458  54.725  0.00  0.00    +0.013 A 
BRANCH  18  19
ATOM     19  C   UNL     1      23.910  13.280  53.101  0.00  0.00    +0.119 C 
BRANCH  19  20
ATOM     20  N   UNL     1      24.748  14.250  52.335  0.00  0.00    -0.302 NA
ATOM     21  C   UNL     1      23.961  14.921  51.205  0.00  0.00    +0.066 C 
ATOM     22  C   UNL     1      24.845  15.950  50.428  0.00  0.00    -0.064 C 
ATOM     23  N   UNL     1      26.084  15.240  49.878  0.00  0.00    +0.379 N 
ATOM     24  C   UNL     1      26.889  16.192  49.098  0.00  0.00    -0.096 C 
ATOM     25  H   UNL     1      25.735  14.442  49.183  0.00  0.00    -0.082 HD
ATOM     26  C   UNL     1      26.871  14.568  50.995  0.00  0.00    -0.064 C 
ATOM     27  C   UNL     1      25.974  13.570  51.779  0.00  0.00    +0.066 C 
ENDBRANCH  19  20
ENDBRANCH  18  19
ENDBRANCH  14  15
ENDBRANCH  12  13
TORSDOF 6
ENDMDL
