MODEL 1
REMARK VINA RESULT:      -8.9      0.000      0.000
REMARK  Name = C:\Users\Docking\Desktop\test protocol\1iep_ligandH.pdb
REMARK  8 active torsions:
REMARK  status: ('A' for Active; 'I' for Inactive)
REMARK    1  A    between atoms: _5  and  _11
REMARK    2  A    between atoms: _19  and  _21
REMARK    3  A    between atoms: _22  and  _66
REMARK    4  A    between atoms: _27  and  _30
REMARK    5  A    between atoms: _32  and  _33
REMARK    6  A    between atoms: _38  and  _43
REMARK    7  A    between atoms: _43  and  _46
REMARK    8  A    between atoms: _53  and  _55
REMARK                            x       y       z     vdW  Elec       q    Type
REMARK                         _______ _______ _______ _____ _____    ______ ____
ROOT
ATOM     10  C   UNL     1       0.714 -19.384  54.060  0.00  0.00    +0.038 A 
ATOM     11  C   UNL     1      -0.673 -19.323  54.349  0.00  0.00    +0.047 A 
ATOM     12  C   UNL     1      -1.601 -18.653  53.452  0.00  0.00    +0.035 A 
ATOM     32  C   UNL     1      -1.082 -18.057  52.265  0.00  0.00    +0.024 A 
ATOM     33  C   UNL     1       0.325 -18.108  51.956  0.00  0.00    +0.007 A 
ATOM     34  C   UNL     1       1.246 -18.766  52.839  0.00  0.00    -0.029 A 
ATOM     35  C   UNL     1       2.745 -18.784  52.460  0.00  0.00    +0.045 C 
ENDROOT
BRANCH  10   9
ATOM      4  C   UNL     1       3.553 -19.443  57.929  0.00  0.00    +0.077 A 
ATOM      5  C   UNL     1       3.357 -18.042  58.168  0.00  0.00    +0.048 A 
ATOM      6  C   UNL     1       2.524 -17.341  57.267  0.00  0.00    +0.116 A 
ATOM      7  N   UNL     1       1.936 -18.002  56.211  0.00  0.00    -0.223 NA
ATOM      8  C   UNL     1       2.147 -19.353  56.008  0.00  0.00    +0.220 A 
ATOM      9  N   UNL     1       1.560 -20.040  54.957  0.00  0.00    -0.283 N 
ATOM     36  H   UNL     1       1.747 -21.035  54.837  0.00  0.00    +0.155 HD
ATOM     37  N   UNL     1       2.940 -20.045  56.853  0.00  0.00    -0.214 NA
BRANCH   4   3
ATOM      1  C   UNL     1       5.903 -20.722  60.782  0.00  0.00    +0.020 A 
ATOM      2  C   UNL     1       5.095 -19.833  59.981  0.00  0.00    +0.013 A 
ATOM      3  C   UNL     1       4.404 -20.321  58.794  0.00  0.00    +0.019 A 
ATOM     38  C   UNL     1       4.552 -21.725  58.443  0.00  0.00    +0.120 A 
ATOM     39  N   UNL     1       5.339 -22.558  59.233  0.00  0.00    -0.263 NA
ATOM     40  C   UNL     1       6.010 -22.099  60.376  0.00  0.00    +0.111 A 
ENDBRANCH   4   3
ENDBRANCH  10   9
BRANCH  12  13
ATOM     13  N   UNL     1      -3.018 -18.553  53.697  0.00  0.00    -0.281 N 
ATOM     14  C   UNL     1      -4.032 -19.330  53.163  0.00  0.00    +0.248 C 
ATOM     30  O   UNL     1      -3.892 -20.098  52.222  0.00  0.00    -0.270 OA
ATOM     31  H   UNL     1      -3.309 -17.819  54.344  0.00  0.00    +0.155 HD
BRANCH  14  15
ATOM     15  C   UNL     1      -5.404 -19.231  53.749  0.00  0.00    +0.037 A 
ATOM     16  C   UNL     1      -6.022 -17.931  54.021  0.00  0.00    +0.013 A 
ATOM     17  C   UNL     1      -7.339 -17.863  54.602  0.00  0.00    +0.005 A 
ATOM     18  C   UNL     1      -8.048 -19.102  54.915  0.00  0.00    -0.033 A 
ATOM     28  C   UNL     1      -7.414 -20.378  54.630  0.00  0.00    +0.005 A 
ATOM     29  C   UNL     1      -6.122 -20.448  54.061  0.00  0.00    +0.013 A 
BRANCH  18  19
ATOM     19  C   UNL     1      -9.448 -19.125  55.556  0.00  0.00    +0.119 C 
BRANCH  19  20
ATOM     20  N   UNL     1     -10.175 -20.429  55.564  0.00  0.00    -0.302 NA
ATOM     21  C   UNL     1     -11.452 -20.380  54.720  0.00  0.00    +0.066 C 
ATOM     22  C   UNL     1     -12.188 -21.759  54.721  0.00  0.00    -0.064 C 
ATOM     23  N   UNL     1     -12.506 -22.163  56.162  0.00  0.00    +0.379 N 
ATOM     24  C   UNL     1     -13.250 -23.431  56.163  0.00  0.00    -0.096 C 
ATOM     25  H   UNL     1     -13.172 -21.380  56.593  0.00  0.00    -0.082 HD
ATOM     26  C   UNL     1     -11.243 -22.212  57.009  0.00  0.00    -0.064 C 
ATOM     27  C   UNL     1     -10.503 -20.845  56.977  0.00  0.00    +0.066 C 
ENDBRANCH  19  20
ENDBRANCH  18  19
ENDBRANCH  14  15
ENDBRANCH  12  13
TORSDOF 6
ENDMDL
MODEL 2
REMARK VINA RESULT:      -8.5      7.112     10.550
REMARK  Name = C:\Users\Docking\Desktop\test protocol\1iep_ligandH.pdb
REMARK  8 active torsions:
REMARK  status: ('A' for Active; 'I' for Inactive)
REMARK    1  A    between atoms: _5  and  _11
REMARK    2  A    between atoms: _19  and  _21
REMARK    3  A    between atoms: _22  and  _66
REMARK    4  A    between atoms: _27  and  _30
REMARK    5  A    between atoms: _32  and  _33
REMARK    6  A    between atoms: _38  and  _43
REMARK    7  A    between atoms: _43  and  _46
REMARK    8  A    between atoms: _53  and  _55
REMARK                            x       y       z     vdW  Elec       q    Type
REMARK                         _______ _______ _______ _____ _____    ______ ____
ROOT
ATOM     10  C   UNL     1       2.507 -18.046  54.096  0.00  0.00    +0.038 A 
ATOM     11  C   UNL     1       2.397 -18.798  52.899  0.00  0.00    +0.047 A 
ATOM     12  C   UNL     1       1.522 -18.370  51.818  0.00  0.00    +0.035 A 
ATOM     32  C   UNL     1       0.775 -17.168  51.990  0.00  0.00    +0.024 A 
ATOM     33  C   UNL     1       0.873 -16.392  53.201  0.00  0.00    +0.007 A 
ATOM     34  C   UNL     1       1.733 -16.811  54.271  0.00  0.00    -0.029 A 
ATOM     35  C   UNL     1       1.794 -15.943  55.550  0.00  0.00    +0.045 C 
ENDROOT
BRANCH  10   9
ATOM      4  C   UNL     1       3.330 -20.308  58.248  0.00  0.00    +0.077 A 
ATOM      5  C   UNL     1       1.935 -20.578  58.446  0.00  0.00    +0.048 A 
ATOM      6  C   UNL     1       1.038 -20.111  57.459  0.00  0.00    +0.116 A 
ATOM      7  N   UNL     1       1.511 -19.427  56.361  0.00  0.00    -0.223 NA
ATOM      8  C   UNL     1       2.863 -19.182  56.202  0.00  0.00    +0.220 A 
ATOM      9  N   UNL     1       3.362 -18.503  55.101  0.00  0.00    -0.283 N 
ATOM     36  H   UNL     1       4.365 -18.336  55.024  0.00  0.00    +0.155 HD
ATOM     37  N   UNL     1       3.740 -19.616  57.130  0.00  0.00    -0.214 NA
BRANCH   4   3
ATOM      1  C   UNL     1       5.983 -20.327  61.123  0.00  0.00    +0.020 A 
ATOM      2  C   UNL     1       4.949 -19.861  60.227  0.00  0.00    +0.013 A 
ATOM      3  C   UNL     1       4.402 -20.739  59.201  0.00  0.00    +0.019 A 
ATOM     38  C   UNL     1       4.926 -22.093  59.106  0.00  0.00    +0.120 A 
ATOM     39  N   UNL     1       5.923 -22.514  59.981  0.00  0.00    -0.263 NA
ATOM     40  C   UNL     1       6.458 -21.677  60.972  0.00  0.00    +0.111 A 
ENDBRANCH   4   3
ENDBRANCH  10   9
BRANCH  12  13
ATOM     13  N   UNL     1       1.364 -19.096  50.583  0.00  0.00    -0.281 N 
ATOM     14  C   UNL     1       1.604 -18.648  49.294  0.00  0.00    +0.248 C 
ATOM     30  O   UNL     1       1.789 -17.479  48.993  0.00  0.00    -0.270 OA
ATOM     31  H   UNL     1       1.035 -20.058  50.669  0.00  0.00    +0.155 HD
BRANCH  14  15
ATOM     15  C   UNL     1       1.629 -19.641  48.177  0.00  0.00    +0.037 A 
ATOM     16  C   UNL     1       1.775 -19.214  46.784  0.00  0.00    +0.013 A 
ATOM     17  C   UNL     1       1.778 -20.191  45.724  0.00  0.00    +0.005 A 
ATOM     18  C   UNL     1       1.636 -21.607  46.055  0.00  0.00    -0.033 A 
ATOM     28  C   UNL     1       1.498 -22.003  47.446  0.00  0.00    +0.005 A 
ATOM     29  C   UNL     1       1.493 -21.048  48.488  0.00  0.00    +0.013 A 
BRANCH  18  19
ATOM     19  C   UNL     1       1.607 -22.716  44.987  0.00  0.00    +0.119 C 
BRANCH  19  20
ATOM     20  N   UNL     1       2.899 -23.054  44.317  0.00  0.00    -0.302 NA
ATOM     21  C   UNL     1       2.904 -24.483  43.767  0.00  0.00    +0.066 C 
ATOM     22  C   UNL     1       4.254 -24.811  43.050  0.00  0.00    -0.064 C 
ATOM     23  N   UNL     1       5.412 -24.603  44.027  0.00  0.00    +0.379 N 
ATOM     24  C   UNL     1       6.677 -24.966  43.373  0.00  0.00    -0.096 C 
ATOM     25  H   UNL     1       5.261 -25.300  44.884  0.00  0.00    -0.082 HD
ATOM     26  C   UNL     1       5.412 -23.185  44.581  0.00  0.00    -0.064 C 
ATOM     27  C   UNL     1       4.056 -22.859  45.266  0.00  0.00    +0.066 C 
ENDBRANCH  19  20
ENDBRANCH  18  19
ENDBRANCH  14  15
ENDBRANCH  12  13
TORSDOF 6
ENDMDL
MODEL 3
REMARK VINA RESULT:      -8.1      6.736      8.628
REMARK  Name = C:\Users\Docking\Desktop\test protocol\1iep_ligandH.pdb
REMARK  8 active torsions:
REMARK  status: ('A' for Active; 'I' for Inactive)
REMARK    1  A    between atoms: _5  and  _11
REMARK    2  A    between atoms: _19  and  _21
REMARK    3  A    between atoms: _22  and  _66
REMARK    4  A    between atoms: _27  and  _30
REMARK    5  A    between atoms: _32  and  _33
REMARK    6  A    between atoms: _38  and  _43
REMARK    7  A    between atoms: _43  and  _46
REMARK    8  A    between atoms: _53  and  _55
REMARK                            x       y       z     vdW  Elec       q    Type
REMARK                         _______ _______ _______ _____ _____    ______ ____
ROOT
ATOM     10  C   UNL     1       2.200 -18.340  54.137  0.00  0.00    +0.038 A 
ATOM     11  C   UNL     1       1.737 -19.229  53.134  0.00  0.00    +0.047 A 
ATOM     12  C   UNL     1       0.791 -18.791  52.119  0.00  0.00    +0.035 A 
ATOM     32  C   UNL     1       0.340 -17.439  52.154  0.00  0.00    +0.024 A 
ATOM     33  C   UNL     1       0.800 -16.523  53.168  0.00  0.00    +0.007 A 
ATOM     34  C   UNL     1       1.730 -16.950  54.173  0.00  0.00    -0.029 A 
ATOM     35  C   UNL     1       2.184 -15.926  55.240  0.00  0.00    +0.045 C 
ENDROOT
BRANCH  10   9
ATOM      4  C   UNL     1       3.234 -20.296  58.397  0.00  0.00    +0.077 A 
ATOM      5  C   UNL     1       1.851 -20.354  58.772  0.00  0.00    +0.048 A 
ATOM      6  C   UNL     1       0.905 -19.864  57.844  0.00  0.00    +0.116 A 
ATOM      7  N   UNL     1       1.323 -19.356  56.633  0.00  0.00    -0.223 NA
ATOM      8  C   UNL     1       2.665 -19.313  56.303  0.00  0.00    +0.220 A 
ATOM      9  N   UNL     1       3.107 -18.814  55.087  0.00  0.00    -0.283 N 
ATOM     36  H   UNL     1       4.107 -18.793  54.885  0.00  0.00    +0.155 HD
ATOM     37  N   UNL     1       3.588 -19.774  57.173  0.00  0.00    -0.214 NA
BRANCH   4   3
ATOM      1  C   UNL     1       6.056 -20.458  61.101  0.00  0.00    +0.020 A 
ATOM      2  C   UNL     1       4.980 -19.944  60.285  0.00  0.00    +0.013 A 
ATOM      3  C   UNL     1       4.351 -20.778  59.269  0.00  0.00    +0.019 A 
ATOM     38  C   UNL     1       4.838 -22.140  59.103  0.00  0.00    +0.120 A 
ATOM     39  N   UNL     1       5.876 -22.607  59.903  0.00  0.00    -0.263 NA
ATOM     40  C   UNL     1       6.490 -21.813  60.882  0.00  0.00    +0.111 A 
ENDBRANCH   4   3
ENDBRANCH  10   9
BRANCH  12  13
ATOM     13  N   UNL     1       0.280 -19.650  51.080  0.00  0.00    -0.281 N 
ATOM     14  C   UNL     1       0.953 -20.145  49.975  0.00  0.00    +0.248 C 
ATOM     30  O   UNL     1       2.046 -19.748  49.597  0.00  0.00    -0.270 OA
ATOM     31  H   UNL     1      -0.698 -19.927  51.170  0.00  0.00    +0.155 HD
BRANCH  14  15
ATOM     15  C   UNL     1       0.315 -21.227  49.165  0.00  0.00    +0.037 A 
ATOM     16  C   UNL     1      -0.897 -21.908  49.628  0.00  0.00    +0.013 A 
ATOM     17  C   UNL     1      -1.482 -22.960  48.835  0.00  0.00    +0.005 A 
ATOM     18  C   UNL     1      -0.856 -23.337  47.570  0.00  0.00    -0.033 A 
ATOM     28  C   UNL     1       0.343 -22.641  47.133  0.00  0.00    +0.005 A 
ATOM     29  C   UNL     1       0.920 -21.610  47.907  0.00  0.00    +0.013 A 
BRANCH  18  19
ATOM     19  C   UNL     1      -1.399 -24.462  46.670  0.00  0.00    +0.119 C 
BRANCH  19  20
ATOM     20  N   UNL     1      -0.722 -25.790  46.752  0.00  0.00    -0.302 NA
ATOM     21  C   UNL     1      -0.216 -26.091  48.165  0.00  0.00    +0.066 C 
ATOM     22  C   UNL     1       0.470 -27.494  48.238  0.00  0.00    -0.064 C 
ATOM     23  N   UNL     1       1.617 -27.551  47.228  0.00  0.00    +0.379 N 
ATOM     24  C   UNL     1       2.301 -28.848  47.335  0.00  0.00    -0.096 C 
ATOM     25  H   UNL     1       2.351 -26.758  47.505  0.00  0.00    -0.082 HD
ATOM     26  C   UNL     1       1.123 -27.251  45.820  0.00  0.00    -0.064 C 
ATOM     27  C   UNL     1       0.417 -25.867  45.765  0.00  0.00    +0.066 C 
ENDBRANCH  19  20
ENDBRANCH  18  19
ENDBRANCH  14  15
ENDBRANCH  12  13
TORSDOF 6
ENDMDL
