MODEL 1
REMARK VINA RESULT:      -8.6      0.000      0.000
REMARK  Name = C:\Users\Docking\Desktop\test protocol\1iep_ligandH.pdb
REMARK  8 active torsions:
REMARK  status: ('A' for Active; 'I' for Inactive)
REMARK    1  A    between atoms: _5  and  _11
REMARK    2  A    between atoms: _19  and  _21
REMARK    3  A    between atoms: _22  and  _66
REMARK    4  A    between atoms: _27  and  _30
REMARK    5  A    between atoms: _32  and  _33
REMARK    6  A    between atoms: _38  and  _43
REMARK    7  A    between atoms: _43  and  _46
REMARK    8  A    between atoms: _53  and  _55
REMARK                            x       y       z     vdW  Elec       q    Type
REMARK                         _______ _______ _______ _____ _____    ______ ____
ROOT
ATOM     10  C   UNL     1      25.895  29.944   9.026  0.00  0.00    +0.038 A 
ATOM     11  C   UNL     1      25.537  28.700   8.445  0.00  0.00    +0.047 A 
ATOM     12  C   UNL     1      26.478  27.592   8.403  0.00  0.00    +0.035 A 
ATOM     32  C   UNL     1      27.775  27.784   8.963  0.00  0.00    +0.024 A 
ATOM     33  C   UNL     1      28.155  29.042   9.555  0.00  0.00    +0.007 A 
ATOM     34  C   UNL     1      27.232  30.140   9.598  0.00  0.00    -0.029 A 
ATOM     35  C   UNL     1      27.697  31.468  10.240  0.00  0.00    +0.045 C 
ENDROOT
BRANCH  10   9
ATOM      4  C   UNL     1      22.274  32.340  11.071  0.00  0.00    +0.077 A 
ATOM      5  C   UNL     1      22.240  31.448  12.194  0.00  0.00    +0.048 A 
ATOM      6  C   UNL     1      23.166  30.381  12.203  0.00  0.00    +0.116 A 
ATOM      7  N   UNL     1      24.056  30.227  11.162  0.00  0.00    -0.223 NA
ATOM      8  C   UNL     1      24.061  31.105  10.094  0.00  0.00    +0.220 A 
ATOM      9  N   UNL     1      24.952  30.975   9.040  0.00  0.00    -0.283 N 
ATOM     36  H   UNL     1      24.919  31.638   8.267  0.00  0.00    +0.155 HD
ATOM     37  N   UNL     1      23.186  32.131  10.061  0.00  0.00    -0.214 NA
BRANCH   4   3
ATOM      1  C   UNL     1      20.492  35.779  11.621  0.00  0.00    +0.020 A 
ATOM      2  C   UNL     1      21.396  34.668  11.812  0.00  0.00    +0.013 A 
ATOM      3  C   UNL     1      21.361  33.517  10.919  0.00  0.00    +0.019 A 
ATOM     38  C   UNL     1      20.393  33.522   9.832  0.00  0.00    +0.120 A 
ATOM     39  N   UNL     1      19.535  34.605   9.673  0.00  0.00    -0.263 NA
ATOM     40  C   UNL     1      19.558  35.717  10.528  0.00  0.00    +0.111 A 
ENDBRANCH   4   3
ENDBRANCH  10   9
BRANCH  12  13
ATOM     13  N   UNL     1      26.174  26.309   7.819  0.00  0.00    -0.281 N 
ATOM     14  C   UNL     1      26.842  25.659   6.794  0.00  0.00    +0.248 C 
ATOM     30  O   UNL     1      27.680  26.183   6.075  0.00  0.00    -0.270 OA
ATOM     31  H   UNL     1      25.369  25.820   8.210  0.00  0.00    +0.155 HD
BRANCH  14  15
ATOM     15  C   UNL     1      26.524  24.225   6.519  0.00  0.00    +0.037 A 
ATOM     16  C   UNL     1      25.511  23.848   5.529  0.00  0.00    +0.013 A 
ATOM     17  C   UNL     1      25.211  22.458   5.295  0.00  0.00    +0.005 A 
ATOM     18  C   UNL     1      25.926  21.434   6.053  0.00  0.00    -0.033 A 
ATOM     28  C   UNL     1      26.929  21.835   7.025  0.00  0.00    +0.005 A 
ATOM     29  C   UNL     1      27.226  23.197   7.257  0.00  0.00    +0.013 A 
BRANCH  18  19
ATOM     19  C   UNL     1      25.656  19.927   5.884  0.00  0.00    +0.119 C 
BRANCH  19  20
ATOM     20  N   UNL     1      24.800  19.511   4.733  0.00  0.00    -0.302 NA
ATOM     21  C   UNL     1      23.726  18.503   5.150  0.00  0.00    +0.066 C 
ATOM     22  C   UNL     1      22.826  18.095   3.939  0.00  0.00    -0.064 C 
ATOM     23  N   UNL     1      23.704  17.521   2.825  0.00  0.00    +0.379 N 
ATOM     24  C   UNL     1      22.855  17.084   1.707  0.00  0.00    -0.096 C 
ATOM     25  H   UNL     1      24.219  16.620   3.232  0.00  0.00    -0.082 HD
ATOM     26  C   UNL     1      24.776  18.516   2.406  0.00  0.00    -0.064 C 
ATOM     27  C   UNL     1      25.647  18.937   3.623  0.00  0.00    +0.066 C 
ENDBRANCH  19  20
ENDBRANCH  18  19
ENDBRANCH  14  15
ENDBRANCH  12  13
TORSDOF 6
ENDMDL
MODEL 2
REMARK VINA RESULT:      -8.0      1.419      1.849
REMARK  Name = C:\Users\Docking\Desktop\test protocol\1iep_ligandH.pdb
REMARK  8 active torsions:
REMARK  status: ('A' for Active; 'I' for Inactive)
REMARK    1  A    between atoms: _5  and  _11
REMARK    2  A    between atoms: _19  and  _21
REMARK    3  A    between atoms: _22  and  _66
REMARK    4  A    between atoms: _27  and  _30
REMARK    5  A    between atoms: _32  and  _33
REMARK    6  A    between atoms: _38  and  _43
REMARK    7  A    between atoms: _43  and  _46
REMARK    8  A    between atoms: _53  and  _55
REMARK                            x       y       z     vdW  Elec       q    Type
REMARK                         _______ _______ _______ _____ _____    ______ ____
ROOT
ATOM     10  C   UNL     1      25.934  29.934   9.041  0.00  0.00    +0.038 A 
ATOM     11  C   UNL     1      25.567  28.694   8.459  0.00  0.00    +0.047 A 
ATOM     12  C   UNL     1      26.504  27.582   8.403  0.00  0.00    +0.035 A 
ATOM     32  C   UNL     1      27.806  27.767   8.952  0.00  0.00    +0.024 A 
ATOM     33  C   UNL     1      28.196  29.021   9.547  0.00  0.00    +0.007 A 
ATOM     34  C   UNL     1      27.278  30.122   9.603  0.00  0.00    -0.029 A 
ATOM     35  C   UNL     1      27.753  31.446  10.246  0.00  0.00    +0.045 C 
ENDROOT
BRANCH  10   9
ATOM      4  C   UNL     1      22.339  32.332  11.129  0.00  0.00    +0.077 A 
ATOM      5  C   UNL     1      22.311  31.434  12.248  0.00  0.00    +0.048 A 
ATOM      6  C   UNL     1      23.233  30.364  12.244  0.00  0.00    +0.116 A 
ATOM      7  N   UNL     1      24.114  30.213  11.195  0.00  0.00    -0.223 NA
ATOM      8  C   UNL     1      24.114  31.095  10.130  0.00  0.00    +0.220 A 
ATOM      9  N   UNL     1      24.995  30.967   9.069  0.00  0.00    -0.283 N 
ATOM     36  H   UNL     1      24.958  31.635   8.299  0.00  0.00    +0.155 HD
ATOM     37  N   UNL     1      23.241  32.125  10.110  0.00  0.00    -0.214 NA
BRANCH   4   3
ATOM      1  C   UNL     1      20.608  35.796  11.679  0.00  0.00    +0.020 A 
ATOM      2  C   UNL     1      21.510  34.682  11.856  0.00  0.00    +0.013 A 
ATOM      3  C   UNL     1      21.429  33.513  10.990  0.00  0.00    +0.019 A 
ATOM     38  C   UNL     1      20.416  33.502   9.946  0.00  0.00    +0.120 A 
ATOM     39  N   UNL     1      19.559  34.589   9.800  0.00  0.00    -0.263 NA
ATOM     40  C   UNL     1      19.627  35.719  10.629  0.00  0.00    +0.111 A 
ENDBRANCH   4   3
ENDBRANCH  10   9
BRANCH  12  13
ATOM     13  N   UNL     1      26.190  26.302   7.817  0.00  0.00    -0.281 N 
ATOM     14  C   UNL     1      26.865  25.641   6.804  0.00  0.00    +0.248 C 
ATOM     30  O   UNL     1      27.722  26.150   6.098  0.00  0.00    -0.270 OA
ATOM     31  H   UNL     1      25.370  25.826   8.195  0.00  0.00    +0.155 HD
BRANCH  14  15
ATOM     15  C   UNL     1      26.529  24.211   6.526  0.00  0.00    +0.037 A 
ATOM     16  C   UNL     1      25.557  23.846   5.492  0.00  0.00    +0.013 A 
ATOM     17  C   UNL     1      25.239  22.460   5.256  0.00  0.00    +0.005 A 
ATOM     18  C   UNL     1      25.894  21.428   6.056  0.00  0.00    -0.033 A 
ATOM     28  C   UNL     1      26.858  21.818   7.072  0.00  0.00    +0.005 A 
ATOM     29  C   UNL     1      27.172  23.176   7.307  0.00  0.00    +0.013 A 
BRANCH  18  19
ATOM     19  C   UNL     1      25.600  19.926   5.887  0.00  0.00    +0.119 C 
BRANCH  19  20
ATOM     20  N   UNL     1      26.688  19.076   5.319  0.00  0.00    -0.302 NA
ATOM     21  C   UNL     1      27.353  19.730   4.104  0.00  0.00    +0.066 C 
ATOM     22  C   UNL     1      28.504  18.837   3.536  0.00  0.00    -0.064 C 
ATOM     23  N   UNL     1      27.945  17.460   3.171  0.00  0.00    +0.379 N 
ATOM     24  C   UNL     1      29.011  16.638   2.583  0.00  0.00    -0.096 C 
ATOM     25  H   UNL     1      27.162  17.609   2.391  0.00  0.00    -0.082 HD
ATOM     26  C   UNL     1      27.279  16.804   4.372  0.00  0.00    -0.064 C 
ATOM     27  C   UNL     1      26.157  17.713   4.948  0.00  0.00    +0.066 C 
ENDBRANCH  19  20
ENDBRANCH  18  19
ENDBRANCH  14  15
ENDBRANCH  12  13
TORSDOF 6
ENDMDL
MODEL 3
REMARK VINA RESULT:      -7.7     19.314     22.741
REMARK  Name = C:\Users\Docking\Desktop\test protocol\1iep_ligandH.pdb
REMARK  8 active torsions:
REMARK  status: ('A' for Active; 'I' for Inactive)
REMARK    1  A    between atoms: _5  and  _11
REMARK    2  A    between atoms: _19  and  _21
REMARK    3  A    between atoms: _22  and  _66
REMARK    4  A    between atoms: _27  and  _30
REMARK    5  A    between atoms: _32  and  _33
REMARK    6  A    between atoms: _38  and  _43
REMARK    7  A    between atoms: _43  and  _46
REMARK    8  A    between atoms: _53  and  _55
REMARK                            x       y       z     vdW  Elec       q    Type
REMARK                         _______ _______ _______ _____ _____    ______ ____
ROOT
ATOM     10  C   UNL     1       5.980  35.281   2.865  0.00  0.00    +0.038 A 
ATOM     11  C   UNL     1       6.089  34.483   4.032  0.00  0.00    +0.047 A 
ATOM     12  C   UNL     1       5.132  34.608   5.121  0.00  0.00    +0.035 A 
ATOM     32  C   UNL     1       4.074  35.554   4.985  0.00  0.00    +0.024 A 
ATOM     33  C   UNL     1       3.949  36.373   3.806  0.00  0.00    +0.007 A 
ATOM     34  C   UNL     1       4.891  36.256   2.730  0.00  0.00    -0.029 A 
ATOM     35  C   UNL     1       4.712  37.165   1.492  0.00  0.00    +0.045 C 
ENDROOT
BRANCH  10   9
ATOM      4  C   UNL     1       7.596  33.139  -1.115  0.00  0.00    +0.077 A 
ATOM      5  C   UNL     1       6.473  32.248  -1.163  0.00  0.00    +0.048 A 
ATOM      6  C   UNL     1       5.505  32.368  -0.140  0.00  0.00    +0.116 A 
ATOM      7  N   UNL     1       5.659  33.314   0.851  0.00  0.00    -0.223 NA
ATOM      8  C   UNL     1       6.755  34.157   0.868  0.00  0.00    +0.220 A 
ATOM      9  N   UNL     1       6.926  35.120   1.850  0.00  0.00    -0.283 N 
ATOM     36  H   UNL     1       7.752  35.717   1.832  0.00  0.00    +0.155 HD
ATOM     37  N   UNL     1       7.694  34.061  -0.097  0.00  0.00    -0.214 NA
BRANCH   4   3
ATOM      1  C   UNL     1      10.812  32.189  -3.129  0.00  0.00    +0.020 A 
ATOM      2  C   UNL     1       9.769  32.146  -2.130  0.00  0.00    +0.013 A 
ATOM      3  C   UNL     1       8.700  33.137  -2.126  0.00  0.00    +0.019 A 
ATOM     38  C   UNL     1       8.715  34.165  -3.156  0.00  0.00    +0.120 A 
ATOM     39  N   UNL     1       9.733  34.181  -4.105  0.00  0.00    -0.263 NA
ATOM     40  C   UNL     1      10.768  33.234  -4.117  0.00  0.00    +0.111 A 
ENDBRANCH   4   3
ENDBRANCH  10   9
BRANCH  12  13
ATOM     13  N   UNL     1       5.197  33.831   6.334  0.00  0.00    -0.281 N 
ATOM     14  C   UNL     1       5.840  34.153   7.518  0.00  0.00    +0.248 C 
ATOM     30  O   UNL     1       6.640  35.067   7.643  0.00  0.00    -0.270 OA
ATOM     31  H   UNL     1       4.710  32.935   6.317  0.00  0.00    +0.155 HD
BRANCH  14  15
ATOM     15  C   UNL     1       5.564  33.331   8.735  0.00  0.00    +0.037 A 
ATOM     16  C   UNL     1       4.234  32.773   8.990  0.00  0.00    +0.013 A 
ATOM     17  C   UNL     1       3.990  31.998  10.181  0.00  0.00    +0.005 A 
ATOM     18  C   UNL     1       5.082  31.775  11.126  0.00  0.00    -0.033 A 
ATOM     28  C   UNL     1       6.393  32.336  10.846  0.00  0.00    +0.005 A 
ATOM     29  C   UNL     1       6.635  33.097   9.680  0.00  0.00    +0.013 A 
BRANCH  18  19
ATOM     19  C   UNL     1       4.908  30.979  12.433  0.00  0.00    +0.119 C 
BRANCH  19  20
ATOM     20  N   UNL     1       5.177  31.698  13.713  0.00  0.00    -0.302 NA
ATOM     21  C   UNL     1       4.962  30.799  14.934  0.00  0.00    +0.066 C 
ATOM     22  C   UNL     1       5.271  31.561  16.264  0.00  0.00    -0.064 C 
ATOM     23  N   UNL     1       4.390  32.809  16.349  0.00  0.00    +0.379 N 
ATOM     24  C   UNL     1       4.636  33.496  17.625  0.00  0.00    -0.096 C 
ATOM     25  H   UNL     1       3.327  32.473  16.344  0.00  0.00    -0.082 HD
ATOM     26  C   UNL     1       4.596  33.707  15.138  0.00  0.00    -0.064 C 
ATOM     27  C   UNL     1       4.315  32.932  13.820  0.00  0.00    +0.066 C 
ENDBRANCH  19  20
ENDBRANCH  18  19
ENDBRANCH  14  15
ENDBRANCH  12  13
TORSDOF 6
ENDMDL
