MODEL 1
REMARK VINA RESULT:      -6.3      0.000      0.000
REMARK  Name = C:\Users\Docking\Desktop\test protocol\1iep_ligandH.pdb
REMARK  8 active torsions:
REMARK  status: ('A' for Active; 'I' for Inactive)
REMARK    1  A    between atoms: _5  and  _11
REMARK    2  A    between atoms: _19  and  _21
REMARK    3  A    between atoms: _22  and  _66
REMARK    4  A    between atoms: _27  and  _30
REMARK    5  A    between atoms: _32  and  _33
REMARK    6  A    between atoms: _38  and  _43
REMARK    7  A    between atoms: _43  and  _46
REMARK    8  A    between atoms: _53  and  _55
REMARK                            x       y       z     vdW  Elec       q    Type
REMARK                         _______ _______ _______ _____ _____    ______ ____
ROOT
ATOM     10  C   UNL     1      13.315  14.128   3.231  0.00  0.00    +0.038 A 
ATOM     11  C   UNL     1      13.255  13.691   4.579  0.00  0.00    +0.047 A 
ATOM     12  C   UNL     1      11.980  13.424   5.227  0.00  0.00    +0.035 A 
ATOM     32  C   UNL     1      10.786  13.609   4.471  0.00  0.00    +0.024 A 
ATOM     33  C   UNL     1      10.829  14.054   3.100  0.00  0.00    +0.007 A 
ATOM     34  C   UNL     1      12.083  14.321   2.457  0.00  0.00    -0.029 A 
ATOM     35  C   UNL     1      12.069  14.802   0.987  0.00  0.00    +0.045 C 
ENDROOT
BRANCH  10   9
ATOM      4  C   UNL     1      17.070  12.803   0.550  0.00  0.00    +0.077 A 
ATOM      5  C   UNL     1      16.504  11.511   0.291  0.00  0.00    +0.048 A 
ATOM      6  C   UNL     1      15.248  11.224   0.871  0.00  0.00    +0.116 A 
ATOM      7  N   UNL     1      14.615  12.167   1.651  0.00  0.00    -0.223 NA
ATOM      8  C   UNL     1      15.189  13.403   1.883  0.00  0.00    +0.220 A 
ATOM      9  N   UNL     1      14.566  14.369   2.658  0.00  0.00    -0.283 N 
ATOM     36  H   UNL     1      15.026  15.266   2.811  0.00  0.00    +0.155 HD
ATOM     37  N   UNL     1      16.388  13.701   1.341  0.00  0.00    -0.214 NA
BRANCH   4   3
ATOM      1  C   UNL     1      20.843  12.925  -0.476  0.00  0.00    +0.020 A 
ATOM      2  C   UNL     1      19.594  12.440   0.066  0.00  0.00    +0.013 A 
ATOM      3  C   UNL     1      18.388  13.257   0.005  0.00  0.00    +0.019 A 
ATOM     38  C   UNL     1      18.480  14.569  -0.618  0.00  0.00    +0.120 A 
ATOM     39  N   UNL     1      19.696  15.010  -1.131  0.00  0.00    -0.263 NA
ATOM     40  C   UNL     1      20.864  14.233  -1.076  0.00  0.00    +0.111 A 
ENDBRANCH   4   3
ENDBRANCH  10   9
BRANCH  12  13
ATOM     13  N   UNL     1      11.857  12.986   6.595  0.00  0.00    -0.281 N 
ATOM     14  C   UNL     1      11.830  11.687   7.075  0.00  0.00    +0.248 C 
ATOM     30  O   UNL     1      11.693  10.694   6.375  0.00  0.00    -0.270 OA
ATOM     31  H   UNL     1      11.780  13.724   7.296  0.00  0.00    +0.155 HD
BRANCH  14  15
ATOM     15  C   UNL     1      11.959  11.457   8.546  0.00  0.00    +0.037 A 
ATOM     16  C   UNL     1      13.268  11.241   9.169  0.00  0.00    +0.013 A 
ATOM     17  C   UNL     1      13.363  11.005  10.588  0.00  0.00    +0.005 A 
ATOM     18  C   UNL     1      12.145  10.985  11.394  0.00  0.00    -0.033 A 
ATOM     28  C   UNL     1      10.860  11.207  10.751  0.00  0.00    +0.005 A 
ATOM     29  C   UNL     1      10.763  11.438   9.360  0.00  0.00    +0.013 A 
BRANCH  18  19
ATOM     19  C   UNL     1      12.150  10.719  12.911  0.00  0.00    +0.119 C 
BRANCH  19  20
ATOM     20  N   UNL     1      12.924  11.666  13.768  0.00  0.00    -0.302 NA
ATOM     21  C   UNL     1      14.077  10.969  14.496  0.00  0.00    +0.066 C 
ATOM     22  C   UNL     1      14.890  11.978  15.371  0.00  0.00    -0.064 C 
ATOM     23  N   UNL     1      13.950  12.657  16.369  0.00  0.00    +0.379 N 
ATOM     24  C   UNL     1      14.722  13.563  17.231  0.00  0.00    -0.096 C 
ATOM     25  H   UNL     1      13.515  11.861  17.018  0.00  0.00    -0.082 HD
ATOM     26  C   UNL     1      12.799  13.349  15.653  0.00  0.00    -0.064 C 
ATOM     27  C   UNL     1      12.016  12.344  14.764  0.00  0.00    +0.066 C 
ENDBRANCH  19  20
ENDBRANCH  18  19
ENDBRANCH  14  15
ENDBRANCH  12  13
TORSDOF 6
ENDMDL
MODEL 2
REMARK VINA RESULT:      -5.9      1.067      1.541
REMARK  Name = C:\Users\Docking\Desktop\test protocol\1iep_ligandH.pdb
REMARK  8 active torsions:
REMARK  status: ('A' for Active; 'I' for Inactive)
REMARK    1  A    between atoms: _5  and  _11
REMARK    2  A    between atoms: _19  and  _21
REMARK    3  A    between atoms: _22  and  _66
REMARK    4  A    between atoms: _27  and  _30
REMARK    5  A    between atoms: _32  and  _33
REMARK    6  A    between atoms: _38  and  _43
REMARK    7  A    between atoms: _43  and  _46
REMARK    8  A    between atoms: _53  and  _55
REMARK                            x       y       z     vdW  Elec       q    Type
REMARK                         _______ _______ _______ _____ _____    ______ ____
ROOT
ATOM     10  C   UNL     1      13.447  14.125   3.165  0.00  0.00    +0.038 A 
ATOM     11  C   UNL     1      13.400  13.697   4.516  0.00  0.00    +0.047 A 
ATOM     12  C   UNL     1      12.132  13.426   5.177  0.00  0.00    +0.035 A 
ATOM     32  C   UNL     1      10.931  13.600   4.429  0.00  0.00    +0.024 A 
ATOM     33  C   UNL     1      10.960  14.035   3.055  0.00  0.00    +0.007 A 
ATOM     34  C   UNL     1      12.207  14.306   2.400  0.00  0.00    -0.029 A 
ATOM     35  C   UNL     1      12.178  14.777   0.927  0.00  0.00    +0.045 C 
ENDROOT
BRANCH  10   9
ATOM      4  C   UNL     1      17.204  12.795   0.491  0.00  0.00    +0.077 A 
ATOM      5  C   UNL     1      16.653  11.491   0.260  0.00  0.00    +0.048 A 
ATOM      6  C   UNL     1      15.404  11.200   0.853  0.00  0.00    +0.116 A 
ATOM      7  N   UNL     1      14.763  12.150   1.618  0.00  0.00    -0.223 NA
ATOM      8  C   UNL     1      15.322  13.398   1.822  0.00  0.00    +0.220 A 
ATOM      9  N   UNL     1      14.691  14.371   2.581  0.00  0.00    -0.283 N 
ATOM     36  H   UNL     1      15.141  15.277   2.714  0.00  0.00    +0.155 HD
ATOM     37  N   UNL     1      16.515  13.700   1.268  0.00  0.00    -0.214 NA
BRANCH   4   3
ATOM      1  C   UNL     1      19.929  14.825  -1.446  0.00  0.00    +0.020 A 
ATOM      2  C   UNL     1      18.641  14.424  -0.930  0.00  0.00    +0.013 A 
ATOM      3  C   UNL     1      18.514  13.254  -0.071  0.00  0.00    +0.019 A 
ATOM     38  C   UNL     1      19.719  12.505   0.250  0.00  0.00    +0.120 A 
ATOM     39  N   UNL     1      20.947  12.914  -0.262  0.00  0.00    -0.263 NA
ATOM     40  C   UNL     1      21.081  14.038  -1.091  0.00  0.00    +0.111 A 
ENDBRANCH   4   3
ENDBRANCH  10   9
BRANCH  12  13
ATOM     13  N   UNL     1      12.022  12.997   6.549  0.00  0.00    -0.281 N 
ATOM     14  C   UNL     1      11.899  11.703   7.029  0.00  0.00    +0.248 C 
ATOM     30  O   UNL     1      11.649  10.729   6.334  0.00  0.00    -0.270 OA
ATOM     31  H   UNL     1      12.037  13.736   7.251  0.00  0.00    +0.155 HD
BRANCH  14  15
ATOM     15  C   UNL     1      12.063  11.458   8.494  0.00  0.00    +0.037 A 
ATOM     16  C   UNL     1      13.390  11.283   9.091  0.00  0.00    +0.013 A 
ATOM     17  C   UNL     1      13.519  11.031  10.505  0.00  0.00    +0.005 A 
ATOM     18  C   UNL     1      12.317  10.954  11.331  0.00  0.00    -0.033 A 
ATOM     28  C   UNL     1      11.014  11.137  10.714  0.00  0.00    +0.005 A 
ATOM     29  C   UNL     1      10.883  11.383   9.328  0.00  0.00    +0.013 A 
BRANCH  18  19
ATOM     19  C   UNL     1      12.359  10.668  12.844  0.00  0.00    +0.119 C 
BRANCH  19  20
ATOM     20  N   UNL     1      11.669  11.640  13.743  0.00  0.00    -0.302 NA
ATOM     21  C   UNL     1      12.639  12.304  14.725  0.00  0.00    +0.066 C 
ATOM     22  C   UNL     1      11.903  13.334  15.642  0.00  0.00    -0.064 C 
ATOM     23  N   UNL     1      10.772  12.628  16.393  0.00  0.00    +0.379 N 
ATOM     24  C   UNL     1      10.116  13.581  17.300  0.00  0.00    -0.096 C 
ATOM     25  H   UNL     1      11.230  11.826  17.017  0.00  0.00    -0.082 HD
ATOM     26  C   UNL     1       9.805  11.963  15.424  0.00  0.00    -0.064 C 
ATOM     27  C   UNL     1      10.550  10.963  14.497  0.00  0.00    +0.066 C 
ENDBRANCH  19  20
ENDBRANCH  18  19
ENDBRANCH  14  15
ENDBRANCH  12  13
TORSDOF 6
ENDMDL
MODEL 3
REMARK VINA RESULT:      -5.9      1.682      2.176
REMARK  Name = C:\Users\Docking\Desktop\test protocol\1iep_ligandH.pdb
REMARK  8 active torsions:
REMARK  status: ('A' for Active; 'I' for Inactive)
REMARK    1  A    between atoms: _5  and  _11
REMARK    2  A    between atoms: _19  and  _21
REMARK    3  A    between atoms: _22  and  _66
REMARK    4  A    between atoms: _27  and  _30
REMARK    5  A    between atoms: _32  and  _33
REMARK    6  A    between atoms: _38  and  _43
REMARK    7  A    between atoms: _43  and  _46
REMARK    8  A    between atoms: _53  and  _55
REMARK                            x       y       z     vdW  Elec       q    Type
REMARK                         _______ _______ _______ _____ _____    ______ ____
ROOT
ATOM     10  C   UNL     1      13.308  13.561   2.052  0.00  0.00    +0.038 A 
ATOM     11  C   UNL     1      13.419  13.358   3.452  0.00  0.00    +0.047 A 
ATOM     12  C   UNL     1      12.565  12.405   4.144  0.00  0.00    +0.035 A 
ATOM     32  C   UNL     1      11.610  11.674   3.380  0.00  0.00    +0.024 A 
ATOM     33  C   UNL     1      11.482  11.869   1.957  0.00  0.00    +0.007 A 
ATOM     34  C   UNL     1      12.320  12.809   1.269  0.00  0.00    -0.029 A 
ATOM     35  C   UNL     1      12.135  12.982  -0.257  0.00  0.00    +0.045 C 
ENDROOT
BRANCH  10   9
ATOM      4  C   UNL     1      17.381  14.732  -0.200  0.00  0.00    +0.077 A 
ATOM      5  C   UNL     1      17.879  13.389  -0.124  0.00  0.00    +0.048 A 
ATOM      6  C   UNL     1      17.059  12.428   0.509  0.00  0.00    +0.116 A 
ATOM      7  N   UNL     1      15.834  12.794   1.024  0.00  0.00    -0.223 NA
ATOM      8  C   UNL     1      15.385  14.099   0.935  0.00  0.00    +0.220 A 
ATOM      9  N   UNL     1      14.153  14.488   1.439  0.00  0.00    -0.283 N 
ATOM     36  H   UNL     1      13.861  15.462   1.360  0.00  0.00    +0.155 HD
ATOM     37  N   UNL     1      16.150  15.036   0.337  0.00  0.00    -0.214 NA
BRANCH   4   3
ATOM      1  C   UNL     1      20.189  16.859  -1.902  0.00  0.00    +0.020 A 
ATOM      2  C   UNL     1      19.512  15.740  -1.288  0.00  0.00    +0.013 A 
ATOM      3  C   UNL     1      18.130  15.859  -0.841  0.00  0.00    +0.019 A 
ATOM     38  C   UNL     1      17.455  17.134  -1.033  0.00  0.00    +0.120 A 
ATOM     39  N   UNL     1      18.133  18.195  -1.626  0.00  0.00    -0.263 NA
ATOM     40  C   UNL     1      19.464  18.092  -2.058  0.00  0.00    +0.111 A 
ENDBRANCH   4   3
ENDBRANCH  10   9
BRANCH  12  13
ATOM     13  N   UNL     1      12.627  12.163   5.564  0.00  0.00    -0.281 N 
ATOM     14  C   UNL     1      11.677  12.472   6.523  0.00  0.00    +0.248 C 
ATOM     30  O   UNL     1      10.715  13.202   6.333  0.00  0.00    -0.270 OA
ATOM     31  H   UNL     1      13.475  11.708   5.904  0.00  0.00    +0.155 HD
BRANCH  14  15
ATOM     15  C   UNL     1      11.824  11.900   7.896  0.00  0.00    +0.037 A 
ATOM     16  C   UNL     1      10.665  11.726   8.775  0.00  0.00    +0.013 A 
ATOM     17  C   UNL     1      10.837  11.187  10.101  0.00  0.00    +0.005 A 
ATOM     18  C   UNL     1      12.175  10.818  10.556  0.00  0.00    -0.033 A 
ATOM     28  C   UNL     1      13.307  10.997   9.662  0.00  0.00    +0.005 A 
ATOM     29  C   UNL     1      13.142  11.525   8.362  0.00  0.00    +0.013 A 
BRANCH  18  19
ATOM     19  C   UNL     1      12.455  10.256  11.962  0.00  0.00    +0.119 C 
BRANCH  19  20
ATOM     20  N   UNL     1      12.795  11.237  13.036  0.00  0.00    -0.302 NA
ATOM     21  C   UNL     1      13.983  10.772  13.883  0.00  0.00    +0.066 C 
ATOM     22  C   UNL     1      14.339  11.821  14.987  0.00  0.00    -0.064 C 
ATOM     23  N   UNL     1      13.112  12.071  15.865  0.00  0.00    +0.379 N 
ATOM     24  C   UNL     1      13.461  13.013  16.938  0.00  0.00    -0.096 C 
ATOM     25  H   UNL     1      12.835  11.102  16.341  0.00  0.00    -0.082 HD
ATOM     26  C   UNL     1      11.926  12.531  15.029  0.00  0.00    -0.064 C 
ATOM     27  C   UNL     1      11.598  11.495  13.917  0.00  0.00    +0.066 C 
ENDBRANCH  19  20
ENDBRANCH  18  19
ENDBRANCH  14  15
ENDBRANCH  12  13
TORSDOF 6
ENDMDL
