MODEL 1
REMARK VINA RESULT:     -10.2      0.000      0.000
REMARK  Name = C:\Users\Docking\Desktop\test protocol\1iep_ligandH.pdb
REMARK  8 active torsions:
REMARK  status: ('A' for Active; 'I' for Inactive)
REMARK    1  A    between atoms: _5  and  _11
REMARK    2  A    between atoms: _19  and  _21
REMARK    3  A    between atoms: _22  and  _66
REMARK    4  A    between atoms: _27  and  _30
REMARK    5  A    between atoms: _32  and  _33
REMARK    6  A    between atoms: _38  and  _43
REMARK    7  A    between atoms: _43  and  _46
REMARK    8  A    between atoms: _53  and  _55
REMARK                            x       y       z     vdW  Elec       q    Type
REMARK                         _______ _______ _______ _____ _____    ______ ____
ROOT
ATOM     10  C   UNL     1      24.324  19.646  21.389  0.00  0.00    +0.038 A 
ATOM     11  C   UNL     1      24.245  20.427  22.571  0.00  0.00    +0.047 A 
ATOM     12  C   UNL     1      23.693  21.773  22.547  0.00  0.00    +0.035 A 
ATOM     32  C   UNL     1      23.229  22.291  21.303  0.00  0.00    +0.024 A 
ATOM     33  C   UNL     1      23.303  21.512  20.093  0.00  0.00    +0.007 A 
ATOM     34  C   UNL     1      23.849  20.184  20.109  0.00  0.00    -0.029 A 
ATOM     35  C   UNL     1      23.909  19.397  18.780  0.00  0.00    +0.045 C 
ENDROOT
BRANCH  10   9
ATOM      4  C   UNL     1      28.027  16.630  21.869  0.00  0.00    +0.077 A 
ATOM      5  C   UNL     1      28.971  17.707  21.940  0.00  0.00    +0.048 A 
ATOM      6  C   UNL     1      28.464  19.022  21.841  0.00  0.00    +0.116 A 
ATOM      7  N   UNL     1      27.112  19.233  21.685  0.00  0.00    -0.223 NA
ATOM      8  C   UNL     1      26.228  18.171  21.619  0.00  0.00    +0.220 A 
ATOM      9  N   UNL     1      24.862  18.360  21.469  0.00  0.00    -0.283 N 
ATOM     36  H   UNL     1      24.244  17.550  21.418  0.00  0.00    +0.155 HD
ATOM     37  N   UNL     1      26.687  16.906  21.709  0.00  0.00    -0.214 NA
BRANCH   4   3
ATOM      1  C   UNL     1      29.789  13.188  21.275  0.00  0.00    +0.020 A 
ATOM      2  C   UNL     1      29.459  14.589  21.147  0.00  0.00    +0.013 A 
ATOM      3  C   UNL     1      28.407  15.185  21.961  0.00  0.00    +0.019 A 
ATOM     38  C   UNL     1      27.703  14.329  22.904  0.00  0.00    +0.120 A 
ATOM     39  N   UNL     1      28.041  12.983  23.004  0.00  0.00    -0.263 NA
ATOM     40  C   UNL     1      29.050  12.398  22.224  0.00  0.00    +0.111 A 
ENDBRANCH   4   3
ENDBRANCH  10   9
BRANCH  12  13
ATOM     13  N   UNL     1      23.594  22.616  23.713  0.00  0.00    -0.281 N 
ATOM     14  C   UNL     1      24.553  23.473  24.228  0.00  0.00    +0.248 C 
ATOM     30  O   UNL     1      25.726  23.485  23.883  0.00  0.00    -0.270 OA
ATOM     31  H   UNL     1      22.710  22.575  24.221  0.00  0.00    +0.155 HD
BRANCH  14  15
ATOM     15  C   UNL     1      24.155  24.448  25.289  0.00  0.00    +0.037 A 
ATOM     16  C   UNL     1      24.557  25.855  25.217  0.00  0.00    +0.013 A 
ATOM     17  C   UNL     1      24.174  26.770  26.263  0.00  0.00    +0.005 A 
ATOM     18  C   UNL     1      23.382  26.281  27.389  0.00  0.00    -0.033 A 
ATOM     28  C   UNL     1      22.993  24.881  27.432  0.00  0.00    +0.005 A 
ATOM     29  C   UNL     1      23.367  23.980  26.410  0.00  0.00    +0.013 A 
BRANCH  18  19
ATOM     19  C   UNL     1      22.947  27.182  28.560  0.00  0.00    +0.119 C 
BRANCH  19  20
ATOM     20  N   UNL     1      23.995  27.569  29.551  0.00  0.00    -0.302 NA
ATOM     21  C   UNL     1      25.010  26.445  29.782  0.00  0.00    +0.066 C 
ATOM     22  C   UNL     1      26.111  26.875  30.805  0.00  0.00    -0.064 C 
ATOM     23  N   UNL     1      25.449  27.286  32.121  0.00  0.00    +0.379 N 
ATOM     24  C   UNL     1      26.485  27.635  33.104  0.00  0.00    -0.096 C 
ATOM     25  H   UNL     1      24.896  26.400  32.512  0.00  0.00    -0.082 HD
ATOM     26  C   UNL     1      24.436  28.400  31.900  0.00  0.00    -0.064 C 
ATOM     27  C   UNL     1      23.363  27.974  30.860  0.00  0.00    +0.066 C 
ENDBRANCH  19  20
ENDBRANCH  18  19
ENDBRANCH  14  15
ENDBRANCH  12  13
TORSDOF 6
ENDMDL
MODEL 2
REMARK VINA RESULT:     -10.0      1.507      1.823
REMARK  Name = C:\Users\Docking\Desktop\test protocol\1iep_ligandH.pdb
REMARK  8 active torsions:
REMARK  status: ('A' for Active; 'I' for Inactive)
REMARK    1  A    between atoms: _5  and  _11
REMARK    2  A    between atoms: _19  and  _21
REMARK    3  A    between atoms: _22  and  _66
REMARK    4  A    between atoms: _27  and  _30
REMARK    5  A    between atoms: _32  and  _33
REMARK    6  A    between atoms: _38  and  _43
REMARK    7  A    between atoms: _43  and  _46
REMARK    8  A    between atoms: _53  and  _55
REMARK                            x       y       z     vdW  Elec       q    Type
REMARK                         _______ _______ _______ _____ _____    ______ ____
ROOT
ATOM     10  C   UNL     1      24.439  19.689  21.494  0.00  0.00    +0.038 A 
ATOM     11  C   UNL     1      24.412  20.453  22.688  0.00  0.00    +0.047 A 
ATOM     12  C   UNL     1      23.877  21.806  22.704  0.00  0.00    +0.035 A 
ATOM     32  C   UNL     1      23.374  22.348  21.486  0.00  0.00    +0.024 A 
ATOM     33  C   UNL     1      23.395  21.585  20.262  0.00  0.00    +0.007 A 
ATOM     34  C   UNL     1      23.924  20.252  20.240  0.00  0.00    -0.029 A 
ATOM     35  C   UNL     1      23.926  19.483  18.898  0.00  0.00    +0.045 C 
ENDROOT
BRANCH  10   9
ATOM      4  C   UNL     1      28.106  16.621  21.918  0.00  0.00    +0.077 A 
ATOM      5  C   UNL     1      29.060  17.686  22.040  0.00  0.00    +0.048 A 
ATOM      6  C   UNL     1      28.566  19.009  21.981  0.00  0.00    +0.116 A 
ATOM      7  N   UNL     1      27.218  19.238  21.813  0.00  0.00    -0.223 NA
ATOM      8  C   UNL     1      26.325  18.188  21.697  0.00  0.00    +0.220 A 
ATOM      9  N   UNL     1      24.964  18.395  21.535  0.00  0.00    -0.283 N 
ATOM     36  H   UNL     1      24.339  17.594  21.446  0.00  0.00    +0.155 HD
ATOM     37  N   UNL     1      26.771  16.916  21.749  0.00  0.00    -0.214 NA
BRANCH   4   3
ATOM      1  C   UNL     1      28.263  12.840  22.908  0.00  0.00    +0.020 A 
ATOM      2  C   UNL     1      27.874  14.232  22.905  0.00  0.00    +0.013 A 
ATOM      3  C   UNL     1      28.472  15.170  21.964  0.00  0.00    +0.019 A 
ATOM     38  C   UNL     1      29.467  14.664  21.030  0.00  0.00    +0.120 A 
ATOM     39  N   UNL     1      29.822  13.319  21.057  0.00  0.00    -0.263 NA
ATOM     40  C   UNL     1      29.255  12.407  21.959  0.00  0.00    +0.111 A 
ENDBRANCH   4   3
ENDBRANCH  10   9
BRANCH  12  13
ATOM     13  N   UNL     1      23.831  22.632  23.885  0.00  0.00    -0.281 N 
ATOM     14  C   UNL     1      22.863  22.649  24.876  0.00  0.00    +0.248 C 
ATOM     30  O   UNL     1      21.774  22.103  24.787  0.00  0.00    -0.270 OA
ATOM     31  H   UNL     1      24.607  23.284  24.005  0.00  0.00    +0.155 HD
BRANCH  14  15
ATOM     15  C   UNL     1      23.139  23.393  26.142  0.00  0.00    +0.037 A 
ATOM     16  C   UNL     1      22.076  24.114  26.847  0.00  0.00    +0.013 A 
ATOM     17  C   UNL     1      22.373  24.837  28.058  0.00  0.00    +0.005 A 
ATOM     18  C   UNL     1      23.741  24.842  28.573  0.00  0.00    -0.033 A 
ATOM     28  C   UNL     1      24.775  24.113  27.856  0.00  0.00    +0.005 A 
ATOM     29  C   UNL     1      24.488  23.404  26.668  0.00  0.00    +0.013 A 
BRANCH  18  19
ATOM     19  C   UNL     1      24.153  25.604  29.846  0.00  0.00    +0.119 C 
BRANCH  19  20
ATOM     20  N   UNL     1      24.613  27.015  29.680  0.00  0.00    -0.302 NA
ATOM     21  C   UNL     1      26.103  27.174  29.997  0.00  0.00    +0.066 C 
ATOM     22  C   UNL     1      26.573  28.652  29.796  0.00  0.00    -0.064 C 
ATOM     23  N   UNL     1      25.729  29.576  30.676  0.00  0.00    +0.379 N 
ATOM     24  C   UNL     1      26.207  30.959  30.533  0.00  0.00    -0.096 C 
ATOM     25  H   UNL     1      25.888  29.271  31.736  0.00  0.00    -0.082 HD
ATOM     26  C   UNL     1      24.246  29.422  30.368  0.00  0.00    -0.064 C 
ATOM     27  C   UNL     1      23.796  27.945  30.543  0.00  0.00    +0.066 C 
ENDBRANCH  19  20
ENDBRANCH  18  19
ENDBRANCH  14  15
ENDBRANCH  12  13
TORSDOF 6
ENDMDL
MODEL 3
REMARK VINA RESULT:      -9.9      2.954      4.483
REMARK  Name = C:\Users\Docking\Desktop\test protocol\1iep_ligandH.pdb
REMARK  8 active torsions:
REMARK  status: ('A' for Active; 'I' for Inactive)
REMARK    1  A    between atoms: _5  and  _11
REMARK    2  A    between atoms: _19  and  _21
REMARK    3  A    between atoms: _22  and  _66
REMARK    4  A    between atoms: _27  and  _30
REMARK    5  A    between atoms: _32  and  _33
REMARK    6  A    between atoms: _38  and  _43
REMARK    7  A    between atoms: _43  and  _46
REMARK    8  A    between atoms: _53  and  _55
REMARK                            x       y       z     vdW  Elec       q    Type
REMARK                         _______ _______ _______ _____ _____    ______ ____
ROOT
ATOM     10  C   UNL     1      23.884  21.933  22.569  0.00  0.00    +0.038 A 
ATOM     11  C   UNL     1      24.536  22.888  23.390  0.00  0.00    +0.047 A 
ATOM     12  C   UNL     1      24.035  23.206  24.718  0.00  0.00    +0.035 A 
ATOM     32  C   UNL     1      22.868  22.531  25.180  0.00  0.00    +0.024 A 
ATOM     33  C   UNL     1      22.192  21.558  24.358  0.00  0.00    +0.007 A 
ATOM     34  C   UNL     1      22.680  21.242  23.047  0.00  0.00    -0.029 A 
ATOM     35  C   UNL     1      21.910  20.195  22.207  0.00  0.00    +0.045 C 
ENDROOT
BRANCH  10   9
ATOM      4  C   UNL     1      26.864  19.582  19.632  0.00  0.00    +0.077 A 
ATOM      5  C   UNL     1      27.445  18.844  20.716  0.00  0.00    +0.048 A 
ATOM      6  C   UNL     1      26.954  19.103  22.015  0.00  0.00    +0.116 A 
ATOM      7  N   UNL     1      25.955  20.034  22.204  0.00  0.00    -0.223 NA
ATOM      8  C   UNL     1      25.418  20.730  21.137  0.00  0.00    +0.220 A 
ATOM      9  N   UNL     1      24.408  21.665  21.303  0.00  0.00    -0.283 N 
ATOM     36  H   UNL     1      24.043  22.163  20.491  0.00  0.00    +0.155 HD
ATOM     37  N   UNL     1      25.871  20.502  19.887  0.00  0.00    -0.214 NA
BRANCH   4   3
ATOM      1  C   UNL     1      26.776  18.974  15.769  0.00  0.00    +0.020 A 
ATOM      2  C   UNL     1      26.327  19.123  17.134  0.00  0.00    +0.013 A 
ATOM      3  C   UNL     1      27.275  19.418  18.202  0.00  0.00    +0.019 A 
ATOM     38  C   UNL     1      28.680  19.557  17.851  0.00  0.00    +0.120 A 
ATOM     39  N   UNL     1      29.083  19.407  16.528  0.00  0.00    -0.263 NA
ATOM     40  C   UNL     1      28.181  19.122  15.492  0.00  0.00    +0.111 A 
ENDBRANCH   4   3
ENDBRANCH  10   9
BRANCH  12  13
ATOM     13  N   UNL     1      24.651  24.173  25.593  0.00  0.00    -0.281 N 
ATOM     14  C   UNL     1      24.220  25.457  25.881  0.00  0.00    +0.248 C 
ATOM     30  O   UNL     1      23.349  26.049  25.261  0.00  0.00    -0.270 OA
ATOM     31  H   UNL     1      25.509  23.874  26.056  0.00  0.00    +0.155 HD
BRANCH  14  15
ATOM     15  C   UNL     1      24.858  26.197  27.012  0.00  0.00    +0.037 A 
ATOM     16  C   UNL     1      24.240  26.235  28.340  0.00  0.00    +0.013 A 
ATOM     17  C   UNL     1      24.868  26.969  29.410  0.00  0.00    +0.005 A 
ATOM     18  C   UNL     1      26.124  27.671  29.155  0.00  0.00    -0.033 A 
ATOM     28  C   UNL     1      26.718  27.613  27.830  0.00  0.00    +0.005 A 
ATOM     29  C   UNL     1      26.105  26.894  26.779  0.00  0.00    +0.013 A 
BRANCH  18  19
ATOM     19  C   UNL     1      26.853  28.497  30.232  0.00  0.00    +0.119 C 
BRANCH  19  20
ATOM     20  N   UNL     1      26.265  28.503  31.604  0.00  0.00    -0.302 NA
ATOM     21  C   UNL     1      25.389  29.735  31.849  0.00  0.00    +0.066 C 
ATOM     22  C   UNL     1      24.764  29.714  33.282  0.00  0.00    -0.064 C 
ATOM     23  N   UNL     1      25.882  29.628  34.322  0.00  0.00    +0.379 N 
ATOM     24  C   UNL     1      25.301  29.666  35.672  0.00  0.00    -0.096 C 
ATOM     25  H   UNL     1      26.523  30.533  34.204  0.00  0.00    -0.082 HD
ATOM     26  C   UNL     1      26.759  28.407  34.084  0.00  0.00    -0.064 C 
ATOM     27  C   UNL     1      27.352  28.423  32.648  0.00  0.00    +0.066 C 
ENDBRANCH  19  20
ENDBRANCH  18  19
ENDBRANCH  14  15
ENDBRANCH  12  13
TORSDOF 6
ENDMDL
