MODEL 1
REMARK VINA RESULT:      -7.6      0.000      0.000
REMARK  Name = C:\Users\Docking\Desktop\test protocol\1iep_ligandH.pdb
REMARK  8 active torsions:
REMARK  status: ('A' for Active; 'I' for Inactive)
REMARK    1  A    between atoms: _5  and  _11
REMARK    2  A    between atoms: _19  and  _21
REMARK    3  A    between atoms: _22  and  _66
REMARK    4  A    between atoms: _27  and  _30
REMARK    5  A    between atoms: _32  and  _33
REMARK    6  A    between atoms: _38  and  _43
REMARK    7  A    between atoms: _43  and  _46
REMARK    8  A    between atoms: _53  and  _55
REMARK                            x       y       z     vdW  Elec       q    Type
REMARK                         _______ _______ _______ _____ _____    ______ ____
ROOT
ATOM     10  C   UNL     1      55.661  21.964  27.897  0.00  0.00    +0.038 A 
ATOM     11  C   UNL     1      54.882  21.363  28.919  0.00  0.00    +0.047 A 
ATOM     12  C   UNL     1      55.482  20.462  29.890  0.00  0.00    +0.035 A 
ATOM     32  C   UNL     1      56.880  20.198  29.794  0.00  0.00    +0.024 A 
ATOM     33  C   UNL     1      57.686  20.799  28.761  0.00  0.00    +0.007 A 
ATOM     34  C   UNL     1      57.099  21.687  27.798  0.00  0.00    -0.029 A 
ATOM     35  C   UNL     1      58.011  22.299  26.709  0.00  0.00    +0.045 C 
ENDROOT
BRANCH  10   9
ATOM      4  C   UNL     1      53.478  26.093  26.792  0.00  0.00    +0.077 A 
ATOM      5  C   UNL     1      53.572  26.573  28.141  0.00  0.00    +0.048 A 
ATOM      6  C   UNL     1      54.183  25.723  29.091  0.00  0.00    +0.116 A 
ATOM      7  N   UNL     1      54.661  24.488  28.708  0.00  0.00    -0.223 NA
ATOM      8  C   UNL     1      54.553  24.056  27.399  0.00  0.00    +0.220 A 
ATOM      9  N   UNL     1      55.033  22.821  26.991  0.00  0.00    -0.283 N 
ATOM     36  H   UNL     1      54.927  22.536  26.017  0.00  0.00    +0.155 HD
ATOM     37  N   UNL     1      53.972  24.848  26.474  0.00  0.00    -0.214 NA
BRANCH   4   3
ATOM      1  C   UNL     1      50.878  27.788  24.411  0.00  0.00    +0.020 A 
ATOM      2  C   UNL     1      51.422  27.020  25.507  0.00  0.00    +0.013 A 
ATOM      3  C   UNL     1      52.862  26.877  25.675  0.00  0.00    +0.019 A 
ATOM     38  C   UNL     1      53.733  27.529  24.708  0.00  0.00    +0.120 A 
ATOM     39  N   UNL     1      53.181  28.261  23.661  0.00  0.00    -0.263 NA
ATOM     40  C   UNL     1      51.796  28.404  23.489  0.00  0.00    +0.111 A 
ENDBRANCH   4   3
ENDBRANCH  10   9
BRANCH  12  13
ATOM     13  N   UNL     1      54.740  19.816  30.945  0.00  0.00    -0.281 N 
ATOM     14  C   UNL     1      54.493  20.286  32.224  0.00  0.00    +0.248 C 
ATOM     30  O   UNL     1      55.057  21.246  32.728  0.00  0.00    -0.270 OA
ATOM     31  H   UNL     1      54.350  18.900  30.720  0.00  0.00    +0.155 HD
BRANCH  14  15
ATOM     15  C   UNL     1      53.484  19.579  33.071  0.00  0.00    +0.037 A 
ATOM     16  C   UNL     1      53.709  19.367  34.503  0.00  0.00    +0.013 A 
ATOM     17  C   UNL     1      52.728  18.667  35.293  0.00  0.00    +0.005 A 
ATOM     18  C   UNL     1      51.510  18.176  34.652  0.00  0.00    -0.033 A 
ATOM     28  C   UNL     1      51.310  18.405  33.231  0.00  0.00    +0.005 A 
ATOM     29  C   UNL     1      52.271  19.089  32.453  0.00  0.00    +0.013 A 
BRANCH  18  19
ATOM     19  C   UNL     1      50.419  17.401  35.413  0.00  0.00    +0.119 C 
BRANCH  19  20
ATOM     20  N   UNL     1      49.165  18.139  35.752  0.00  0.00    -0.302 NA
ATOM     21  C   UNL     1      49.183  18.673  37.187  0.00  0.00    +0.066 C 
ATOM     22  C   UNL     1      47.874  19.462  37.517  0.00  0.00    -0.064 C 
ATOM     23  N   UNL     1      46.664  18.554  37.292  0.00  0.00    +0.379 N 
ATOM     24  C   UNL     1      45.436  19.275  37.656  0.00  0.00    -0.096 C 
ATOM     25  H   UNL     1      46.763  17.683  37.980  0.00  0.00    -0.082 HD
ATOM     26  C   UNL     1      46.640  18.017  35.868  0.00  0.00    -0.064 C 
ATOM     27  C   UNL     1      47.958  17.260  35.541  0.00  0.00    +0.066 C 
ENDBRANCH  19  20
ENDBRANCH  18  19
ENDBRANCH  14  15
ENDBRANCH  12  13
TORSDOF 6
ENDMDL
MODEL 2
REMARK VINA RESULT:      -7.2      1.617      2.390
REMARK  Name = C:\Users\Docking\Desktop\test protocol\1iep_ligandH.pdb
REMARK  8 active torsions:
REMARK  status: ('A' for Active; 'I' for Inactive)
REMARK    1  A    between atoms: _5  and  _11
REMARK    2  A    between atoms: _19  and  _21
REMARK    3  A    between atoms: _22  and  _66
REMARK    4  A    between atoms: _27  and  _30
REMARK    5  A    between atoms: _32  and  _33
REMARK    6  A    between atoms: _38  and  _43
REMARK    7  A    between atoms: _43  and  _46
REMARK    8  A    between atoms: _53  and  _55
REMARK                            x       y       z     vdW  Elec       q    Type
REMARK                         _______ _______ _______ _____ _____    ______ ____
ROOT
ATOM     10  C   UNL     1      55.746  22.181  27.608  0.00  0.00    +0.038 A 
ATOM     11  C   UNL     1      54.926  21.693  28.658  0.00  0.00    +0.047 A 
ATOM     12  C   UNL     1      55.426  20.714  29.610  0.00  0.00    +0.035 A 
ATOM     32  C   UNL     1      56.768  20.255  29.466  0.00  0.00    +0.024 A 
ATOM     33  C   UNL     1      57.614  20.739  28.404  0.00  0.00    +0.007 A 
ATOM     34  C   UNL     1      57.126  21.703  27.460  0.00  0.00    -0.029 A 
ATOM     35  C   UNL     1      58.076  22.183  26.338  0.00  0.00    +0.045 C 
ENDROOT
BRANCH  10   9
ATOM      4  C   UNL     1      52.967  25.967  26.619  0.00  0.00    +0.077 A 
ATOM      5  C   UNL     1      52.515  26.065  27.977  0.00  0.00    +0.048 A 
ATOM      6  C   UNL     1      53.016  25.118  28.897  0.00  0.00    +0.116 A 
ATOM      7  N   UNL     1      53.903  24.149  28.480  0.00  0.00    -0.223 NA
ATOM      8  C   UNL     1      54.317  24.081  27.162  0.00  0.00    +0.220 A 
ATOM      9  N   UNL     1      55.214  23.120  26.722  0.00  0.00    -0.283 N 
ATOM     36  H   UNL     1      55.489  23.099  25.740  0.00  0.00    +0.155 HD
ATOM     37  N   UNL     1      53.852  24.974  26.263  0.00  0.00    -0.214 NA
BRANCH   4   3
ATOM      1  C   UNL     1      50.762  28.108  24.198  0.00  0.00    +0.020 A 
ATOM      2  C   UNL     1      51.131  27.202  25.262  0.00  0.00    +0.013 A 
ATOM      3  C   UNL     1      52.530  26.898  25.530  0.00  0.00    +0.019 A 
ATOM     38  C   UNL     1      53.541  27.532  24.697  0.00  0.00    +0.120 A 
ATOM     39  N   UNL     1      53.157  28.399  23.679  0.00  0.00    -0.263 NA
ATOM     40  C   UNL     1      51.813  28.698  23.411  0.00  0.00    +0.111 A 
ENDBRANCH   4   3
ENDBRANCH  10   9
BRANCH  12  13
ATOM     13  N   UNL     1      54.637  20.176  30.691  0.00  0.00    -0.281 N 
ATOM     14  C   UNL     1      53.939  20.873  31.664  0.00  0.00    +0.248 C 
ATOM     30  O   UNL     1      54.061  22.070  31.879  0.00  0.00    -0.270 OA
ATOM     31  H   UNL     1      54.588  19.159  30.746  0.00  0.00    +0.155 HD
BRANCH  14  15
ATOM     15  C   UNL     1      52.975  20.130  32.532  0.00  0.00    +0.037 A 
ATOM     16  C   UNL     1      52.752  18.692  32.362  0.00  0.00    +0.013 A 
ATOM     17  C   UNL     1      51.805  18.003  33.202  0.00  0.00    +0.005 A 
ATOM     18  C   UNL     1      51.074  18.752  34.221  0.00  0.00    -0.033 A 
ATOM     28  C   UNL     1      51.318  20.177  34.372  0.00  0.00    +0.005 A 
ATOM     29  C   UNL     1      52.245  20.856  33.550  0.00  0.00    +0.013 A 
BRANCH  18  19
ATOM     19  C   UNL     1      50.029  18.103  35.148  0.00  0.00    +0.119 C 
BRANCH  19  20
ATOM     20  N   UNL     1      50.047  16.614  35.262  0.00  0.00    -0.302 NA
ATOM     21  C   UNL     1      48.674  16.049  35.638  0.00  0.00    +0.066 C 
ATOM     22  C   UNL     1      48.706  14.489  35.731  0.00  0.00    -0.064 C 
ATOM     23  N   UNL     1      49.764  14.064  36.751  0.00  0.00    +0.379 N 
ATOM     24  C   UNL     1      49.757  12.599  36.883  0.00  0.00    -0.096 C 
ATOM     25  H   UNL     1      49.475  14.494  37.737  0.00  0.00    -0.082 HD
ATOM     26  C   UNL     1      51.132  14.623  36.386  0.00  0.00    -0.064 C 
ATOM     27  C   UNL     1      51.082  16.172  36.267  0.00  0.00    +0.066 C 
ENDBRANCH  19  20
ENDBRANCH  18  19
ENDBRANCH  14  15
ENDBRANCH  12  13
TORSDOF 6
ENDMDL
MODEL 3
REMARK VINA RESULT:      -7.1     21.019     22.788
REMARK  Name = C:\Users\Docking\Desktop\test protocol\1iep_ligandH.pdb
REMARK  8 active torsions:
REMARK  status: ('A' for Active; 'I' for Inactive)
REMARK    1  A    between atoms: _5  and  _11
REMARK    2  A    between atoms: _19  and  _21
REMARK    3  A    between atoms: _22  and  _66
REMARK    4  A    between atoms: _27  and  _30
REMARK    5  A    between atoms: _32  and  _33
REMARK    6  A    between atoms: _38  and  _43
REMARK    7  A    between atoms: _43  and  _46
REMARK    8  A    between atoms: _53  and  _55
REMARK                            x       y       z     vdW  Elec       q    Type
REMARK                         _______ _______ _______ _____ _____    ______ ____
ROOT
ATOM     10  C   UNL     1      39.182   8.050  15.481  0.00  0.00    +0.038 A 
ATOM     11  C   UNL     1      38.945   8.122  16.877  0.00  0.00    +0.047 A 
ATOM     12  C   UNL     1      37.836   8.895  17.413  0.00  0.00    +0.035 A 
ATOM     32  C   UNL     1      36.986   9.582  16.498  0.00  0.00    +0.024 A 
ATOM     33  C   UNL     1      37.214   9.521  15.075  0.00  0.00    +0.007 A 
ATOM     34  C   UNL     1      38.307   8.762  14.541  0.00  0.00    -0.029 A 
ATOM     35  C   UNL     1      38.507   8.737  13.007  0.00  0.00    +0.045 C 
ENDROOT
BRANCH  10   9
ATOM      4  C   UNL     1      43.883   7.350  14.812  0.00  0.00    +0.077 A 
ATOM      5  C   UNL     1      44.216   8.613  15.406  0.00  0.00    +0.048 A 
ATOM      6  C   UNL     1      43.147   9.416  15.864  0.00  0.00    +0.116 A 
ATOM      7  N   UNL     1      41.847   8.979  15.733  0.00  0.00    -0.223 NA
ATOM      8  C   UNL     1      41.561   7.756  15.155  0.00  0.00    +0.220 A 
ATOM      9  N   UNL     1      40.261   7.292  15.021  0.00  0.00    -0.283 N 
ATOM     36  H   UNL     1      40.091   6.388  14.581  0.00  0.00    +0.155 HD
ATOM     37  N   UNL     1      42.564   6.971  14.708  0.00  0.00    -0.214 NA
BRANCH   4   3
ATOM      1  C   UNL     1      45.850   4.905  12.477  0.00  0.00    +0.020 A 
ATOM      2  C   UNL     1      44.841   5.830  12.939  0.00  0.00    +0.013 A 
ATOM      3  C   UNL     1      44.901   6.388  14.284  0.00  0.00    +0.019 A 
ATOM     38  C   UNL     1      46.005   5.987  15.143  0.00  0.00    +0.120 A 
ATOM     39  N   UNL     1      46.962   5.094  14.671  0.00  0.00    -0.263 NA
ATOM     40  C   UNL     1      46.913   4.549  13.380  0.00  0.00    +0.111 A 
ENDBRANCH   4   3
ENDBRANCH  10   9
BRANCH  12  13
ATOM     13  N   UNL     1      37.550   9.011  18.822  0.00  0.00    -0.281 N 
ATOM     14  C   UNL     1      38.036   9.953  19.714  0.00  0.00    +0.248 C 
ATOM     30  O   UNL     1      38.962  10.715  19.480  0.00  0.00    -0.270 OA
ATOM     31  H   UNL     1      36.913   8.315  19.208  0.00  0.00    +0.155 HD
BRANCH  14  15
ATOM     15  C   UNL     1      37.412  10.053  21.069  0.00  0.00    +0.037 A 
ATOM     16  C   UNL     1      38.220  10.329  22.259  0.00  0.00    +0.013 A 
ATOM     17  C   UNL     1      37.595  10.404  23.556  0.00  0.00    +0.005 A 
ATOM     18  C   UNL     1      36.152  10.203  23.669  0.00  0.00    -0.033 A 
ATOM     28  C   UNL     1      35.374   9.936  22.471  0.00  0.00    +0.005 A 
ATOM     29  C   UNL     1      35.983   9.861  21.198  0.00  0.00    +0.013 A 
BRANCH  18  19
ATOM     19  C   UNL     1      35.404  10.244  25.014  0.00  0.00    +0.119 C 
BRANCH  19  20
ATOM     20  N   UNL     1      36.131  10.823  26.183  0.00  0.00    -0.302 NA
ATOM     21  C   UNL     1      36.544   9.749  27.193  0.00  0.00    +0.066 C 
ATOM     22  C   UNL     1      37.323  10.370  28.398  0.00  0.00    -0.064 C 
ATOM     23  N   UNL     1      36.455  11.437  29.067  0.00  0.00    +0.379 N 
ATOM     24  C   UNL     1      37.162  11.982  30.236  0.00  0.00    -0.096 C 
ATOM     25  H   UNL     1      35.529  10.938  29.434  0.00  0.00    -0.082 HD
ATOM     26  C   UNL     1      36.038  12.508  28.069  0.00  0.00    -0.064 C 
ATOM     27  C   UNL     1      35.291  11.877  26.862  0.00  0.00    +0.066 C 
ENDBRANCH  19  20
ENDBRANCH  18  19
ENDBRANCH  14  15
ENDBRANCH  12  13
TORSDOF 6
ENDMDL
