MODEL 1
REMARK VINA RESULT:      -7.8      0.000      0.000
REMARK  Name = C:\Users\Docking\Desktop\test protocol\1iep_ligandH.pdb
REMARK  8 active torsions:
REMARK  status: ('A' for Active; 'I' for Inactive)
REMARK    1  A    between atoms: _5  and  _11
REMARK    2  A    between atoms: _19  and  _21
REMARK    3  A    between atoms: _22  and  _66
REMARK    4  A    between atoms: _27  and  _30
REMARK    5  A    between atoms: _32  and  _33
REMARK    6  A    between atoms: _38  and  _43
REMARK    7  A    between atoms: _43  and  _46
REMARK    8  A    between atoms: _53  and  _55
REMARK                            x       y       z     vdW  Elec       q    Type
REMARK                         _______ _______ _______ _____ _____    ______ ____
ROOT
ATOM     10  C   UNL     1      42.568   7.649  16.282  0.00  0.00    +0.038 A 
ATOM     11  C   UNL     1      43.346   7.891  17.443  0.00  0.00    +0.047 A 
ATOM     12  C   UNL     1      42.719   8.177  18.724  0.00  0.00    +0.035 A 
ATOM     32  C   UNL     1      41.295   8.205  18.787  0.00  0.00    +0.024 A 
ATOM     33  C   UNL     1      40.489   7.962  17.617  0.00  0.00    +0.007 A 
ATOM     34  C   UNL     1      41.102   7.682  16.351  0.00  0.00    -0.029 A 
ATOM     35  C   UNL     1      40.187   7.435  15.128  0.00  0.00    +0.045 C 
ENDROOT
BRANCH  10   9
ATOM      4  C   UNL     1      44.527   4.621  13.115  0.00  0.00    +0.077 A 
ATOM      5  C   UNL     1      44.246   3.482  13.941  0.00  0.00    +0.048 A 
ATOM      6  C   UNL     1      43.603   3.719  15.177  0.00  0.00    +0.116 A 
ATOM      7  N   UNL     1      43.269   5.003  15.548  0.00  0.00    -0.223 NA
ATOM      8  C   UNL     1      43.556   6.080  14.729  0.00  0.00    +0.220 A 
ATOM      9  N   UNL     1      43.223   7.379  15.078  0.00  0.00    -0.283 N 
ATOM     36  H   UNL     1      43.458   8.147  14.450  0.00  0.00    +0.155 HD
ATOM     37  N   UNL     1      44.171   5.880  13.544  0.00  0.00    -0.214 NA
BRANCH   4   3
ATOM      1  C   UNL     1      46.934   3.593  10.209  0.00  0.00    +0.020 A 
ATOM      2  C   UNL     1      46.321   3.641  11.516  0.00  0.00    +0.013 A 
ATOM      3  C   UNL     1      45.199   4.532  11.780  0.00  0.00    +0.019 A 
ATOM     38  C   UNL     1      44.716   5.367  10.691  0.00  0.00    +0.120 A 
ATOM     39  N   UNL     1      45.327   5.301   9.443  0.00  0.00    -0.263 NA
ATOM     40  C   UNL     1      46.409   4.449   9.178  0.00  0.00    +0.111 A 
ENDBRANCH   4   3
ENDBRANCH  10   9
BRANCH  12  13
ATOM     13  N   UNL     1      43.458   8.440  19.934  0.00  0.00    -0.281 N 
ATOM     14  C   UNL     1      43.657   7.591  21.011  0.00  0.00    +0.248 C 
ATOM     30  O   UNL     1      43.048   6.548  21.190  0.00  0.00    -0.270 OA
ATOM     31  H   UNL     1      43.886   9.363  20.005  0.00  0.00    +0.155 HD
BRANCH  14  15
ATOM     15  C   UNL     1      44.670   7.963  22.045  0.00  0.00    +0.037 A 
ATOM     16  C   UNL     1      45.369   6.940  22.827  0.00  0.00    +0.013 A 
ATOM     17  C   UNL     1      46.329   7.327  23.830  0.00  0.00    +0.005 A 
ATOM     18  C   UNL     1      46.597   8.745  24.056  0.00  0.00    -0.033 A 
ATOM     28  C   UNL     1      45.893   9.739  23.263  0.00  0.00    +0.005 A 
ATOM     29  C   UNL     1      44.951   9.364  22.279  0.00  0.00    +0.013 A 
BRANCH  18  19
ATOM     19  C   UNL     1      47.589   9.249  25.121  0.00  0.00    +0.119 C 
BRANCH  19  20
ATOM     20  N   UNL     1      47.221   9.040  26.553  0.00  0.00    -0.302 NA
ATOM     21  C   UNL     1      48.353   9.443  27.502  0.00  0.00    +0.066 C 
ATOM     22  C   UNL     1      47.942   9.239  28.997  0.00  0.00    -0.064 C 
ATOM     23  N   UNL     1      47.544   7.779  29.218  0.00  0.00    +0.379 N 
ATOM     24  C   UNL     1      47.213   7.571  30.635  0.00  0.00    -0.096 C 
ATOM     25  H   UNL     1      48.431   7.147  28.981  0.00  0.00    -0.082 HD
ATOM     26  C   UNL     1      46.421   7.369  28.277  0.00  0.00    -0.064 C 
ATOM     27  C   UNL     1      46.828   7.604  26.795  0.00  0.00    +0.066 C 
ENDBRANCH  19  20
ENDBRANCH  18  19
ENDBRANCH  14  15
ENDBRANCH  12  13
TORSDOF 6
ENDMDL
MODEL 2
REMARK VINA RESULT:      -7.6      2.611      5.721
REMARK  Name = C:\Users\Docking\Desktop\test protocol\1iep_ligandH.pdb
REMARK  8 active torsions:
REMARK  status: ('A' for Active; 'I' for Inactive)
REMARK    1  A    between atoms: _5  and  _11
REMARK    2  A    between atoms: _19  and  _21
REMARK    3  A    between atoms: _22  and  _66
REMARK    4  A    between atoms: _27  and  _30
REMARK    5  A    between atoms: _32  and  _33
REMARK    6  A    between atoms: _38  and  _43
REMARK    7  A    between atoms: _43  and  _46
REMARK    8  A    between atoms: _53  and  _55
REMARK                            x       y       z     vdW  Elec       q    Type
REMARK                         _______ _______ _______ _____ _____    ______ ____
ROOT
ATOM     10  C   UNL     1      43.788   4.849  11.556  0.00  0.00    +0.038 A 
ATOM     11  C   UNL     1      44.137   5.364  12.831  0.00  0.00    +0.047 A 
ATOM     12  C   UNL     1      43.609   4.773  14.051  0.00  0.00    +0.035 A 
ATOM     32  C   UNL     1      42.731   3.656  13.936  0.00  0.00    +0.024 A 
ATOM     33  C   UNL     1      42.366   3.120  12.648  0.00  0.00    +0.007 A 
ATOM     34  C   UNL     1      42.881   3.700  11.441  0.00  0.00    -0.029 A 
ATOM     35  C   UNL     1      42.451   3.089  10.087  0.00  0.00    +0.045 C 
ENDROOT
BRANCH  10   9
ATOM      4  C   UNL     1      47.091   5.169   8.088  0.00  0.00    +0.077 A 
ATOM      5  C   UNL     1      47.826   4.050   8.603  0.00  0.00    +0.048 A 
ATOM      6  C   UNL     1      47.325   3.425   9.766  0.00  0.00    +0.116 A 
ATOM      7  N   UNL     1      46.173   3.891  10.362  0.00  0.00    -0.223 NA
ATOM      8  C   UNL     1      45.489   4.974   9.840  0.00  0.00    +0.220 A 
ATOM      9  N   UNL     1      44.324   5.455  10.417  0.00  0.00    -0.283 N 
ATOM     36  H   UNL     1      43.853   6.261  10.006  0.00  0.00    +0.155 HD
ATOM     37  N   UNL     1      45.948   5.589   8.730  0.00  0.00    -0.214 NA
BRANCH   4   3
ATOM      1  C   UNL     1      48.149   8.054   5.668  0.00  0.00    +0.020 A 
ATOM      2  C   UNL     1      47.765   7.364   6.878  0.00  0.00    +0.013 A 
ATOM      3  C   UNL     1      47.491   5.933   6.864  0.00  0.00    +0.019 A 
ATOM     38  C   UNL     1      47.618   5.223   5.600  0.00  0.00    +0.120 A 
ATOM     39  N   UNL     1      47.988   5.914   4.450  0.00  0.00    -0.263 NA
ATOM     40  C   UNL     1      48.252   7.292   4.451  0.00  0.00    +0.111 A 
ENDBRANCH   4   3
ENDBRANCH  10   9
BRANCH  12  13
ATOM     13  N   UNL     1      43.921   5.258  15.373  0.00  0.00    -0.281 N 
ATOM     14  C   UNL     1      43.353   6.329  16.042  0.00  0.00    +0.248 C 
ATOM     30  O   UNL     1      42.636   7.169  15.520  0.00  0.00    -0.270 OA
ATOM     31  H   UNL     1      44.648   4.749  15.875  0.00  0.00    +0.155 HD
BRANCH  14  15
ATOM     15  C   UNL     1      43.634   6.500  17.500  0.00  0.00    +0.037 A 
ATOM     16  C   UNL     1      44.747   5.799  18.147  0.00  0.00    +0.013 A 
ATOM     17  C   UNL     1      44.985   5.969  19.558  0.00  0.00    +0.005 A 
ATOM     18  C   UNL     1      44.110   6.845  20.333  0.00  0.00    -0.033 A 
ATOM     28  C   UNL     1      43.017   7.533  19.665  0.00  0.00    +0.005 A 
ATOM     29  C   UNL     1      42.779   7.368  18.282  0.00  0.00    +0.013 A 
BRANCH  18  19
ATOM     19  C   UNL     1      44.278   7.069  21.847  0.00  0.00    +0.119 C 
BRANCH  19  20
ATOM     20  N   UNL     1      45.470   7.848  22.296  0.00  0.00    -0.302 NA
ATOM     21  C   UNL     1      45.835   7.552  23.753  0.00  0.00    +0.066 C 
ATOM     22  C   UNL     1      47.098   8.358  24.199  0.00  0.00    -0.064 C 
ATOM     23  N   UNL     1      46.843   9.853  23.997  0.00  0.00    +0.379 N 
ATOM     24  C   UNL     1      48.007  10.617  24.469  0.00  0.00    -0.096 C 
ATOM     25  H   UNL     1      45.972  10.135  24.633  0.00  0.00    -0.082 HD
ATOM     26  C   UNL     1      46.477  10.156  22.551  0.00  0.00    -0.064 C 
ATOM     27  C   UNL     1      45.238   9.327  22.110  0.00  0.00    +0.066 C 
ENDBRANCH  19  20
ENDBRANCH  18  19
ENDBRANCH  14  15
ENDBRANCH  12  13
TORSDOF 6
ENDMDL
MODEL 3
REMARK VINA RESULT:      -7.4      2.290     12.759
REMARK  Name = C:\Users\Docking\Desktop\test protocol\1iep_ligandH.pdb
REMARK  8 active torsions:
REMARK  status: ('A' for Active; 'I' for Inactive)
REMARK    1  A    between atoms: _5  and  _11
REMARK    2  A    between atoms: _19  and  _21
REMARK    3  A    between atoms: _22  and  _66
REMARK    4  A    between atoms: _27  and  _30
REMARK    5  A    between atoms: _32  and  _33
REMARK    6  A    between atoms: _38  and  _43
REMARK    7  A    between atoms: _43  and  _46
REMARK    8  A    between atoms: _53  and  _55
REMARK                            x       y       z     vdW  Elec       q    Type
REMARK                         _______ _______ _______ _____ _____    ______ ____
ROOT
ATOM     10  C   UNL     1      42.833   7.488  19.691  0.00  0.00    +0.038 A 
ATOM     11  C   UNL     1      43.402   6.985  18.494  0.00  0.00    +0.047 A 
ATOM     12  C   UNL     1      42.599   6.245  17.532  0.00  0.00    +0.035 A 
ATOM     32  C   UNL     1      41.219   6.038  17.822  0.00  0.00    +0.024 A 
ATOM     33  C   UNL     1      40.624   6.542  19.035  0.00  0.00    +0.007 A 
ATOM     34  C   UNL     1      41.412   7.271  19.988  0.00  0.00    -0.029 A 
ATOM     35  C   UNL     1      40.724   7.782  21.275  0.00  0.00    +0.045 C 
ENDROOT
BRANCH  10   9
ATOM      4  C   UNL     1      45.941   7.672  23.344  0.00  0.00    +0.077 A 
ATOM      5  C   UNL     1      45.914   6.248  23.517  0.00  0.00    +0.048 A 
ATOM      6  C   UNL     1      45.081   5.506  22.649  0.00  0.00    +0.116 A 
ATOM      7  N   UNL     1      44.337   6.149  21.685  0.00  0.00    -0.223 NA
ATOM      8  C   UNL     1      44.385   7.524  21.547  0.00  0.00    +0.220 A 
ATOM      9  N   UNL     1      43.650   8.192  20.579  0.00  0.00    -0.283 N 
ATOM     36  H   UNL     1      43.707   9.208  20.514  0.00  0.00    +0.155 HD
ATOM     37  N   UNL     1      45.171   8.256  22.364  0.00  0.00    -0.214 NA
BRANCH   4   3
ATOM      1  C   UNL     1      47.825   9.294  26.365  0.00  0.00    +0.020 A 
ATOM      2  C   UNL     1      47.013   8.374  25.602  0.00  0.00    +0.013 A 
ATOM      3  C   UNL     1      46.773   8.594  24.181  0.00  0.00    +0.019 A 
ATOM     38  C   UNL     1      47.376   9.762  23.557  0.00  0.00    +0.120 A 
ATOM     39  N   UNL     1      48.152  10.631  24.317  0.00  0.00    -0.263 NA
ATOM     40  C   UNL     1      48.388  10.432  25.685  0.00  0.00    +0.111 A 
ENDBRANCH   4   3
ENDBRANCH  10   9
BRANCH  12  13
ATOM     13  N   UNL     1      43.123   5.703  16.303  0.00  0.00    -0.281 N 
ATOM     14  C   UNL     1      43.758   6.381  15.276  0.00  0.00    +0.248 C 
ATOM     30  O   UNL     1      43.782   7.598  15.162  0.00  0.00    -0.270 OA
ATOM     31  H   UNL     1      43.013   4.697  16.175  0.00  0.00    +0.155 HD
BRANCH  14  15
ATOM     15  C   UNL     1      44.456   5.594  14.214  0.00  0.00    +0.037 A 
ATOM     16  C   UNL     1      45.885   5.288  14.310  0.00  0.00    +0.013 A 
ATOM     17  C   UNL     1      46.537   4.542  13.263  0.00  0.00    +0.005 A 
ATOM     18  C   UNL     1      45.758   4.095  12.111  0.00  0.00    -0.033 A 
ATOM     28  C   UNL     1      44.340   4.407  12.044  0.00  0.00    +0.005 A 
ATOM     29  C   UNL     1      43.698   5.139  13.067  0.00  0.00    +0.013 A 
BRANCH  18  19
ATOM     19  C   UNL     1      46.376   3.311  10.937  0.00  0.00    +0.119 C 
BRANCH  19  20
ATOM     20  N   UNL     1      47.142   4.093   9.921  0.00  0.00    -0.302 NA
ATOM     21  C   UNL     1      46.220   4.771   8.904  0.00  0.00    +0.066 C 
ATOM     22  C   UNL     1      47.036   5.603   7.862  0.00  0.00    -0.064 C 
ATOM     23  N   UNL     1      48.040   4.689   7.157  0.00  0.00    +0.379 N 
ATOM     24  C   UNL     1      48.769   5.455   6.136  0.00  0.00    -0.096 C 
ATOM     25  H   UNL     1      47.462   3.892   6.634  0.00  0.00    -0.082 HD
ATOM     26  C   UNL     1      48.959   4.008   8.162  0.00  0.00    -0.064 C 
ATOM     27  C   UNL     1      48.136   3.208   9.210  0.00  0.00    +0.066 C 
ENDBRANCH  19  20
ENDBRANCH  18  19
ENDBRANCH  14  15
ENDBRANCH  12  13
TORSDOF 6
ENDMDL
