MODEL 1
REMARK VINA RESULT:      -7.5      0.000      0.000
REMARK  Name = C:\Users\Docking\Desktop\test protocol\1iep_ligandH.pdb
REMARK  8 active torsions:
REMARK  status: ('A' for Active; 'I' for Inactive)
REMARK    1  A    between atoms: _5  and  _11
REMARK    2  A    between atoms: _19  and  _21
REMARK    3  A    between atoms: _22  and  _66
REMARK    4  A    between atoms: _27  and  _30
REMARK    5  A    between atoms: _32  and  _33
REMARK    6  A    between atoms: _38  and  _43
REMARK    7  A    between atoms: _43  and  _46
REMARK    8  A    between atoms: _53  and  _55
REMARK                            x       y       z     vdW  Elec       q    Type
REMARK                         _______ _______ _______ _____ _____    ______ ____
ROOT
ATOM     10  C   UNL     1      42.328   7.593  20.493  0.00  0.00    +0.038 A 
ATOM     11  C   UNL     1      42.916   7.141  19.284  0.00  0.00    +0.047 A 
ATOM     12  C   UNL     1      42.140   6.402  18.300  0.00  0.00    +0.035 A 
ATOM     32  C   UNL     1      40.766   6.143  18.579  0.00  0.00    +0.024 A 
ATOM     33  C   UNL     1      40.153   6.594  19.803  0.00  0.00    +0.007 A 
ATOM     34  C   UNL     1      40.914   7.322  20.779  0.00  0.00    -0.029 A 
ATOM     35  C   UNL     1      40.206   7.775  22.076  0.00  0.00    +0.045 C 
ENDROOT
BRANCH  10   9
ATOM      4  C   UNL     1      45.413   7.778  24.165  0.00  0.00    +0.077 A 
ATOM      5  C   UNL     1      45.428   6.350  24.301  0.00  0.00    +0.048 A 
ATOM      6  C   UNL     1      44.622   5.605  23.412  0.00  0.00    +0.116 A 
ATOM      7  N   UNL     1      43.863   6.250  22.460  0.00  0.00    -0.223 NA
ATOM      8  C   UNL     1      43.870   7.629  22.356  0.00  0.00    +0.220 A 
ATOM      9  N   UNL     1      43.120   8.298  21.402  0.00  0.00    -0.283 N 
ATOM     36  H   UNL     1      43.147   9.317  21.363  0.00  0.00    +0.155 HD
ATOM     37  N   UNL     1      44.630   8.363  23.195  0.00  0.00    -0.214 NA
BRANCH   4   3
ATOM      1  C   UNL     1      47.304   9.339  27.213  0.00  0.00    +0.020 A 
ATOM      2  C   UNL     1      46.527   8.412  26.422  0.00  0.00    +0.013 A 
ATOM      3  C   UNL     1      46.214   8.703  25.029  0.00  0.00    +0.019 A 
ATOM     38  C   UNL     1      46.706   9.948  24.461  0.00  0.00    +0.120 A 
ATOM     39  N   UNL     1      47.451  10.822  25.247  0.00  0.00    -0.263 NA
ATOM     40  C   UNL     1      47.758  10.554  26.589  0.00  0.00    +0.111 A 
ENDBRANCH   4   3
ENDBRANCH  10   9
BRANCH  12  13
ATOM     13  N   UNL     1      42.685   5.910  17.059  0.00  0.00    -0.281 N 
ATOM     14  C   UNL     1      43.742   6.428  16.328  0.00  0.00    +0.248 C 
ATOM     30  O   UNL     1      44.246   7.524  16.524  0.00  0.00    -0.270 OA
ATOM     31  H   UNL     1      42.236   5.080  16.671  0.00  0.00    +0.155 HD
BRANCH  14  15
ATOM     15  C   UNL     1      44.313   5.617  15.210  0.00  0.00    +0.037 A 
ATOM     16  C   UNL     1      43.446   4.969  14.223  0.00  0.00    +0.013 A 
ATOM     17  C   UNL     1      44.022   4.178  13.164  0.00  0.00    +0.005 A 
ATOM     18  C   UNL     1      45.474   4.033  13.086  0.00  0.00    -0.033 A 
ATOM     28  C   UNL     1      46.310   4.692  14.076  0.00  0.00    +0.005 A 
ATOM     29  C   UNL     1      45.749   5.467  15.116  0.00  0.00    +0.013 A 
BRANCH  18  19
ATOM     19  C   UNL     1      46.173   3.191  12.003  0.00  0.00    +0.119 C 
BRANCH  19  20
ATOM     20  N   UNL     1      46.619   3.901  10.767  0.00  0.00    -0.302 NA
ATOM     21  C   UNL     1      45.439   4.305   9.879  0.00  0.00    +0.066 C 
ATOM     22  C   UNL     1      45.921   5.066   8.602  0.00  0.00    -0.064 C 
ATOM     23  N   UNL     1      46.905   4.186   7.828  0.00  0.00    +0.379 N 
ATOM     24  C   UNL     1      47.316   4.876   6.597  0.00  0.00    -0.096 C 
ATOM     25  H   UNL     1      46.366   3.257   7.532  0.00  0.00    -0.082 HD
ATOM     26  C   UNL     1      48.081   3.779   8.705  0.00  0.00    -0.064 C 
ATOM     27  C   UNL     1      47.588   3.049   9.985  0.00  0.00    +0.066 C 
ENDBRANCH  19  20
ENDBRANCH  18  19
ENDBRANCH  14  15
ENDBRANCH  12  13
TORSDOF 6
ENDMDL
MODEL 2
REMARK VINA RESULT:      -7.5      1.945     13.086
REMARK  Name = C:\Users\Docking\Desktop\test protocol\1iep_ligandH.pdb
REMARK  8 active torsions:
REMARK  status: ('A' for Active; 'I' for Inactive)
REMARK    1  A    between atoms: _5  and  _11
REMARK    2  A    between atoms: _19  and  _21
REMARK    3  A    between atoms: _22  and  _66
REMARK    4  A    between atoms: _27  and  _30
REMARK    5  A    between atoms: _32  and  _33
REMARK    6  A    between atoms: _38  and  _43
REMARK    7  A    between atoms: _43  and  _46
REMARK    8  A    between atoms: _53  and  _55
REMARK                            x       y       z     vdW  Elec       q    Type
REMARK                         _______ _______ _______ _____ _____    ______ ____
ROOT
ATOM     10  C   UNL     1      43.071   4.806  11.795  0.00  0.00    +0.038 A 
ATOM     11  C   UNL     1      43.505   5.189  13.090  0.00  0.00    +0.047 A 
ATOM     12  C   UNL     1      42.940   4.581  14.284  0.00  0.00    +0.035 A 
ATOM     32  C   UNL     1      41.934   3.584  14.123  0.00  0.00    +0.024 A 
ATOM     33  C   UNL     1      41.480   3.183  12.814  0.00  0.00    +0.007 A 
ATOM     34  C   UNL     1      42.033   3.781  11.633  0.00  0.00    -0.029 A 
ATOM     35  C   UNL     1      41.503   3.317  10.256  0.00  0.00    +0.045 C 
ENDROOT
BRANCH  10   9
ATOM      4  C   UNL     1      46.483   5.139   8.436  0.00  0.00    +0.077 A 
ATOM      5  C   UNL     1      47.190   4.004   8.958  0.00  0.00    +0.048 A 
ATOM      6  C   UNL     1      46.646   3.368  10.095  0.00  0.00    +0.116 A 
ATOM      7  N   UNL     1      45.481   3.839  10.661  0.00  0.00    -0.223 NA
ATOM      8  C   UNL     1      44.825   4.937  10.135  0.00  0.00    +0.220 A 
ATOM      9  N   UNL     1      43.648   5.423  10.683  0.00  0.00    -0.283 N 
ATOM     36  H   UNL     1      43.199   6.240  10.270  0.00  0.00    +0.155 HD
ATOM     37  N   UNL     1      45.326   5.563   9.049  0.00  0.00    -0.214 NA
BRANCH   4   3
ATOM      1  C   UNL     1      47.437   8.073   6.032  0.00  0.00    +0.020 A 
ATOM      2  C   UNL     1      46.997   7.372   7.216  0.00  0.00    +0.013 A 
ATOM      3  C   UNL     1      46.931   5.916   7.237  0.00  0.00    +0.019 A 
ATOM     38  C   UNL     1      47.320   5.194   6.035  0.00  0.00    +0.120 A 
ATOM     39  N   UNL     1      47.738   5.897   4.909  0.00  0.00    -0.263 NA
ATOM     40  C   UNL     1      47.804   7.298   4.876  0.00  0.00    +0.111 A 
ENDBRANCH   4   3
ENDBRANCH  10   9
BRANCH  12  13
ATOM     13  N   UNL     1      43.335   4.936  15.624  0.00  0.00    -0.281 N 
ATOM     14  C   UNL     1      43.088   6.119  16.301  0.00  0.00    +0.248 C 
ATOM     30  O   UNL     1      42.671   7.141  15.776  0.00  0.00    -0.270 OA
ATOM     31  H   UNL     1      43.861   4.228  16.137  0.00  0.00    +0.155 HD
BRANCH  14  15
ATOM     15  C   UNL     1      43.357   6.181  17.769  0.00  0.00    +0.037 A 
ATOM     16  C   UNL     1      44.452   5.418  18.375  0.00  0.00    +0.013 A 
ATOM     17  C   UNL     1      44.679   5.483  19.797  0.00  0.00    +0.005 A 
ATOM     18  C   UNL     1      43.809   6.316  20.624  0.00  0.00    -0.033 A 
ATOM     28  C   UNL     1      42.734   7.067  19.996  0.00  0.00    +0.005 A 
ATOM     29  C   UNL     1      42.508   7.005  18.603  0.00  0.00    +0.013 A 
BRANCH  18  19
ATOM     19  C   UNL     1      43.964   6.428  22.152  0.00  0.00    +0.119 C 
BRANCH  19  20
ATOM     20  N   UNL     1      45.017   7.354  22.666  0.00  0.00    -0.302 NA
ATOM     21  C   UNL     1      45.308   7.125  24.152  0.00  0.00    +0.066 C 
ATOM     22  C   UNL     1      46.428   8.087  24.667  0.00  0.00    -0.064 C 
ATOM     23  N   UNL     1      46.007   9.536  24.415  0.00  0.00    +0.379 N 
ATOM     24  C   UNL     1      47.032  10.444  24.951  0.00  0.00    -0.096 C 
ATOM     25  H   UNL     1      45.064   9.717  24.981  0.00  0.00    -0.082 HD
ATOM     26  C   UNL     1      45.714   9.771  22.940  0.00  0.00    -0.064 C 
ATOM     27  C   UNL     1      44.621   8.791  22.431  0.00  0.00    +0.066 C 
ENDBRANCH  19  20
ENDBRANCH  18  19
ENDBRANCH  14  15
ENDBRANCH  12  13
TORSDOF 6
ENDMDL
MODEL 3
REMARK VINA RESULT:      -7.4      2.056      2.803
REMARK  Name = C:\Users\Docking\Desktop\test protocol\1iep_ligandH.pdb
REMARK  8 active torsions:
REMARK  status: ('A' for Active; 'I' for Inactive)
REMARK    1  A    between atoms: _5  and  _11
REMARK    2  A    between atoms: _19  and  _21
REMARK    3  A    between atoms: _22  and  _66
REMARK    4  A    between atoms: _27  and  _30
REMARK    5  A    between atoms: _32  and  _33
REMARK    6  A    between atoms: _38  and  _43
REMARK    7  A    between atoms: _43  and  _46
REMARK    8  A    between atoms: _53  and  _55
REMARK                            x       y       z     vdW  Elec       q    Type
REMARK                         _______ _______ _______ _____ _____    ______ ____
ROOT
ATOM     10  C   UNL     1      42.333   7.309  22.301  0.00  0.00    +0.038 A 
ATOM     11  C   UNL     1      43.005   6.846  21.141  0.00  0.00    +0.047 A 
ATOM     12  C   UNL     1      42.297   6.660  19.884  0.00  0.00    +0.035 A 
ATOM     32  C   UNL     1      40.903   6.958  19.844  0.00  0.00    +0.024 A 
ATOM     33  C   UNL     1      40.204   7.428  21.013  0.00  0.00    +0.007 A 
ATOM     34  C   UNL     1      40.897   7.611  22.256  0.00  0.00    -0.029 A 
ATOM     35  C   UNL     1      40.095   8.111  23.480  0.00  0.00    +0.045 C 
ENDROOT
BRANCH  10   9
ATOM      4  C   UNL     1      45.936   9.233  24.820  0.00  0.00    +0.077 A 
ATOM      5  C   UNL     1      46.423   9.959  23.682  0.00  0.00    +0.048 A 
ATOM      6  C   UNL     1      45.722   9.804  22.466  0.00  0.00    +0.116 A 
ATOM      7  N   UNL     1      44.617   8.982  22.403  0.00  0.00    -0.223 NA
ATOM      8  C   UNL     1      44.175   8.295  23.519  0.00  0.00    +0.220 A 
ATOM      9  N   UNL     1      43.062   7.469  23.481  0.00  0.00    -0.283 N 
ATOM     36  H   UNL     1      42.773   6.974  24.324  0.00  0.00    +0.155 HD
ATOM     37  N   UNL     1      44.829   8.425  24.692  0.00  0.00    -0.214 NA
BRANCH   4   3
ATOM      1  C   UNL     1      48.094  10.351  27.886  0.00  0.00    +0.020 A 
ATOM      2  C   UNL     1      47.513  10.336  26.563  0.00  0.00    +0.013 A 
ATOM      3  C   UNL     1      46.568   9.295  26.176  0.00  0.00    +0.019 A 
ATOM     38  C   UNL     1      46.229   8.278  27.159  0.00  0.00    +0.120 A 
ATOM     39  N   UNL     1      46.805   8.317  28.425  0.00  0.00    -0.263 NA
ATOM     40  C   UNL     1      47.717   9.312  28.808  0.00  0.00    +0.111 A 
ENDBRANCH   4   3
ENDBRANCH  10   9
BRANCH  12  13
ATOM     13  N   UNL     1      42.925   6.186  18.676  0.00  0.00    -0.281 N 
ATOM     14  C   UNL     1      43.476   6.937  17.651  0.00  0.00    +0.248 C 
ATOM     30  O   UNL     1      43.321   8.142  17.517  0.00  0.00    -0.270 OA
ATOM     31  H   UNL     1      42.968   5.173  18.562  0.00  0.00    +0.155 HD
BRANCH  14  15
ATOM     15  C   UNL     1      44.308   6.248  16.618  0.00  0.00    +0.037 A 
ATOM     16  C   UNL     1      44.275   6.666  15.214  0.00  0.00    +0.013 A 
ATOM     17  C   UNL     1      45.075   5.974  14.234  0.00  0.00    +0.005 A 
ATOM     18  C   UNL     1      45.915   4.856  14.657  0.00  0.00    -0.033 A 
ATOM     28  C   UNL     1      45.933   4.466  16.057  0.00  0.00    +0.005 A 
ATOM     29  C   UNL     1      45.150   5.142  17.019  0.00  0.00    +0.013 A 
BRANCH  18  19
ATOM     19  C   UNL     1      46.785   4.046  13.677  0.00  0.00    +0.119 C 
BRANCH  19  20
ATOM     20  N   UNL     1      46.079   3.123  12.739  0.00  0.00    -0.302 NA
ATOM     21  C   UNL     1      45.621   3.838  11.465  0.00  0.00    +0.066 C 
ATOM     22  C   UNL     1      44.904   2.853  10.485  0.00  0.00    -0.064 C 
ATOM     23  N   UNL     1      43.717   2.202  11.198  0.00  0.00    +0.379 N 
ATOM     24  C   UNL     1      43.007   1.319  10.262  0.00  0.00    -0.096 C 
ATOM     25  H   UNL     1      43.015   3.015  11.495  0.00  0.00    -0.082 HD
ATOM     26  C   UNL     1      44.164   1.491  12.467  0.00  0.00    -0.064 C 
ATOM     27  C   UNL     1      44.901   2.473  13.421  0.00  0.00    +0.066 C 
ENDBRANCH  19  20
ENDBRANCH  18  19
ENDBRANCH  14  15
ENDBRANCH  12  13
TORSDOF 6
ENDMDL
