MODEL 1
REMARK VINA RESULT:      -8.0      0.000      0.000
REMARK  Name = C:\Users\Docking\Desktop\test protocol\1iep_ligandH.pdb
REMARK  8 active torsions:
REMARK  status: ('A' for Active; 'I' for Inactive)
REMARK    1  A    between atoms: _5  and  _11
REMARK    2  A    between atoms: _19  and  _21
REMARK    3  A    between atoms: _22  and  _66
REMARK    4  A    between atoms: _27  and  _30
REMARK    5  A    between atoms: _32  and  _33
REMARK    6  A    between atoms: _38  and  _43
REMARK    7  A    between atoms: _43  and  _46
REMARK    8  A    between atoms: _53  and  _55
REMARK                            x       y       z     vdW  Elec       q    Type
REMARK                         _______ _______ _______ _____ _____    ______ ____
ROOT
ATOM     10  C   UNL     1      41.715   7.756  16.319  0.00  0.00    +0.038 A 
ATOM     11  C   UNL     1      42.471   7.946  17.503  0.00  0.00    +0.047 A 
ATOM     12  C   UNL     1      41.821   8.218  18.776  0.00  0.00    +0.035 A 
ATOM     32  C   UNL     1      40.397   8.286  18.806  0.00  0.00    +0.024 A 
ATOM     33  C   UNL     1      39.613   8.096  17.611  0.00  0.00    +0.007 A 
ATOM     34  C   UNL     1      40.250   7.830  16.352  0.00  0.00    -0.029 A 
ATOM     35  C   UNL     1      39.359   7.641  15.102  0.00  0.00    +0.045 C 
ENDROOT
BRANCH  10   9
ATOM      4  C   UNL     1      43.571   4.749  13.070  0.00  0.00    +0.077 A 
ATOM      5  C   UNL     1      43.184   3.596  13.829  0.00  0.00    +0.048 A 
ATOM      6  C   UNL     1      42.516   3.819  15.054  0.00  0.00    +0.116 A 
ATOM      7  N   UNL     1      42.259   5.105  15.477  0.00  0.00    -0.223 NA
ATOM      8  C   UNL     1      42.647   6.196  14.722  0.00  0.00    +0.220 A 
ATOM      9  N   UNL     1      42.392   7.498  15.124  0.00  0.00    -0.283 N 
ATOM     36  H   UNL     1      42.701   8.275  14.542  0.00  0.00    +0.155 HD
ATOM     37  N   UNL     1      43.288   6.009  13.549  0.00  0.00    -0.214 NA
BRANCH   4   3
ATOM      1  C   UNL     1      46.072   3.766  10.227  0.00  0.00    +0.020 A 
ATOM      2  C   UNL     1      45.421   3.798  11.516  0.00  0.00    +0.013 A 
ATOM      3  C   UNL     1      44.282   4.677  11.754  0.00  0.00    +0.019 A 
ATOM     38  C   UNL     1      43.823   5.515  10.657  0.00  0.00    +0.120 A 
ATOM     39  N   UNL     1      44.470   5.463   9.427  0.00  0.00    -0.263 NA
ATOM     40  C   UNL     1      45.568   4.623   9.187  0.00  0.00    +0.111 A 
ENDBRANCH   4   3
ENDBRANCH  10   9
BRANCH  12  13
ATOM     13  N   UNL     1      42.536   8.428  20.010  0.00  0.00    -0.281 N 
ATOM     14  C   UNL     1      43.000   7.472  20.899  0.00  0.00    +0.248 C 
ATOM     30  O   UNL     1      42.681   6.292  20.874  0.00  0.00    -0.270 OA
ATOM     31  H   UNL     1      42.724   9.399  20.258  0.00  0.00    +0.155 HD
BRANCH  14  15
ATOM     15  C   UNL     1      43.944   7.889  21.980  0.00  0.00    +0.037 A 
ATOM     16  C   UNL     1      44.565   6.903  22.868  0.00  0.00    +0.013 A 
ATOM     17  C   UNL     1      45.459   7.334  23.914  0.00  0.00    +0.005 A 
ATOM     18  C   UNL     1      45.736   8.759  24.077  0.00  0.00    -0.033 A 
ATOM     28  C   UNL     1      45.110   9.715  23.179  0.00  0.00    +0.005 A 
ATOM     29  C   UNL     1      44.233   9.296  22.153  0.00  0.00    +0.013 A 
BRANCH  18  19
ATOM     19  C   UNL     1      46.660   9.310  25.180  0.00  0.00    +0.119 C 
BRANCH  19  20
ATOM     20  N   UNL     1      46.295   9.002  26.595  0.00  0.00    -0.302 NA
ATOM     21  C   UNL     1      47.404   9.398  27.573  0.00  0.00    +0.066 C 
ATOM     22  C   UNL     1      46.997   9.090  29.051  0.00  0.00    -0.064 C 
ATOM     23  N   UNL     1      46.661   7.604  29.185  0.00  0.00    +0.379 N 
ATOM     24  C   UNL     1      46.334   7.299  30.585  0.00  0.00    -0.096 C 
ATOM     25  H   UNL     1      47.576   7.026  28.918  0.00  0.00    -0.082 HD
ATOM     26  C   UNL     1      45.561   7.201  28.213  0.00  0.00    -0.064 C 
ATOM     27  C   UNL     1      45.964   7.539  26.751  0.00  0.00    +0.066 C 
ENDBRANCH  19  20
ENDBRANCH  18  19
ENDBRANCH  14  15
ENDBRANCH  12  13
TORSDOF 6
ENDMDL
MODEL 2
REMARK VINA RESULT:      -8.0      2.342     12.713
REMARK  Name = C:\Users\Docking\Desktop\test protocol\1iep_ligandH.pdb
REMARK  8 active torsions:
REMARK  status: ('A' for Active; 'I' for Inactive)
REMARK    1  A    between atoms: _5  and  _11
REMARK    2  A    between atoms: _19  and  _21
REMARK    3  A    between atoms: _22  and  _66
REMARK    4  A    between atoms: _27  and  _30
REMARK    5  A    between atoms: _32  and  _33
REMARK    6  A    between atoms: _38  and  _43
REMARK    7  A    between atoms: _43  and  _46
REMARK    8  A    between atoms: _53  and  _55
REMARK                            x       y       z     vdW  Elec       q    Type
REMARK                         _______ _______ _______ _____ _____    ______ ____
ROOT
ATOM     10  C   UNL     1      42.345   7.647  21.101  0.00  0.00    +0.038 A 
ATOM     11  C   UNL     1      42.913   7.168  19.892  0.00  0.00    +0.047 A 
ATOM     12  C   UNL     1      42.121   6.406  18.939  0.00  0.00    +0.035 A 
ATOM     32  C   UNL     1      40.753   6.152  19.247  0.00  0.00    +0.024 A 
ATOM     33  C   UNL     1      40.160   6.630  20.471  0.00  0.00    +0.007 A 
ATOM     34  C   UNL     1      40.937   7.380  21.417  0.00  0.00    -0.029 A 
ATOM     35  C   UNL     1      40.250   7.862  22.716  0.00  0.00    +0.045 C 
ENDROOT
BRANCH  10   9
ATOM      4  C   UNL     1      45.609   7.915  24.609  0.00  0.00    +0.077 A 
ATOM      5  C   UNL     1      45.696   6.488  24.718  0.00  0.00    +0.048 A 
ATOM      6  C   UNL     1      44.879   5.720  23.858  0.00  0.00    +0.116 A 
ATOM      7  N   UNL     1      44.042   6.345  22.959  0.00  0.00    -0.223 NA
ATOM      8  C   UNL     1      43.980   7.724  22.881  0.00  0.00    +0.220 A 
ATOM      9  N   UNL     1      43.151   8.373  21.980  0.00  0.00    -0.283 N 
ATOM     36  H   UNL     1      43.129   9.392  21.959  0.00  0.00    +0.155 HD
ATOM     37  N   UNL     1      44.750   8.479  23.693  0.00  0.00    -0.214 NA
BRANCH   4   3
ATOM      1  C   UNL     1      47.401   9.618  27.641  0.00  0.00    +0.020 A 
ATOM      2  C   UNL     1      46.617   8.675  26.878  0.00  0.00    +0.013 A 
ATOM      3  C   UNL     1      46.412   8.862  25.447  0.00  0.00    +0.019 A 
ATOM     38  C   UNL     1      47.019  10.023  24.814  0.00  0.00    +0.120 A 
ATOM     39  N   UNL     1      47.767  10.916  25.574  0.00  0.00    -0.263 NA
ATOM     40  C   UNL     1      47.970  10.747  26.952  0.00  0.00    +0.111 A 
ENDBRANCH   4   3
ENDBRANCH  10   9
BRANCH  12  13
ATOM     13  N   UNL     1      42.645   5.888  17.700  0.00  0.00    -0.281 N 
ATOM     14  C   UNL     1      43.494   6.518  16.804  0.00  0.00    +0.248 C 
ATOM     30  O   UNL     1      43.762   7.710  16.828  0.00  0.00    -0.270 OA
ATOM     31  H   UNL     1      42.356   4.941  17.453  0.00  0.00    +0.155 HD
BRANCH  14  15
ATOM     15  C   UNL     1      44.124   5.710  15.716  0.00  0.00    +0.037 A 
ATOM     16  C   UNL     1      45.545   5.854  15.388  0.00  0.00    +0.013 A 
ATOM     17  C   UNL     1      46.124   5.075  14.323  0.00  0.00    +0.005 A 
ATOM     18  C   UNL     1      45.281   4.143  13.577  0.00  0.00    -0.033 A 
ATOM     28  C   UNL     1      43.876   4.016  13.927  0.00  0.00    +0.005 A 
ATOM     29  C   UNL     1      43.305   4.778  14.970  0.00  0.00    +0.013 A 
BRANCH  18  19
ATOM     19  C   UNL     1      45.809   3.287  12.411  0.00  0.00    +0.119 C 
BRANCH  19  20
ATOM     20  N   UNL     1      46.097   3.987  11.124  0.00  0.00    -0.302 NA
ATOM     21  C   UNL     1      44.818   4.303  10.344  0.00  0.00    +0.066 C 
ATOM     22  C   UNL     1      45.135   5.056   9.011  0.00  0.00    -0.064 C 
ATOM     23  N   UNL     1      46.090   4.211   8.166  0.00  0.00    +0.379 N 
ATOM     24  C   UNL     1      46.345   4.889   6.887  0.00  0.00    -0.096 C 
ATOM     25  H   UNL     1      45.578   3.246   7.942  0.00  0.00    -0.082 HD
ATOM     26  C   UNL     1      47.363   3.890   8.935  0.00  0.00    -0.064 C 
ATOM     27  C   UNL     1      47.035   3.168  10.272  0.00  0.00    +0.066 C 
ENDBRANCH  19  20
ENDBRANCH  18  19
ENDBRANCH  14  15
ENDBRANCH  12  13
TORSDOF 6
ENDMDL
MODEL 3
REMARK VINA RESULT:      -7.8     20.963     22.233
REMARK  Name = C:\Users\Docking\Desktop\test protocol\1iep_ligandH.pdb
REMARK  8 active torsions:
REMARK  status: ('A' for Active; 'I' for Inactive)
REMARK    1  A    between atoms: _5  and  _11
REMARK    2  A    between atoms: _19  and  _21
REMARK    3  A    between atoms: _22  and  _66
REMARK    4  A    between atoms: _27  and  _30
REMARK    5  A    between atoms: _32  and  _33
REMARK    6  A    between atoms: _38  and  _43
REMARK    7  A    between atoms: _43  and  _46
REMARK    8  A    between atoms: _53  and  _55
REMARK                            x       y       z     vdW  Elec       q    Type
REMARK                         _______ _______ _______ _____ _____    ______ ____
ROOT
ATOM     10  C   UNL     1      55.411  22.013  27.841  0.00  0.00    +0.038 A 
ATOM     11  C   UNL     1      54.712  21.379  28.900  0.00  0.00    +0.047 A 
ATOM     12  C   UNL     1      55.388  20.464  29.807  0.00  0.00    +0.035 A 
ATOM     32  C   UNL     1      56.778  20.220  29.608  0.00  0.00    +0.024 A 
ATOM     33  C   UNL     1      57.504  20.855  28.536  0.00  0.00    +0.007 A 
ATOM     34  C   UNL     1      56.841  21.756  27.637  0.00  0.00    -0.029 A 
ATOM     35  C   UNL     1      57.668  22.404  26.502  0.00  0.00    +0.045 C 
ENDROOT
BRANCH  10   9
ATOM      4  C   UNL     1      53.608  26.331  26.772  0.00  0.00    +0.077 A 
ATOM      5  C   UNL     1      54.074  26.896  28.005  0.00  0.00    +0.048 A 
ATOM      6  C   UNL     1      54.768  26.041  28.890  0.00  0.00    +0.116 A 
ATOM      7  N   UNL     1      54.974  24.720  28.556  0.00  0.00    -0.223 NA
ATOM      8  C   UNL     1      54.509  24.205  27.360  0.00  0.00    +0.220 A 
ATOM      9  N   UNL     1      54.712  22.882  27.000  0.00  0.00    -0.283 N 
ATOM     36  H   UNL     1      54.347  22.539  26.112  0.00  0.00    +0.155 HD
ATOM     37  N   UNL     1      53.843  25.002  26.498  0.00  0.00    -0.214 NA
BRANCH   4   3
ATOM      1  C   UNL     1      50.769  27.692  24.451  0.00  0.00    +0.020 A 
ATOM      2  C   UNL     1      51.442  26.915  25.466  0.00  0.00    +0.013 A 
ATOM      3  C   UNL     1      52.862  27.108  25.732  0.00  0.00    +0.019 A 
ATOM     38  C   UNL     1      53.577  28.103  24.948  0.00  0.00    +0.120 A 
ATOM     39  N   UNL     1      52.903  28.836  23.976  0.00  0.00    -0.263 NA
ATOM     40  C   UNL     1      51.537  28.658  23.710  0.00  0.00    +0.111 A 
ENDBRANCH   4   3
ENDBRANCH  10   9
BRANCH  12  13
ATOM     13  N   UNL     1      54.728  19.785  30.894  0.00  0.00    -0.281 N 
ATOM     14  C   UNL     1      54.657  20.173  32.222  0.00  0.00    +0.248 C 
ATOM     30  O   UNL     1      55.335  21.059  32.721  0.00  0.00    -0.270 OA
ATOM     31  H   UNL     1      54.256  18.913  30.656  0.00  0.00    +0.155 HD
BRANCH  14  15
ATOM     15  C   UNL     1      53.706  19.464  33.131  0.00  0.00    +0.037 A 
ATOM     16  C   UNL     1      54.182  18.502  34.129  0.00  0.00    +0.013 A 
ATOM     17  C   UNL     1      53.241  17.820  34.982  0.00  0.00    +0.005 A 
ATOM     18  C   UNL     1      51.814  18.099  34.842  0.00  0.00    -0.033 A 
ATOM     28  C   UNL     1      51.370  19.062  33.848  0.00  0.00    +0.005 A 
ATOM     29  C   UNL     1      52.289  19.732  33.009  0.00  0.00    +0.013 A 
BRANCH  18  19
ATOM     19  C   UNL     1      50.737  17.402  35.695  0.00  0.00    +0.119 C 
BRANCH  19  20
ATOM     20  N   UNL     1      49.557  18.218  36.108  0.00  0.00    -0.302 NA
ATOM     21  C   UNL     1      49.777  18.903  37.459  0.00  0.00    +0.066 C 
ATOM     22  C   UNL     1      48.542  19.772  37.865  0.00  0.00    -0.064 C 
ATOM     23  N   UNL     1      47.293  18.890  37.902  0.00  0.00    +0.379 N 
ATOM     24  C   UNL     1      46.140  19.691  38.339  0.00  0.00    -0.096 C 
ATOM     25  H   UNL     1      47.462  18.095  38.665  0.00  0.00    -0.082 HD
ATOM     26  C   UNL     1      47.068  18.203  36.562  0.00  0.00    -0.064 C 
ATOM     27  C   UNL     1      48.313  17.367  36.154  0.00  0.00    +0.066 C 
ENDBRANCH  19  20
ENDBRANCH  18  19
ENDBRANCH  14  15
ENDBRANCH  12  13
TORSDOF 6
ENDMDL
