MODEL 1
REMARK VINA RESULT:      -8.8      0.000      0.000
REMARK  Name = C:\Users\Docking\Desktop\test protocol\1iep_ligandH.pdb
REMARK  8 active torsions:
REMARK  status: ('A' for Active; 'I' for Inactive)
REMARK    1  A    between atoms: _5  and  _11
REMARK    2  A    between atoms: _19  and  _21
REMARK    3  A    between atoms: _22  and  _66
REMARK    4  A    between atoms: _27  and  _30
REMARK    5  A    between atoms: _32  and  _33
REMARK    6  A    between atoms: _38  and  _43
REMARK    7  A    between atoms: _43  and  _46
REMARK    8  A    between atoms: _53  and  _55
REMARK                            x       y       z     vdW  Elec       q    Type
REMARK                         _______ _______ _______ _____ _____    ______ ____
ROOT
ATOM     10  C   UNL     1      16.084  30.717  35.481  0.00  0.00    +0.038 A 
ATOM     11  C   UNL     1      16.838  31.498  34.569  0.00  0.00    +0.047 A 
ATOM     12  C   UNL     1      17.241  32.857  34.894  0.00  0.00    +0.035 A 
ATOM     32  C   UNL     1      16.860  33.389  36.160  0.00  0.00    +0.024 A 
ATOM     33  C   UNL     1      16.092  32.610  37.100  0.00  0.00    +0.007 A 
ATOM     34  C   UNL     1      15.690  31.270  36.783  0.00  0.00    -0.029 A 
ATOM     35  C   UNL     1      14.862  30.483  37.826  0.00  0.00    +0.045 C 
ENDROOT
BRANCH  10   9
ATOM      4  C   UNL     1      13.135  27.577  33.364  0.00  0.00    +0.077 A 
ATOM      5  C   UNL     1      12.220  28.611  32.973  0.00  0.00    +0.048 A 
ATOM      6  C   UNL     1      12.541  29.936  33.343  0.00  0.00    +0.116 A 
ATOM      7  N   UNL     1      13.694  30.197  34.051  0.00  0.00    -0.223 NA
ATOM      8  C   UNL     1      14.555  29.177  34.413  0.00  0.00    +0.220 A 
ATOM      9  N   UNL     1      15.724  29.418  35.117  0.00  0.00    -0.283 N 
ATOM     36  H   UNL     1      16.329  28.637  35.372  0.00  0.00    +0.155 HD
ATOM     37  N   UNL     1      14.270  27.903  34.072  0.00  0.00    -0.214 NA
BRANCH   4   3
ATOM      1  C   UNL     1      11.500  24.157  32.401  0.00  0.00    +0.020 A 
ATOM      2  C   UNL     1      11.637  25.563  32.702  0.00  0.00    +0.013 A 
ATOM      3  C   UNL     1      12.937  26.128  33.044  0.00  0.00    +0.019 A 
ATOM     38  C   UNL     1      14.086  25.236  33.071  0.00  0.00    +0.120 A 
ATOM     39  N   UNL     1      13.923  23.886  32.778  0.00  0.00    -0.263 NA
ATOM     40  C   UNL     1      12.677  23.331  32.450  0.00  0.00    +0.111 A 
ENDBRANCH   4   3
ENDBRANCH  10   9
BRANCH  12  13
ATOM     13  N   UNL     1      18.000  33.700  34.004  0.00  0.00    -0.281 N 
ATOM     14  C   UNL     1      19.372  33.891  33.976  0.00  0.00    +0.248 C 
ATOM     30  O   UNL     1      20.138  33.528  34.856  0.00  0.00    -0.270 OA
ATOM     31  H   UNL     1      17.461  34.219  33.311  0.00  0.00    +0.155 HD
BRANCH  14  15
ATOM     15  C   UNL     1      19.978  34.601  32.809  0.00  0.00    +0.037 A 
ATOM     16  C   UNL     1      19.415  34.469  31.463  0.00  0.00    +0.013 A 
ATOM     17  C   UNL     1      20.030  35.151  30.352  0.00  0.00    +0.005 A 
ATOM     18  C   UNL     1      21.214  35.974  30.583  0.00  0.00    -0.033 A 
ATOM     28  C   UNL     1      21.749  36.092  31.929  0.00  0.00    +0.005 A 
ATOM     29  C   UNL     1      21.150  35.424  33.021  0.00  0.00    +0.013 A 
BRANCH  18  19
ATOM     19  C   UNL     1      21.948  36.721  29.453  0.00  0.00    +0.119 C 
BRANCH  19  20
ATOM     20  N   UNL     1      23.028  35.982  28.734  0.00  0.00    -0.302 NA
ATOM     21  C   UNL     1      22.549  34.623  28.217  0.00  0.00    +0.066 C 
ATOM     22  C   UNL     1      23.686  33.873  27.448  0.00  0.00    -0.064 C 
ATOM     23  N   UNL     1      24.896  33.706  28.369  0.00  0.00    +0.379 N 
ATOM     24  C   UNL     1      25.945  32.951  27.668  0.00  0.00    -0.096 C 
ATOM     25  H   UNL     1      24.572  33.101  29.247  0.00  0.00    -0.082 HD
ATOM     26  C   UNL     1      25.377  35.053  28.890  0.00  0.00    -0.064 C 
ATOM     27  C   UNL     1      24.232  35.802  29.626  0.00  0.00    +0.066 C 
ENDBRANCH  19  20
ENDBRANCH  18  19
ENDBRANCH  14  15
ENDBRANCH  12  13
TORSDOF 6
ENDMDL
MODEL 2
REMARK VINA RESULT:      -8.6     20.437     26.458
REMARK  Name = C:\Users\Docking\Desktop\test protocol\1iep_ligandH.pdb
REMARK  8 active torsions:
REMARK  status: ('A' for Active; 'I' for Inactive)
REMARK    1  A    between atoms: _5  and  _11
REMARK    2  A    between atoms: _19  and  _21
REMARK    3  A    between atoms: _22  and  _66
REMARK    4  A    between atoms: _27  and  _30
REMARK    5  A    between atoms: _32  and  _33
REMARK    6  A    between atoms: _38  and  _43
REMARK    7  A    between atoms: _43  and  _46
REMARK    8  A    between atoms: _53  and  _55
REMARK                            x       y       z     vdW  Elec       q    Type
REMARK                         _______ _______ _______ _____ _____    ______ ____
ROOT
ATOM     10  C   UNL     1       1.854  24.844  18.639  0.00  0.00    +0.038 A 
ATOM     11  C   UNL     1       0.796  25.581  19.229  0.00  0.00    +0.047 A 
ATOM     12  C   UNL     1      -0.575  25.095  19.189  0.00  0.00    +0.035 A 
ATOM     32  C   UNL     1      -0.831  23.852  18.540  0.00  0.00    +0.024 A 
ATOM     33  C   UNL     1       0.232  23.090  17.934  0.00  0.00    +0.007 A 
ATOM     34  C   UNL     1       1.586  23.566  17.969  0.00  0.00    -0.029 A 
ATOM     35  C   UNL     1       2.685  22.711  17.297  0.00  0.00    +0.045 C 
ENDROOT
BRANCH  10   9
ATOM      4  C   UNL     1       5.371  27.687  17.030  0.00  0.00    +0.077 A 
ATOM      5  C   UNL     1       4.565  28.169  15.945  0.00  0.00    +0.048 A 
ATOM      6  C   UNL     1       3.254  27.654  15.832  0.00  0.00    +0.116 A 
ATOM      7  N   UNL     1       2.793  26.728  16.742  0.00  0.00    -0.223 NA
ATOM      8  C   UNL     1       3.596  26.283  17.776  0.00  0.00    +0.220 A 
ATOM      9  N   UNL     1       3.151  25.358  18.707  0.00  0.00    -0.283 N 
ATOM     36  H   UNL     1       3.777  25.050  19.451  0.00  0.00    +0.155 HD
ATOM     37  N   UNL     1       4.853  26.758  17.904  0.00  0.00    -0.214 NA
BRANCH   4   3
ATOM      1  C   UNL     1       8.472  29.816  18.102  0.00  0.00    +0.020 A 
ATOM      2  C   UNL     1       7.098  29.429  17.877  0.00  0.00    +0.013 A 
ATOM      3  C   UNL     1       6.775  28.138  17.284  0.00  0.00    +0.019 A 
ATOM     38  C   UNL     1       7.875  27.254  16.927  0.00  0.00    +0.120 A 
ATOM     39  N   UNL     1       9.188  27.654  17.154  0.00  0.00    -0.263 NA
ATOM     40  C   UNL     1       9.510  28.895  17.723  0.00  0.00    +0.111 A 
ENDBRANCH   4   3
ENDBRANCH  10   9
BRANCH  12  13
ATOM     13  N   UNL     1      -1.691  25.804  19.763  0.00  0.00    -0.281 N 
ATOM     14  C   UNL     1      -2.218  27.024  19.372  0.00  0.00    +0.248 C 
ATOM     30  O   UNL     1      -1.672  27.796  18.598  0.00  0.00    -0.270 OA
ATOM     31  H   UNL     1      -2.148  25.351  20.555  0.00  0.00    +0.155 HD
BRANCH  14  15
ATOM     15  C   UNL     1      -3.535  27.454  19.932  0.00  0.00    +0.037 A 
ATOM     16  C   UNL     1      -3.636  28.593  20.848  0.00  0.00    +0.013 A 
ATOM     17  C   UNL     1      -4.916  28.977  21.388  0.00  0.00    +0.005 A 
ATOM     18  C   UNL     1      -6.108  28.221  21.010  0.00  0.00    -0.033 A 
ATOM     28  C   UNL     1      -5.980  27.098  20.095  0.00  0.00    +0.005 A 
ATOM     29  C   UNL     1      -4.727  26.719  19.565  0.00  0.00    +0.013 A 
BRANCH  18  19
ATOM     19  C   UNL     1      -7.512  28.546  21.553  0.00  0.00    +0.119 C 
BRANCH  19  20
ATOM     20  N   UNL     1      -8.634  28.586  20.568  0.00  0.00    -0.302 NA
ATOM     21  C   UNL     1      -8.525  29.786  19.623  0.00  0.00    +0.066 C 
ATOM     22  C   UNL     1      -9.694  29.800  18.585  0.00  0.00    -0.064 C 
ATOM     23  N   UNL     1     -11.031  29.815  19.327  0.00  0.00    +0.379 N 
ATOM     24  C   UNL     1     -12.132  29.887  18.354  0.00  0.00    -0.096 C 
ATOM     25  H   UNL     1     -11.065  30.743  19.945  0.00  0.00    -0.082 HD
ATOM     26  C   UNL     1     -11.147  28.627  20.271  0.00  0.00    -0.064 C 
ATOM     27  C   UNL     1      -9.964  28.606  21.280  0.00  0.00    +0.066 C 
ENDBRANCH  19  20
ENDBRANCH  18  19
ENDBRANCH  14  15
ENDBRANCH  12  13
TORSDOF 6
ENDMDL
MODEL 3
REMARK VINA RESULT:      -8.6     26.723     33.275
REMARK  Name = C:\Users\Docking\Desktop\test protocol\1iep_ligandH.pdb
REMARK  8 active torsions:
REMARK  status: ('A' for Active; 'I' for Inactive)
REMARK    1  A    between atoms: _5  and  _11
REMARK    2  A    between atoms: _19  and  _21
REMARK    3  A    between atoms: _22  and  _66
REMARK    4  A    between atoms: _27  and  _30
REMARK    5  A    between atoms: _32  and  _33
REMARK    6  A    between atoms: _38  and  _43
REMARK    7  A    between atoms: _43  and  _46
REMARK    8  A    between atoms: _53  and  _55
REMARK                            x       y       z     vdW  Elec       q    Type
REMARK                         _______ _______ _______ _____ _____    ______ ____
ROOT
ATOM     10  C   UNL     1      -7.368  28.146  21.321  0.00  0.00    +0.038 A 
ATOM     11  C   UNL     1      -8.650  27.619  21.022  0.00  0.00    +0.047 A 
ATOM     12  C   UNL     1      -9.027  27.288  19.656  0.00  0.00    +0.035 A 
ATOM     32  C   UNL     1      -8.072  27.504  18.620  0.00  0.00    +0.024 A 
ATOM     33  C   UNL     1      -6.765  28.039  18.907  0.00  0.00    +0.007 A 
ATOM     34  C   UNL     1      -6.388  28.370  20.251  0.00  0.00    -0.029 A 
ATOM     35  C   UNL     1      -4.975  28.948  20.499  0.00  0.00    +0.045 C 
ENDROOT
BRANCH  10   9
ATOM      4  C   UNL     1      -8.632  29.336  25.796  0.00  0.00    +0.077 A 
ATOM      5  C   UNL     1     -10.023  29.390  25.452  0.00  0.00    +0.048 A 
ATOM      6  C   UNL     1     -10.371  29.112  24.111  0.00  0.00    +0.116 A 
ATOM      7  N   UNL     1      -9.392  28.803  23.191  0.00  0.00    -0.223 NA
ATOM      8  C   UNL     1      -8.059  28.762  23.556  0.00  0.00    +0.220 A 
ATOM      9  N   UNL     1      -7.059  28.447  22.650  0.00  0.00    -0.283 N 
ATOM     36  H   UNL     1      -6.086  28.434  22.956  0.00  0.00    +0.155 HD
ATOM     37  N   UNL     1      -7.701  29.025  24.830  0.00  0.00    -0.214 NA
BRANCH   4   3
ATOM      1  C   UNL     1      -8.351  30.463  29.531  0.00  0.00    +0.020 A 
ATOM      2  C   UNL     1      -8.906  30.229  28.218  0.00  0.00    +0.013 A 
ATOM      3  C   UNL     1      -8.107  29.602  27.173  0.00  0.00    +0.019 A 
ATOM     38  C   UNL     1      -6.739  29.219  27.492  0.00  0.00    +0.120 A 
ATOM     39  N   UNL     1      -6.231  29.459  28.765  0.00  0.00    -0.263 NA
ATOM     40  C   UNL     1      -6.990  30.063  29.778  0.00  0.00    +0.111 A 
ENDBRANCH   4   3
ENDBRANCH  10   9
BRANCH  12  13
ATOM     13  N   UNL     1     -10.317  26.758  19.291  0.00  0.00    -0.281 N 
ATOM     14  C   UNL     1     -11.208  27.254  18.353  0.00  0.00    +0.248 C 
ATOM     30  O   UNL     1     -11.122  28.358  17.835  0.00  0.00    -0.270 OA
ATOM     31  H   UNL     1     -10.609  25.913  19.783  0.00  0.00    +0.155 HD
BRANCH  14  15
ATOM     15  C   UNL     1     -12.369  26.409  17.941  0.00  0.00    +0.037 A 
ATOM     16  C   UNL     1     -13.704  26.986  17.764  0.00  0.00    +0.013 A 
ATOM     17  C   UNL     1     -14.811  26.145  17.383  0.00  0.00    +0.005 A 
ATOM     18  C   UNL     1     -14.586  24.716  17.175  0.00  0.00    -0.033 A 
ATOM     28  C   UNL     1     -13.251  24.171  17.352  0.00  0.00    +0.005 A 
ATOM     29  C   UNL     1     -12.164  24.992  17.727  0.00  0.00    +0.013 A 
BRANCH  18  19
ATOM     19  C   UNL     1     -15.713  23.740  16.788  0.00  0.00    +0.119 C 
BRANCH  19  20
ATOM     20  N   UNL     1     -16.618  23.272  17.880  0.00  0.00    -0.302 NA
ATOM     21  C   UNL     1     -15.889  22.375  18.884  0.00  0.00    +0.066 C 
ATOM     22  C   UNL     1     -16.845  21.913  20.032  0.00  0.00    -0.064 C 
ATOM     23  N   UNL     1     -18.048  21.185  19.429  0.00  0.00    +0.379 N 
ATOM     24  C   UNL     1     -18.919  20.699  20.509  0.00  0.00    -0.096 C 
ATOM     25  H   UNL     1     -17.663  20.296  18.877  0.00  0.00    -0.082 HD
ATOM     26  C   UNL     1     -18.776  22.070  18.427  0.00  0.00    -0.064 C 
ATOM     27  C   UNL     1     -17.811  22.548  17.307  0.00  0.00    +0.066 C 
ENDBRANCH  19  20
ENDBRANCH  18  19
ENDBRANCH  14  15
ENDBRANCH  12  13
TORSDOF 6
ENDMDL
