MODEL 1
REMARK VINA RESULT:      -9.4      0.000      0.000
REMARK  Name = C:\Users\Docking\Desktop\test protocol\1iep_ligandH.pdb
REMARK  8 active torsions:
REMARK  status: ('A' for Active; 'I' for Inactive)
REMARK    1  A    between atoms: _5  and  _11
REMARK    2  A    between atoms: _19  and  _21
REMARK    3  A    between atoms: _22  and  _66
REMARK    4  A    between atoms: _27  and  _30
REMARK    5  A    between atoms: _32  and  _33
REMARK    6  A    between atoms: _38  and  _43
REMARK    7  A    between atoms: _43  and  _46
REMARK    8  A    between atoms: _53  and  _55
REMARK                            x       y       z     vdW  Elec       q    Type
REMARK                         _______ _______ _______ _____ _____    ______ ____
ROOT
ATOM     10  C   UNL     1      27.605  66.814  72.706  0.00  0.00    +0.038 A 
ATOM     11  C   UNL     1      28.605  67.335  71.845  0.00  0.00    +0.047 A 
ATOM     12  C   UNL     1      29.990  66.906  71.955  0.00  0.00    +0.035 A 
ATOM     32  C   UNL     1      30.322  65.943  72.952  0.00  0.00    +0.024 A 
ATOM     33  C   UNL     1      29.319  65.404  73.836  0.00  0.00    +0.007 A 
ATOM     34  C   UNL     1      27.951  65.825  73.734  0.00  0.00    -0.029 A 
ATOM     35  C   UNL     1      26.919  65.218  74.712  0.00  0.00    +0.045 C 
ENDROOT
BRANCH  10   9
ATOM      4  C   UNL     1      23.940  69.667  73.918  0.00  0.00    +0.077 A 
ATOM      5  C   UNL     1      24.701  70.302  74.955  0.00  0.00    +0.048 A 
ATOM      6  C   UNL     1      26.029  69.860  75.149  0.00  0.00    +0.116 A 
ATOM      7  N   UNL     1      26.548  68.858  74.359  0.00  0.00    -0.223 NA
ATOM      8  C   UNL     1      25.786  68.265  73.368  0.00  0.00    +0.220 A 
ATOM      9  N   UNL     1      26.290  67.261  72.556  0.00  0.00    -0.283 N 
ATOM     36  H   UNL     1      25.694  66.844  71.841  0.00  0.00    +0.155 HD
ATOM     37  N   UNL     1      24.515  68.668  73.164  0.00  0.00    -0.214 NA
BRANCH   4   3
ATOM      1  C   UNL     1      20.138  70.531  74.234  0.00  0.00    +0.020 A 
ATOM      2  C   UNL     1      21.491  70.183  74.604  0.00  0.00    +0.013 A 
ATOM      3  C   UNL     1      22.524  70.025  73.589  0.00  0.00    +0.019 A 
ATOM     38  C   UNL     1      22.154  70.228  72.197  0.00  0.00    +0.120 A 
ATOM     39  N   UNL     1      20.843  70.560  71.869  0.00  0.00    -0.263 NA
ATOM     40  C   UNL     1      19.839  70.714  72.838  0.00  0.00    +0.111 A 
ENDBRANCH   4   3
ENDBRANCH  10   9
BRANCH  12  13
ATOM     13  N   UNL     1      31.050  67.406  71.114  0.00  0.00    -0.281 N 
ATOM     14  C   UNL     1      31.670  68.643  71.171  0.00  0.00    +0.248 C 
ATOM     30  O   UNL     1      31.260  69.593  71.821  0.00  0.00    -0.270 OA
ATOM     31  H   UNL     1      31.383  66.770  70.389  0.00  0.00    +0.155 HD
BRANCH  14  15
ATOM     15  C   UNL     1      32.920  68.861  70.381  0.00  0.00    +0.037 A 
ATOM     16  C   UNL     1      33.373  67.882  69.390  0.00  0.00    +0.013 A 
ATOM     17  C   UNL     1      34.591  68.109  68.653  0.00  0.00    +0.005 A 
ATOM     18  C   UNL     1      35.365  69.322  68.904  0.00  0.00    -0.033 A 
ATOM     28  C   UNL     1      34.889  70.280  69.889  0.00  0.00    +0.005 A 
ATOM     29  C   UNL     1      33.697  70.060  70.614  0.00  0.00    +0.013 A 
BRANCH  18  19
ATOM     19  C   UNL     1      36.687  69.636  68.180  0.00  0.00    +0.119 C 
BRANCH  19  20
ATOM     20  N   UNL     1      36.760  69.319  66.722  0.00  0.00    -0.302 NA
ATOM     21  C   UNL     1      37.148  67.860  66.470  0.00  0.00    +0.066 C 
ATOM     22  C   UNL     1      37.198  67.540  64.941  0.00  0.00    -0.064 C 
ATOM     23  N   UNL     1      38.184  68.488  64.256  0.00  0.00    +0.379 N 
ATOM     24  C   UNL     1      38.277  68.152  62.828  0.00  0.00    -0.096 C 
ATOM     25  H   UNL     1      39.188  68.317  64.710  0.00  0.00    -0.082 HD
ATOM     26  C   UNL     1      37.807  69.942  64.504  0.00  0.00    -0.064 C 
ATOM     27  C   UNL     1      37.732  70.242  66.027  0.00  0.00    +0.066 C 
ENDBRANCH  19  20
ENDBRANCH  18  19
ENDBRANCH  14  15
ENDBRANCH  12  13
TORSDOF 6
ENDMDL
MODEL 2
REMARK VINA RESULT:      -9.2      2.983     13.818
REMARK  Name = C:\Users\Docking\Desktop\test protocol\1iep_ligandH.pdb
REMARK  8 active torsions:
REMARK  status: ('A' for Active; 'I' for Inactive)
REMARK    1  A    between atoms: _5  and  _11
REMARK    2  A    between atoms: _19  and  _21
REMARK    3  A    between atoms: _22  and  _66
REMARK    4  A    between atoms: _27  and  _30
REMARK    5  A    between atoms: _32  and  _33
REMARK    6  A    between atoms: _38  and  _43
REMARK    7  A    between atoms: _43  and  _46
REMARK    8  A    between atoms: _53  and  _55
REMARK                            x       y       z     vdW  Elec       q    Type
REMARK                         _______ _______ _______ _____ _____    ______ ____
ROOT
ATOM     10  C   UNL     1      28.390  67.083  73.334  0.00  0.00    +0.038 A 
ATOM     11  C   UNL     1      27.182  67.797  73.129  0.00  0.00    +0.047 A 
ATOM     12  C   UNL     1      25.893  67.205  73.453  0.00  0.00    +0.035 A 
ATOM     32  C   UNL     1      25.872  65.884  73.987  0.00  0.00    +0.024 A 
ATOM     33  C   UNL     1      27.091  65.143  74.201  0.00  0.00    +0.007 A 
ATOM     34  C   UNL     1      28.365  65.721  73.881  0.00  0.00    -0.029 A 
ATOM     35  C   UNL     1      29.638  64.879  74.125  0.00  0.00    +0.045 C 
ENDROOT
BRANCH  10   9
ATOM      4  C   UNL     1      32.049  67.898  70.336  0.00  0.00    +0.077 A 
ATOM      5  C   UNL     1      31.520  66.998  69.352  0.00  0.00    +0.048 A 
ATOM      6  C   UNL     1      30.309  66.339  69.660  0.00  0.00    +0.116 A 
ATOM      7  N   UNL     1      29.680  66.572  70.864  0.00  0.00    -0.223 NA
ATOM      8  C   UNL     1      30.218  67.446  71.791  0.00  0.00    +0.220 A 
ATOM      9  N   UNL     1      29.599  67.701  73.005  0.00  0.00    -0.283 N 
ATOM     36  H   UNL     1      30.031  68.346  73.666  0.00  0.00    +0.155 HD
ATOM     37  N   UNL     1      31.375  68.086  71.522  0.00  0.00    -0.214 NA
BRANCH   4   3
ATOM      1  C   UNL     1      34.867  70.585  70.705  0.00  0.00    +0.020 A 
ATOM      2  C   UNL     1      33.626  69.876  70.916  0.00  0.00    +0.013 A 
ATOM      3  C   UNL     1      33.318  68.671  70.157  0.00  0.00    +0.019 A 
ATOM     38  C   UNL     1      34.296  68.206  69.185  0.00  0.00    +0.120 A 
ATOM     39  N   UNL     1      35.482  68.910  69.002  0.00  0.00    -0.263 NA
ATOM     40  C   UNL     1      35.788  70.072  69.726  0.00  0.00    +0.111 A 
ENDBRANCH   4   3
ENDBRANCH  10   9
BRANCH  12  13
ATOM     13  N   UNL     1      24.633  67.879  73.259  0.00  0.00    -0.281 N 
ATOM     14  C   UNL     1      23.744  67.735  72.206  0.00  0.00    +0.248 C 
ATOM     30  O   UNL     1      24.000  67.159  71.159  0.00  0.00    -0.270 OA
ATOM     31  H   UNL     1      24.364  68.542  73.985  0.00  0.00    +0.155 HD
BRANCH  14  15
ATOM     15  C   UNL     1      22.378  68.329  72.329  0.00  0.00    +0.037 A 
ATOM     16  C   UNL     1      22.173  69.779  72.289  0.00  0.00    +0.013 A 
ATOM     17  C   UNL     1      20.847  70.327  72.426  0.00  0.00    +0.005 A 
ATOM     18  C   UNL     1      19.714  69.422  72.604  0.00  0.00    -0.033 A 
ATOM     28  C   UNL     1      19.945  67.987  72.635  0.00  0.00    +0.005 A 
ATOM     29  C   UNL     1      21.243  67.447  72.502  0.00  0.00    +0.013 A 
BRANCH  18  19
ATOM     19  C   UNL     1      18.267  69.919  72.780  0.00  0.00    +0.119 C 
BRANCH  19  20
ATOM     20  N   UNL     1      17.626  69.700  74.112  0.00  0.00    -0.302 NA
ATOM     21  C   UNL     1      16.425  70.625  74.330  0.00  0.00    +0.066 C 
ATOM     22  C   UNL     1      15.753  70.367  75.718  0.00  0.00    -0.064 C 
ATOM     23  N   UNL     1      16.790  70.556  76.826  0.00  0.00    +0.379 N 
ATOM     24  C   UNL     1      16.148  70.371  78.136  0.00  0.00    -0.096 C 
ATOM     25  H   UNL     1      17.155  71.608  76.773  0.00  0.00    -0.082 HD
ATOM     26  C   UNL     1      17.989  69.642  76.615  0.00  0.00    -0.064 C 
ATOM     27  C   UNL     1      18.632  69.885  75.221  0.00  0.00    +0.066 C 
ENDBRANCH  19  20
ENDBRANCH  18  19
ENDBRANCH  14  15
ENDBRANCH  12  13
TORSDOF 6
ENDMDL
MODEL 3
REMARK VINA RESULT:      -8.8      5.412     13.899
REMARK  Name = C:\Users\Docking\Desktop\test protocol\1iep_ligandH.pdb
REMARK  8 active torsions:
REMARK  status: ('A' for Active; 'I' for Inactive)
REMARK    1  A    between atoms: _5  and  _11
REMARK    2  A    between atoms: _19  and  _21
REMARK    3  A    between atoms: _22  and  _66
REMARK    4  A    between atoms: _27  and  _30
REMARK    5  A    between atoms: _32  and  _33
REMARK    6  A    between atoms: _38  and  _43
REMARK    7  A    between atoms: _43  and  _46
REMARK    8  A    between atoms: _53  and  _55
REMARK                            x       y       z     vdW  Elec       q    Type
REMARK                         _______ _______ _______ _____ _____    ______ ____
ROOT
ATOM     10  C   UNL     1      27.518  65.025  72.768  0.00  0.00    +0.038 A 
ATOM     11  C   UNL     1      26.248  65.650  72.689  0.00  0.00    +0.047 A 
ATOM     12  C   UNL     1      25.873  66.712  73.610  0.00  0.00    +0.035 A 
ATOM     32  C   UNL     1      26.818  67.115  74.597  0.00  0.00    +0.024 A 
ATOM     33  C   UNL     1      28.114  66.489  74.693  0.00  0.00    +0.007 A 
ATOM     34  C   UNL     1      28.488  65.439  73.789  0.00  0.00    -0.029 A 
ATOM     35  C   UNL     1      29.888  64.800  73.942  0.00  0.00    +0.045 C 
ENDROOT
BRANCH  10   9
ATOM      4  C   UNL     1      29.438  63.467  68.654  0.00  0.00    +0.077 A 
ATOM      5  C   UNL     1      29.839  64.790  68.272  0.00  0.00    +0.048 A 
ATOM      6  C   UNL     1      29.526  65.845  69.158  0.00  0.00    +0.116 A 
ATOM      7  N   UNL     1      28.861  65.584  70.337  0.00  0.00    -0.223 NA
ATOM      8  C   UNL     1      28.487  64.296  70.675  0.00  0.00    +0.220 A 
ATOM      9  N   UNL     1      27.826  64.010  71.859  0.00  0.00    -0.283 N 
ATOM     36  H   UNL     1      27.560  63.048  72.068  0.00  0.00    +0.155 HD
ATOM     37  N   UNL     1      28.774  63.272  69.845  0.00  0.00    -0.214 NA
BRANCH   4   3
ATOM      1  C   UNL     1      28.943  60.302  66.409  0.00  0.00    +0.020 A 
ATOM      2  C   UNL     1      28.636  61.471  67.201  0.00  0.00    +0.013 A 
ATOM      3  C   UNL     1      29.700  62.248  67.825  0.00  0.00    +0.019 A 
ATOM     38  C   UNL     1      31.074  61.812  67.627  0.00  0.00    +0.120 A 
ATOM     39  N   UNL     1      31.339  60.682  66.860  0.00  0.00    -0.263 NA
ATOM     40  C   UNL     1      30.324  59.925  66.256  0.00  0.00    +0.111 A 
ENDBRANCH   4   3
ENDBRANCH  10   9
BRANCH  12  13
ATOM     13  N   UNL     1      24.594  67.378  73.582  0.00  0.00    -0.281 N 
ATOM     14  C   UNL     1      24.090  68.214  72.600  0.00  0.00    +0.248 C 
ATOM     30  O   UNL     1      24.753  68.689  71.690  0.00  0.00    -0.270 OA
ATOM     31  H   UNL     1      23.987  67.213  74.385  0.00  0.00    +0.155 HD
BRANCH  14  15
ATOM     15  C   UNL     1      22.644  68.588  72.642  0.00  0.00    +0.037 A 
ATOM     16  C   UNL     1      22.222  69.991  72.665  0.00  0.00    +0.013 A 
ATOM     17  C   UNL     1      20.821  70.325  72.724  0.00  0.00    +0.005 A 
ATOM     18  C   UNL     1      19.830  69.252  72.758  0.00  0.00    -0.033 A 
ATOM     28  C   UNL     1      20.276  67.868  72.729  0.00  0.00    +0.005 A 
ATOM     29  C   UNL     1      21.649  67.538  72.672  0.00  0.00    +0.013 A 
BRANCH  18  19
ATOM     19  C   UNL     1      18.315  69.514  72.841  0.00  0.00    +0.119 C 
BRANCH  19  20
ATOM     20  N   UNL     1      17.679  69.422  74.189  0.00  0.00    -0.302 NA
ATOM     21  C   UNL     1      16.432  70.305  74.298  0.00  0.00    +0.066 C 
ATOM     22  C   UNL     1      15.766  70.179  75.706  0.00  0.00    -0.064 C 
ATOM     23  N   UNL     1      16.786  70.549  76.785  0.00  0.00    +0.379 N 
ATOM     24  C   UNL     1      16.147  70.487  78.107  0.00  0.00    -0.096 C 
ATOM     25  H   UNL     1      17.098  71.604  76.608  0.00  0.00    -0.082 HD
ATOM     26  C   UNL     1      18.030  69.677  76.682  0.00  0.00    -0.064 C 
ATOM     27  C   UNL     1      18.668  69.787  75.269  0.00  0.00    +0.066 C 
ENDBRANCH  19  20
ENDBRANCH  18  19
ENDBRANCH  14  15
ENDBRANCH  12  13
TORSDOF 6
ENDMDL
