MODEL 1
REMARK VINA RESULT:      -8.8      0.000      0.000
REMARK  Name = C:\Users\Docking\Desktop\test protocol\1iep_ligandH.pdb
REMARK  8 active torsions:
REMARK  status: ('A' for Active; 'I' for Inactive)
REMARK    1  A    between atoms: _5  and  _11
REMARK    2  A    between atoms: _19  and  _21
REMARK    3  A    between atoms: _22  and  _66
REMARK    4  A    between atoms: _27  and  _30
REMARK    5  A    between atoms: _32  and  _33
REMARK    6  A    between atoms: _38  and  _43
REMARK    7  A    between atoms: _43  and  _46
REMARK    8  A    between atoms: _53  and  _55
REMARK                            x       y       z     vdW  Elec       q    Type
REMARK                         _______ _______ _______ _____ _____    ______ ____
ROOT
ATOM     10  C   UNL     1      16.150  30.833  36.553  0.00  0.00    +0.038 A 
ATOM     11  C   UNL     1      17.014  31.418  35.592  0.00  0.00    +0.047 A 
ATOM     12  C   UNL     1      17.548  32.758  35.778  0.00  0.00    +0.035 A 
ATOM     32  C   UNL     1      17.184  33.473  36.956  0.00  0.00    +0.024 A 
ATOM     33  C   UNL     1      16.307  32.894  37.942  0.00  0.00    +0.007 A 
ATOM     34  C   UNL     1      15.774  31.574  37.763  0.00  0.00    -0.029 A 
ATOM     35  C   UNL     1      14.833  31.005  38.850  0.00  0.00    +0.045 C 
ENDROOT
BRANCH  10   9
ATOM      4  C   UNL     1      12.817  27.792  34.916  0.00  0.00    +0.077 A 
ATOM      5  C   UNL     1      11.955  28.863  34.507  0.00  0.00    +0.048 A 
ATOM      6  C   UNL     1      12.403  30.182  34.743  0.00  0.00    +0.116 A 
ATOM      7  N   UNL     1      13.625  30.402  35.343  0.00  0.00    -0.223 NA
ATOM      8  C   UNL     1      14.431  29.346  35.726  0.00  0.00    +0.220 A 
ATOM      9  N   UNL     1      15.666  29.543  36.323  0.00  0.00    -0.283 N 
ATOM     36  H   UNL     1      16.228  28.738  36.598  0.00  0.00    +0.155 HD
ATOM     37  N   UNL     1      14.025  28.077  35.513  0.00  0.00    -0.214 NA
BRANCH   4   3
ATOM      1  C   UNL     1      11.664  24.395  33.356  0.00  0.00    +0.020 A 
ATOM      2  C   UNL     1      11.968  25.802  33.482  0.00  0.00    +0.013 A 
ATOM      3  C   UNL     1      12.485  26.344  34.732  0.00  0.00    +0.019 A 
ATOM     38  C   UNL     1      12.685  25.428  35.845  0.00  0.00    +0.120 A 
ATOM     39  N   UNL     1      12.381  24.078  35.695  0.00  0.00    -0.263 NA
ATOM     40  C   UNL     1      11.882  23.546  34.497  0.00  0.00    +0.111 A 
ENDBRANCH   4   3
ENDBRANCH  10   9
BRANCH  12  13
ATOM     13  N   UNL     1      18.423  33.407  34.833  0.00  0.00    -0.281 N 
ATOM     14  C   UNL     1      19.787  33.625  34.945  0.00  0.00    +0.248 C 
ATOM     30  O   UNL     1      20.427  33.484  35.977  0.00  0.00    -0.270 OA
ATOM     31  H   UNL     1      17.984  33.747  33.978  0.00  0.00    +0.155 HD
BRANCH  14  15
ATOM     15  C   UNL     1      20.547  34.080  33.742  0.00  0.00    +0.037 A 
ATOM     16  C   UNL     1      20.843  35.498  33.521  0.00  0.00    +0.013 A 
ATOM     17  C   UNL     1      21.563  35.911  32.342  0.00  0.00    +0.005 A 
ATOM     18  C   UNL     1      21.993  34.904  31.376  0.00  0.00    -0.033 A 
ATOM     28  C   UNL     1      21.691  33.504  31.623  0.00  0.00    +0.005 A 
ATOM     29  C   UNL     1      20.985  33.095  32.776  0.00  0.00    +0.013 A 
BRANCH  18  19
ATOM     19  C   UNL     1      22.748  35.256  30.081  0.00  0.00    +0.119 C 
BRANCH  19  20
ATOM     20  N   UNL     1      24.112  34.674  29.904  0.00  0.00    -0.302 NA
ATOM     21  C   UNL     1      25.215  35.694  30.199  0.00  0.00    +0.066 C 
ATOM     22  C   UNL     1      26.635  35.062  30.031  0.00  0.00    -0.064 C 
ATOM     23  N   UNL     1      26.778  34.504  28.614  0.00  0.00    +0.379 N 
ATOM     24  C   UNL     1      28.132  33.961  28.434  0.00  0.00    -0.096 C 
ATOM     25  H   UNL     1      26.657  35.354  27.902  0.00  0.00    -0.082 HD
ATOM     26  C   UNL     1      25.683  33.491  28.311  0.00  0.00    -0.064 C 
ATOM     27  C   UNL     1      24.276  34.121  28.510  0.00  0.00    +0.066 C 
ENDBRANCH  19  20
ENDBRANCH  18  19
ENDBRANCH  14  15
ENDBRANCH  12  13
TORSDOF 6
ENDMDL
MODEL 2
REMARK VINA RESULT:      -8.8     19.443     24.571
REMARK  Name = C:\Users\Docking\Desktop\test protocol\1iep_ligandH.pdb
REMARK  8 active torsions:
REMARK  status: ('A' for Active; 'I' for Inactive)
REMARK    1  A    between atoms: _5  and  _11
REMARK    2  A    between atoms: _19  and  _21
REMARK    3  A    between atoms: _22  and  _66
REMARK    4  A    between atoms: _27  and  _30
REMARK    5  A    between atoms: _32  and  _33
REMARK    6  A    between atoms: _38  and  _43
REMARK    7  A    between atoms: _43  and  _46
REMARK    8  A    between atoms: _53  and  _55
REMARK                            x       y       z     vdW  Elec       q    Type
REMARK                         _______ _______ _______ _____ _____    ______ ____
ROOT
ATOM     10  C   UNL     1      10.271  27.958  16.910  0.00  0.00    +0.038 A 
ATOM     11  C   UNL     1       8.898  28.312  16.883  0.00  0.00    +0.047 A 
ATOM     12  C   UNL     1       8.007  27.955  17.976  0.00  0.00    +0.035 A 
ATOM     32  C   UNL     1       8.548  27.239  19.083  0.00  0.00    +0.024 A 
ATOM     33  C   UNL     1       9.941  26.870  19.127  0.00  0.00    +0.007 A 
ATOM     34  C   UNL     1      10.825  27.218  18.050  0.00  0.00    -0.029 A 
ATOM     35  C   UNL     1      12.308  26.790  18.148  0.00  0.00    +0.045 C 
ENDROOT
BRANCH  10   9
ATOM      4  C   UNL     1      11.939  27.320  12.455  0.00  0.00    +0.077 A 
ATOM      5  C   UNL     1      11.149  26.137  12.265  0.00  0.00    +0.048 A 
ATOM      6  C   UNL     1      10.333  25.723  13.341  0.00  0.00    +0.116 A 
ATOM      7  N   UNL     1      10.315  26.445  14.515  0.00  0.00    -0.223 NA
ATOM      8  C   UNL     1      11.090  27.580  14.666  0.00  0.00    +0.220 A 
ATOM      9  N   UNL     1      11.081  28.326  15.834  0.00  0.00    -0.283 N 
ATOM     36  H   UNL     1      11.673  29.153  15.909  0.00  0.00    +0.155 HD
ATOM     37  N   UNL     1      11.879  27.996  13.653  0.00  0.00    -0.214 NA
BRANCH   4   3
ATOM      1  C   UNL     1      14.586  29.533  10.612  0.00  0.00    +0.020 A 
ATOM      2  C   UNL     1      13.725  29.025  11.655  0.00  0.00    +0.013 A 
ATOM      3  C   UNL     1      12.849  27.886  11.410  0.00  0.00    +0.019 A 
ATOM     38  C   UNL     1      12.869  27.279  10.088  0.00  0.00    +0.120 A 
ATOM     39  N   UNL     1      13.707  27.790   9.102  0.00  0.00    -0.263 NA
ATOM     40  C   UNL     1      14.553  28.887   9.326  0.00  0.00    +0.111 A 
ENDBRANCH   4   3
ENDBRANCH  10   9
BRANCH  12  13
ATOM     13  N   UNL     1       6.602  28.281  18.000  0.00  0.00    -0.281 N 
ATOM     14  C   UNL     1       5.557  27.587  17.412  0.00  0.00    +0.248 C 
ATOM     30  O   UNL     1       5.696  26.691  16.592  0.00  0.00    -0.270 OA
ATOM     31  H   UNL     1       6.347  29.125  18.512  0.00  0.00    +0.155 HD
BRANCH  14  15
ATOM     15  C   UNL     1       4.154  27.949  17.777  0.00  0.00    +0.037 A 
ATOM     16  C   UNL     1       3.778  28.228  19.166  0.00  0.00    +0.013 A 
ATOM     17  C   UNL     1       2.414  28.559  19.493  0.00  0.00    +0.005 A 
ATOM     18  C   UNL     1       1.415  28.614  18.428  0.00  0.00    -0.033 A 
ATOM     28  C   UNL     1       1.816  28.338  17.059  0.00  0.00    +0.005 A 
ATOM     29  C   UNL     1       3.152  28.012  16.734  0.00  0.00    +0.013 A 
BRANCH  18  19
ATOM     19  C   UNL     1      -0.068  28.938  18.689  0.00  0.00    +0.119 C 
BRANCH  19  20
ATOM     20  N   UNL     1      -0.759  28.164  19.763  0.00  0.00    -0.302 NA
ATOM     21  C   UNL     1      -0.853  26.673  19.426  0.00  0.00    +0.066 C 
ATOM     22  C   UNL     1      -1.558  25.875  20.571  0.00  0.00    -0.064 C 
ATOM     23  N   UNL     1      -2.948  26.463  20.818  0.00  0.00    +0.379 N 
ATOM     24  C   UNL     1      -3.636  25.679  21.854  0.00  0.00    -0.096 C 
ATOM     25  H   UNL     1      -3.531  26.362  19.873  0.00  0.00    -0.082 HD
ATOM     26  C   UNL     1      -2.864  27.946  21.151  0.00  0.00    -0.064 C 
ATOM     27  C   UNL     1      -2.135  28.726  20.020  0.00  0.00    +0.066 C 
ENDBRANCH  19  20
ENDBRANCH  18  19
ENDBRANCH  14  15
ENDBRANCH  12  13
TORSDOF 6
ENDMDL
MODEL 3
REMARK VINA RESULT:      -8.7     20.895     22.674
REMARK  Name = C:\Users\Docking\Desktop\test protocol\1iep_ligandH.pdb
REMARK  8 active torsions:
REMARK  status: ('A' for Active; 'I' for Inactive)
REMARK    1  A    between atoms: _5  and  _11
REMARK    2  A    between atoms: _19  and  _21
REMARK    3  A    between atoms: _22  and  _66
REMARK    4  A    between atoms: _27  and  _30
REMARK    5  A    between atoms: _32  and  _33
REMARK    6  A    between atoms: _38  and  _43
REMARK    7  A    between atoms: _43  and  _46
REMARK    8  A    between atoms: _53  and  _55
REMARK                            x       y       z     vdW  Elec       q    Type
REMARK                         _______ _______ _______ _____ _____    ______ ____
ROOT
ATOM     10  C   UNL     1       5.058  26.041  15.367  0.00  0.00    +0.038 A 
ATOM     11  C   UNL     1       6.026  26.834  14.699  0.00  0.00    +0.047 A 
ATOM     12  C   UNL     1       7.345  26.306  14.386  0.00  0.00    +0.035 A 
ATOM     32  C   UNL     1       7.643  24.965  14.767  0.00  0.00    +0.024 A 
ATOM     33  C   UNL     1       6.672  24.146  15.448  0.00  0.00    +0.007 A 
ATOM     34  C   UNL     1       5.370  24.662  15.761  0.00  0.00    -0.029 A 
ATOM     35  C   UNL     1       4.370  23.741  16.499  0.00  0.00    +0.045 C 
ENDROOT
BRANCH  10   9
ATOM      4  C   UNL     1       2.045  28.498  18.182  0.00  0.00    +0.077 A 
ATOM      5  C   UNL     1       3.039  28.662  19.204  0.00  0.00    +0.048 A 
ATOM      6  C   UNL     1       4.311  28.093  18.969  0.00  0.00    +0.116 A 
ATOM      7  N   UNL     1       4.559  27.413  17.796  0.00  0.00    -0.223 NA
ATOM      8  C   UNL     1       3.577  27.272  16.832  0.00  0.00    +0.220 A 
ATOM      9  N   UNL     1       3.807  26.599  15.642  0.00  0.00    -0.283 N 
ATOM     36  H   UNL     1       3.055  26.510  14.960  0.00  0.00    +0.155 HD
ATOM     37  N   UNL     1       2.354  27.805  17.034  0.00  0.00    -0.214 NA
BRANCH   4   3
ATOM      1  C   UNL     1      -1.163  30.666  17.624  0.00  0.00    +0.020 A 
ATOM      2  C   UNL     1       0.190  30.177  17.490  0.00  0.00    +0.013 A 
ATOM      3  C   UNL     1       0.655  29.045  18.282  0.00  0.00    +0.019 A 
ATOM     38  C   UNL     1      -0.281  28.426  19.208  0.00  0.00    +0.120 A 
ATOM     39  N   UNL     1      -1.578  28.919  19.317  0.00  0.00    -0.263 NA
ATOM     40  C   UNL     1      -2.036  30.009  18.561  0.00  0.00    +0.111 A 
ENDBRANCH   4   3
ENDBRANCH  10   9
BRANCH  12  13
ATOM     13  N   UNL     1       8.371  27.066  13.717  0.00  0.00    -0.281 N 
ATOM     14  C   UNL     1       9.492  27.658  14.274  0.00  0.00    +0.248 C 
ATOM     30  O   UNL     1       9.672  27.806  15.474  0.00  0.00    -0.270 OA
ATOM     31  H   UNL     1       8.257  27.181  12.710  0.00  0.00    +0.155 HD
BRANCH  14  15
ATOM     15  C   UNL     1      10.563  28.174  13.367  0.00  0.00    +0.037 A 
ATOM     16  C   UNL     1      11.485  29.226  13.801  0.00  0.00    +0.013 A 
ATOM     17  C   UNL     1      12.498  29.718  12.900  0.00  0.00    +0.005 A 
ATOM     18  C   UNL     1      12.593  29.155  11.555  0.00  0.00    -0.033 A 
ATOM     28  C   UNL     1      11.668  28.109  11.152  0.00  0.00    +0.005 A 
ATOM     29  C   UNL     1      10.674  27.626  12.032  0.00  0.00    +0.013 A 
BRANCH  18  19
ATOM     19  C   UNL     1      13.629  29.634  10.521  0.00  0.00    +0.119 C 
BRANCH  19  20
ATOM     20  N   UNL     1      14.843  28.787  10.326  0.00  0.00    -0.302 NA
ATOM     21  C   UNL     1      16.102  29.449  10.893  0.00  0.00    +0.066 C 
ATOM     22  C   UNL     1      17.359  28.540  10.701  0.00  0.00    -0.064 C 
ATOM     23  N   UNL     1      17.535  28.224   9.215  0.00  0.00    +0.379 N 
ATOM     24  C   UNL     1      18.749  27.417   9.025  0.00  0.00    -0.096 C 
ATOM     25  H   UNL     1      17.684  29.190   8.680  0.00  0.00    -0.082 HD
ATOM     26  C   UNL     1      16.287  27.567   8.643  0.00  0.00    -0.064 C 
ATOM     27  C   UNL     1      15.039  28.466   8.865  0.00  0.00    +0.066 C 
ENDBRANCH  19  20
ENDBRANCH  18  19
ENDBRANCH  14  15
ENDBRANCH  12  13
TORSDOF 6
ENDMDL
