MODEL 1
REMARK VINA RESULT:      -7.7      0.000      0.000
REMARK  Name = C:\Users\Docking\Desktop\test protocol\1iep_ligandH.pdb
REMARK  8 active torsions:
REMARK  status: ('A' for Active; 'I' for Inactive)
REMARK    1  A    between atoms: _5  and  _11
REMARK    2  A    between atoms: _19  and  _21
REMARK    3  A    between atoms: _22  and  _66
REMARK    4  A    between atoms: _27  and  _30
REMARK    5  A    between atoms: _32  and  _33
REMARK    6  A    between atoms: _38  and  _43
REMARK    7  A    between atoms: _43  and  _46
REMARK    8  A    between atoms: _53  and  _55
REMARK                            x       y       z     vdW  Elec       q    Type
REMARK                         _______ _______ _______ _____ _____    ______ ____
ROOT
ATOM     10  C   UNL     1      60.516 -21.557  42.124  0.00  0.00    +0.038 A 
ATOM     11  C   UNL     1      60.104 -20.845  43.279  0.00  0.00    +0.047 A 
ATOM     12  C   UNL     1      61.051 -20.064  44.060  0.00  0.00    +0.035 A 
ATOM     32  C   UNL     1      62.411 -20.028  43.634  0.00  0.00    +0.024 A 
ATOM     33  C   UNL     1      62.847 -20.747  42.463  0.00  0.00    +0.007 A 
ATOM     34  C   UNL     1      61.918 -21.521  41.690  0.00  0.00    -0.029 A 
ATOM     35  C   UNL     1      62.444 -22.277  40.447  0.00  0.00    +0.045 C 
ENDROOT
BRANCH  10   9
ATOM      4  C   UNL     1      58.082 -25.598  41.239  0.00  0.00    +0.077 A 
ATOM      5  C   UNL     1      58.784 -26.315  42.263  0.00  0.00    +0.048 A 
ATOM      6  C   UNL     1      59.769 -25.610  42.991  0.00  0.00    +0.116 A 
ATOM      7  N   UNL     1      60.024 -24.286  42.706  0.00  0.00    -0.223 NA
ATOM      8  C   UNL     1      59.330 -23.624  41.710  0.00  0.00    +0.220 A 
ATOM      9  N   UNL     1      59.565 -22.291  41.412  0.00  0.00    -0.283 N 
ATOM     36  H   UNL     1      59.037 -21.841  40.665  0.00  0.00    +0.155 HD
ATOM     37  N   UNL     1      58.386 -24.276  41.000  0.00  0.00    -0.214 NA
BRANCH   4   3
ATOM      1  C   UNL     1      55.769 -28.178  39.424  0.00  0.00    +0.020 A 
ATOM      2  C   UNL     1      56.819 -27.644  40.260  0.00  0.00    +0.013 A 
ATOM      3  C   UNL     1      57.011 -26.204  40.386  0.00  0.00    +0.019 A 
ATOM     38  C   UNL     1      56.116 -25.326  39.648  0.00  0.00    +0.120 A 
ATOM     39  N   UNL     1      55.115 -25.869  38.849  0.00  0.00    -0.263 NA
ATOM     40  C   UNL     1      54.922 -27.253  38.718  0.00  0.00    +0.111 A 
ENDBRANCH   4   3
ENDBRANCH  10   9
BRANCH  12  13
ATOM     13  N   UNL     1      60.692 -19.327  45.246  0.00  0.00    -0.281 N 
ATOM     14  C   UNL     1      60.961 -18.000  45.538  0.00  0.00    +0.248 C 
ATOM     30  O   UNL     1      61.742 -17.299  44.912  0.00  0.00    -0.270 OA
ATOM     31  H   UNL     1      60.177 -19.847  45.957  0.00  0.00    +0.155 HD
BRANCH  14  15
ATOM     15  C   UNL     1      60.274 -17.363  46.703  0.00  0.00    +0.037 A 
ATOM     16  C   UNL     1      59.373 -18.131  47.566  0.00  0.00    +0.013 A 
ATOM     17  C   UNL     1      58.710 -17.488  48.673  0.00  0.00    +0.005 A 
ATOM     18  C   UNL     1      58.947 -16.069  48.924  0.00  0.00    -0.033 A 
ATOM     28  C   UNL     1      59.851 -15.332  48.055  0.00  0.00    +0.005 A 
ATOM     29  C   UNL     1      60.501 -15.959  46.969  0.00  0.00    +0.013 A 
BRANCH  18  19
ATOM     19  C   UNL     1      58.266 -15.297  50.069  0.00  0.00    +0.119 C 
BRANCH  19  20
ATOM     20  N   UNL     1      58.236 -13.807  49.967  0.00  0.00    -0.302 NA
ATOM     21  C   UNL     1      59.221 -13.144  50.934  0.00  0.00    +0.066 C 
ATOM     22  C   UNL     1      59.193 -11.587  50.797  0.00  0.00    -0.064 C 
ATOM     23  N   UNL     1      57.770 -11.082  51.042  0.00  0.00    +0.379 N 
ATOM     24  C   UNL     1      57.751  -9.614  50.972  0.00  0.00    -0.096 C 
ATOM     25  H   UNL     1      57.481 -11.375  52.079  0.00  0.00    -0.082 HD
ATOM     26  C   UNL     1      56.784 -11.738  50.086  0.00  0.00    -0.064 C 
ATOM     27  C   UNL     1      56.841 -13.287  50.209  0.00  0.00    +0.066 C 
ENDBRANCH  19  20
ENDBRANCH  18  19
ENDBRANCH  14  15
ENDBRANCH  12  13
TORSDOF 6
ENDMDL
MODEL 2
REMARK VINA RESULT:      -7.4     11.490     18.532
REMARK  Name = C:\Users\Docking\Desktop\test protocol\1iep_ligandH.pdb
REMARK  8 active torsions:
REMARK  status: ('A' for Active; 'I' for Inactive)
REMARK    1  A    between atoms: _5  and  _11
REMARK    2  A    between atoms: _19  and  _21
REMARK    3  A    between atoms: _22  and  _66
REMARK    4  A    between atoms: _27  and  _30
REMARK    5  A    between atoms: _32  and  _33
REMARK    6  A    between atoms: _38  and  _43
REMARK    7  A    between atoms: _43  and  _46
REMARK    8  A    between atoms: _53  and  _55
REMARK                            x       y       z     vdW  Elec       q    Type
REMARK                         _______ _______ _______ _____ _____    ______ ____
ROOT
ATOM     10  C   UNL     1      54.228  -3.715  43.092  0.00  0.00    +0.038 A 
ATOM     11  C   UNL     1      53.849  -5.001  43.555  0.00  0.00    +0.047 A 
ATOM     12  C   UNL     1      52.937  -5.838  42.791  0.00  0.00    +0.035 A 
ATOM     32  C   UNL     1      52.431  -5.334  41.557  0.00  0.00    +0.024 A 
ATOM     33  C   UNL     1      52.805  -4.028  41.072  0.00  0.00    +0.007 A 
ATOM     34  C   UNL     1      53.702  -3.198  41.823  0.00  0.00    -0.029 A 
ATOM     35  C   UNL     1      54.063  -1.804  41.258  0.00  0.00    +0.045 C 
ENDROOT
BRANCH  10   9
ATOM      4  C   UNL     1      58.630  -2.146  44.188  0.00  0.00    +0.077 A 
ATOM      5  C   UNL     1      59.232  -2.928  43.146  0.00  0.00    +0.048 A 
ATOM      6  C   UNL     1      58.375  -3.726  42.356  0.00  0.00    +0.116 A 
ATOM      7  N   UNL     1      57.018  -3.733  42.598  0.00  0.00    -0.223 NA
ATOM      8  C   UNL     1      56.470  -2.969  43.611  0.00  0.00    +0.220 A 
ATOM      9  N   UNL     1      55.107  -2.955  43.866  0.00  0.00    -0.283 N 
ATOM     36  H   UNL     1      54.743  -2.383  44.628  0.00  0.00    +0.155 HD
ATOM     37  N   UNL     1      57.267  -2.199  44.381  0.00  0.00    -0.214 NA
BRANCH   4   3
ATOM      1  C   UNL     1      59.574   0.345  47.052  0.00  0.00    +0.020 A 
ATOM      2  C   UNL     1      58.782  -0.507  46.195  0.00  0.00    +0.013 A 
ATOM      3  C   UNL     1      59.402  -1.250  45.105  0.00  0.00    +0.019 A 
ATOM     38  C   UNL     1      60.837  -1.108  44.908  0.00  0.00    +0.120 A 
ATOM     39  N   UNL     1      61.574  -0.279  45.749  0.00  0.00    -0.263 NA
ATOM     40  C   UNL     1      60.988   0.441  46.800  0.00  0.00    +0.111 A 
ENDBRANCH   4   3
ENDBRANCH  10   9
BRANCH  12  13
ATOM     13  N   UNL     1      52.510  -7.148  43.214  0.00  0.00    -0.281 N 
ATOM     14  C   UNL     1      51.258  -7.532  43.665  0.00  0.00    +0.248 C 
ATOM     30  O   UNL     1      50.368  -6.755  43.977  0.00  0.00    -0.270 OA
ATOM     31  H   UNL     1      53.218  -7.883  43.177  0.00  0.00    +0.155 HD
BRANCH  14  15
ATOM     15  C   UNL     1      50.956  -8.989  43.804  0.00  0.00    +0.037 A 
ATOM     16  C   UNL     1      52.025  -9.973  43.989  0.00  0.00    +0.013 A 
ATOM     17  C   UNL     1      51.707 -11.374  44.103  0.00  0.00    +0.005 A 
ATOM     18  C   UNL     1      50.312 -11.800  44.034  0.00  0.00    -0.033 A 
ATOM     28  C   UNL     1      49.270 -10.802  43.856  0.00  0.00    +0.005 A 
ATOM     29  C   UNL     1      49.578  -9.428  43.743  0.00  0.00    +0.013 A 
BRANCH  18  19
ATOM     19  C   UNL     1      49.882 -13.276  44.126  0.00  0.00    +0.119 C 
BRANCH  19  20
ATOM     20  N   UNL     1      50.372 -14.059  45.299  0.00  0.00    -0.302 NA
ATOM     21  C   UNL     1      50.534 -15.546  44.969  0.00  0.00    +0.066 C 
ATOM     22  C   UNL     1      51.069 -16.347  46.201  0.00  0.00    -0.064 C 
ATOM     23  N   UNL     1      50.117 -16.155  47.383  0.00  0.00    +0.379 N 
ATOM     24  C   UNL     1      50.585 -16.953  48.525  0.00  0.00    -0.096 C 
ATOM     25  H   UNL     1      49.119 -16.550  47.081  0.00  0.00    -0.082 HD
ATOM     26  C   UNL     1      49.947 -14.679  47.715  0.00  0.00    -0.064 C 
ATOM     27  C   UNL     1      49.444 -13.888  46.476  0.00  0.00    +0.066 C 
ENDBRANCH  19  20
ENDBRANCH  18  19
ENDBRANCH  14  15
ENDBRANCH  12  13
TORSDOF 6
ENDMDL
MODEL 3
REMARK VINA RESULT:      -7.4      9.213     14.243
REMARK  Name = C:\Users\Docking\Desktop\test protocol\1iep_ligandH.pdb
REMARK  8 active torsions:
REMARK  status: ('A' for Active; 'I' for Inactive)
REMARK    1  A    between atoms: _5  and  _11
REMARK    2  A    between atoms: _19  and  _21
REMARK    3  A    between atoms: _22  and  _66
REMARK    4  A    between atoms: _27  and  _30
REMARK    5  A    between atoms: _32  and  _33
REMARK    6  A    between atoms: _38  and  _43
REMARK    7  A    between atoms: _43  and  _46
REMARK    8  A    between atoms: _53  and  _55
REMARK                            x       y       z     vdW  Elec       q    Type
REMARK                         _______ _______ _______ _____ _____    ______ ____
ROOT
ATOM     10  C   UNL     1      50.254 -13.826  43.765  0.00  0.00    +0.038 A 
ATOM     11  C   UNL     1      51.013 -14.998  44.016  0.00  0.00    +0.047 A 
ATOM     12  C   UNL     1      50.719 -15.854  45.154  0.00  0.00    +0.035 A 
ATOM     32  C   UNL     1      49.643 -15.489  46.015  0.00  0.00    +0.024 A 
ATOM     33  C   UNL     1      48.862 -14.301  45.775  0.00  0.00    +0.007 A 
ATOM     34  C   UNL     1      49.149 -13.450  44.655  0.00  0.00    -0.029 A 
ATOM     35  C   UNL     1      48.284 -12.185  44.450  0.00  0.00    +0.045 C 
ENDROOT
BRANCH  10   9
ATOM      4  C   UNL     1      52.530 -10.126  41.722  0.00  0.00    +0.077 A 
ATOM      5  C   UNL     1      53.097  -9.708  42.972  0.00  0.00    +0.048 A 
ATOM      6  C   UNL     1      52.772 -10.468  44.118  0.00  0.00    +0.116 A 
ATOM      7  N   UNL     1      51.942 -11.563  44.011  0.00  0.00    -0.223 NA
ATOM      8  C   UNL     1      51.411 -11.938  42.790  0.00  0.00    +0.220 A 
ATOM      9  N   UNL     1      50.580 -13.040  42.657  0.00  0.00    -0.283 N 
ATOM     36  H   UNL     1      50.203 -13.279  41.741  0.00  0.00    +0.155 HD
ATOM     37  N   UNL     1      51.705 -11.228  41.681  0.00  0.00    -0.214 NA
BRANCH   4   3
ATOM      1  C   UNL     1      52.416  -7.538  38.792  0.00  0.00    +0.020 A 
ATOM      2  C   UNL     1      52.137  -8.172  40.060  0.00  0.00    +0.013 A 
ATOM      3  C   UNL     1      52.782  -9.428  40.422  0.00  0.00    +0.019 A 
ATOM     38  C   UNL     1      53.711 -10.020  39.472  0.00  0.00    +0.120 A 
ATOM     39  N   UNL     1      53.959  -9.388  38.258  0.00  0.00    -0.263 NA
ATOM     40  C   UNL     1      53.343  -8.180  37.897  0.00  0.00    +0.111 A 
ENDBRANCH   4   3
ENDBRANCH  10   9
BRANCH  12  13
ATOM     13  N   UNL     1      51.459 -17.052  45.465  0.00  0.00    -0.281 N 
ATOM     14  C   UNL     1      52.125 -17.361  46.639  0.00  0.00    +0.248 C 
ATOM     30  O   UNL     1      52.366 -16.559  47.529  0.00  0.00    -0.270 OA
ATOM     31  H   UNL     1      51.497 -17.758  44.729  0.00  0.00    +0.155 HD
BRANCH  14  15
ATOM     15  C   UNL     1      52.607 -18.760  46.850  0.00  0.00    +0.037 A 
ATOM     16  C   UNL     1      53.964 -19.033  47.329  0.00  0.00    +0.013 A 
ATOM     17  C   UNL     1      54.408 -20.393  47.507  0.00  0.00    +0.005 A 
ATOM     18  C   UNL     1      53.493 -21.491  47.207  0.00  0.00    -0.033 A 
ATOM     28  C   UNL     1      52.150 -21.192  46.738  0.00  0.00    +0.005 A 
ATOM     29  C   UNL     1      51.711 -19.860  46.561  0.00  0.00    +0.013 A 
BRANCH  18  19
ATOM     19  C   UNL     1      53.889 -22.973  47.348  0.00  0.00    +0.119 C 
BRANCH  19  20
ATOM     20  N   UNL     1      52.828 -23.992  47.088  0.00  0.00    -0.302 NA
ATOM     21  C   UNL     1      52.034 -24.330  48.352  0.00  0.00    +0.066 C 
ATOM     22  C   UNL     1      50.914 -25.380  48.057  0.00  0.00    -0.064 C 
ATOM     23  N   UNL     1      51.545 -26.640  47.461  0.00  0.00    +0.379 N 
ATOM     24  C   UNL     1      50.502 -27.651  47.236  0.00  0.00    -0.096 C 
ATOM     25  H   UNL     1      52.257 -27.050  48.214  0.00  0.00    -0.082 HD
ATOM     26  C   UNL     1      52.339 -26.312  46.205  0.00  0.00    -0.064 C 
ATOM     27  C   UNL     1      53.429 -25.246  46.502  0.00  0.00    +0.066 C 
ENDBRANCH  19  20
ENDBRANCH  18  19
ENDBRANCH  14  15
ENDBRANCH  12  13
TORSDOF 6
ENDMDL
MODEL 4
REMARK VINA RESULT:      -7.4     12.742     18.325
REMARK  Name = C:\Users\Docking\Desktop\test protocol\1iep_ligandH.pdb
REMARK  8 active torsions:
REMARK  status: ('A' for Active; 'I' for Inactive)
REMARK    1  A    between atoms: _5  and  _11
REMARK    2  A    between atoms: _19  and  _21
REMARK    3  A    between atoms: _22  and  _66
REMARK    4  A    between atoms: _27  and  _30
REMARK    5  A    between atoms: _32  and  _33
REMARK    6  A    between atoms: _38  and  _43
REMARK    7  A    between atoms: _43  and  _46
REMARK    8  A    between atoms: _53  and  _55
REMARK                            x       y       z     vdW  Elec       q    Type
REMARK                         _______ _______ _______ _____ _____    ______ ____
ROOT
ATOM     10  C   UNL     1      55.973  -2.898  42.343  0.00  0.00    +0.038 A 
ATOM     11  C   UNL     1      55.284  -4.125  42.514  0.00  0.00    +0.047 A 
ATOM     12  C   UNL     1      54.321  -4.304  43.589  0.00  0.00    +0.035 A 
ATOM     32  C   UNL     1      54.082  -3.210  44.471  0.00  0.00    +0.024 A 
ATOM     33  C   UNL     1      54.774  -1.956  44.312  0.00  0.00    +0.007 A 
ATOM     34  C   UNL     1      55.727  -1.774  43.255  0.00  0.00    -0.029 A 
ATOM     35  C   UNL     1      56.445  -0.410  43.137  0.00  0.00    +0.045 C 
ENDROOT
BRANCH  10   9
ATOM      4  C   UNL     1      60.418  -3.169  40.551  0.00  0.00    +0.077 A 
ATOM      5  C   UNL     1      60.969  -3.550  41.820  0.00  0.00    +0.048 A 
ATOM      6  C   UNL     1      60.077  -3.657  42.910  0.00  0.00    +0.116 A 
ATOM      7  N   UNL     1      58.734  -3.402  42.732  0.00  0.00    -0.223 NA
ATOM      8  C   UNL     1      58.235  -3.035  41.496  0.00  0.00    +0.220 A 
ATOM      9  N   UNL     1      56.887  -2.781  41.293  0.00  0.00    -0.283 N 
ATOM     36  H   UNL     1      56.560  -2.506  40.368  0.00  0.00    +0.155 HD
ATOM     37  N   UNL     1      59.067  -2.924  40.440  0.00  0.00    -0.214 NA
BRANCH   4   3
ATOM      1  C   UNL     1      62.166  -3.876  37.124  0.00  0.00    +0.020 A 
ATOM      2  C   UNL     1      61.368  -4.075  38.312  0.00  0.00    +0.013 A 
ATOM      3  C   UNL     1      61.232  -3.016  39.304  0.00  0.00    +0.019 A 
ATOM     38  C   UNL     1      61.922  -1.758  39.063  0.00  0.00    +0.120 A 
ATOM     39  N   UNL     1      62.685  -1.596  37.911  0.00  0.00    -0.263 NA
ATOM     40  C   UNL     1      62.824  -2.608  36.950  0.00  0.00    +0.111 A 
ENDBRANCH   4   3
ENDBRANCH  10   9
BRANCH  12  13
ATOM     13  N   UNL     1      53.596  -5.530  43.817  0.00  0.00    -0.281 N 
ATOM     14  C   UNL     1      52.490  -6.005  43.132  0.00  0.00    +0.248 C 
ATOM     30  O   UNL     1      51.821  -5.341  42.354  0.00  0.00    -0.270 OA
ATOM     31  H   UNL     1      53.942  -6.119  44.574  0.00  0.00    +0.155 HD
BRANCH  14  15
ATOM     15  C   UNL     1      52.054  -7.417  43.355  0.00  0.00    +0.037 A 
ATOM     16  C   UNL     1      50.653  -7.746  43.631  0.00  0.00    +0.013 A 
ATOM     17  C   UNL     1      50.263  -9.115  43.859  0.00  0.00    +0.005 A 
ATOM     18  C   UNL     1      51.276 -10.166  43.811  0.00  0.00    -0.033 A 
ATOM     28  C   UNL     1      52.657  -9.813  43.530  0.00  0.00    +0.005 A 
ATOM     29  C   UNL     1      53.044  -8.472  43.307  0.00  0.00    +0.013 A 
BRANCH  18  19
ATOM     19  C   UNL     1      50.953 -11.651  44.064  0.00  0.00    +0.119 C 
BRANCH  19  20
ATOM     20  N   UNL     1      49.996 -12.311  43.127  0.00  0.00    -0.302 NA
ATOM     21  C   UNL     1      49.810 -13.797  43.448  0.00  0.00    +0.066 C 
ATOM     22  C   UNL     1      48.788 -14.467  42.473  0.00  0.00    -0.064 C 
ATOM     23  N   UNL     1      49.266 -14.280  41.032  0.00  0.00    +0.379 N 
ATOM     24  C   UNL     1      48.338 -14.959  40.115  0.00  0.00    -0.096 C 
ATOM     25  H   UNL     1      50.259 -14.778  40.938  0.00  0.00    -0.082 HD
ATOM     26  C   UNL     1      49.456 -12.806  40.704  0.00  0.00    -0.064 C 
ATOM     27  C   UNL     1      50.451 -12.143  41.698  0.00  0.00    +0.066 C 
ENDBRANCH  19  20
ENDBRANCH  18  19
ENDBRANCH  14  15
ENDBRANCH  12  13
TORSDOF 6
ENDMDL
MODEL 5
REMARK VINA RESULT:      -7.1     14.420     17.857
REMARK  Name = C:\Users\Docking\Desktop\test protocol\1iep_ligandH.pdb
REMARK  8 active torsions:
REMARK  status: ('A' for Active; 'I' for Inactive)
REMARK    1  A    between atoms: _5  and  _11
REMARK    2  A    between atoms: _19  and  _21
REMARK    3  A    between atoms: _22  and  _66
REMARK    4  A    between atoms: _27  and  _30
REMARK    5  A    between atoms: _32  and  _33
REMARK    6  A    between atoms: _38  and  _43
REMARK    7  A    between atoms: _43  and  _46
REMARK    8  A    between atoms: _53  and  _55
REMARK                            x       y       z     vdW  Elec       q    Type
REMARK                         _______ _______ _______ _____ _____    ______ ____
ROOT
ATOM     10  C   UNL     1      49.930  -8.556  43.206  0.00  0.00    +0.038 A 
ATOM     11  C   UNL     1      50.868  -7.493  43.188  0.00  0.00    +0.047 A 
ATOM     12  C   UNL     1      52.286  -7.738  43.398  0.00  0.00    +0.035 A 
ATOM     32  C   UNL     1      52.715  -9.079  43.621  0.00  0.00    +0.024 A 
ATOM     33  C   UNL     1      51.774 -10.171  43.643  0.00  0.00    +0.007 A 
ATOM     34  C   UNL     1      50.374  -9.936  43.438  0.00  0.00    -0.029 A 
ATOM     35  C   UNL     1      49.410 -11.144  43.479  0.00  0.00    +0.045 C 
ENDROOT
BRANCH  10   9
ATOM      4  C   UNL     1      45.507  -7.613  44.815  0.00  0.00    +0.077 A 
ATOM      5  C   UNL     1      45.914  -7.739  46.184  0.00  0.00    +0.048 A 
ATOM      6  C   UNL     1      47.269  -8.055  46.432  0.00  0.00    +0.116 A 
ATOM      7  N   UNL     1      48.143  -8.229  45.380  0.00  0.00    -0.223 NA
ATOM      8  C   UNL     1      47.717  -8.101  44.071  0.00  0.00    +0.220 A 
ATOM      9  N   UNL     1      48.580  -8.264  42.998  0.00  0.00    -0.283 N 
ATOM     36  H   UNL     1      48.225  -8.169  42.047  0.00  0.00    +0.155 HD
ATOM     37  N   UNL     1      46.428  -7.802  43.808  0.00  0.00    -0.214 NA
BRANCH   4   3
ATOM      1  C   UNL     1      42.311  -5.652  43.700  0.00  0.00    +0.020 A 
ATOM      2  C   UNL     1      43.672  -5.920  44.105  0.00  0.00    +0.013 A 
ATOM      3  C   UNL     1      44.110  -7.280  44.392  0.00  0.00    +0.019 A 
ATOM     38  C   UNL     1      43.139  -8.355  44.258  0.00  0.00    +0.120 A 
ATOM     39  N   UNL     1      41.835  -8.067  43.867  0.00  0.00    -0.263 NA
ATOM     40  C   UNL     1      41.401  -6.762  43.590  0.00  0.00    +0.111 A 
ENDBRANCH   4   3
ENDBRANCH  10   9
BRANCH  12  13
ATOM     13  N   UNL     1      53.285  -6.697  43.400  0.00  0.00    -0.281 N 
ATOM     14  C   UNL     1      53.105  -5.344  43.163  0.00  0.00    +0.248 C 
ATOM     30  O   UNL     1      52.086  -4.853  42.700  0.00  0.00    -0.270 OA
ATOM     31  H   UNL     1      54.240  -6.994  43.600  0.00  0.00    +0.155 HD
BRANCH  14  15
ATOM     15  C   UNL     1      54.224  -4.402  43.470  0.00  0.00    +0.037 A 
ATOM     16  C   UNL     1      55.410  -4.325  42.613  0.00  0.00    +0.013 A 
ATOM     17  C   UNL     1      56.482  -3.420  42.942  0.00  0.00    +0.005 A 
ATOM     18  C   UNL     1      56.373  -2.583  44.134  0.00  0.00    -0.033 A 
ATOM     28  C   UNL     1      55.183  -2.676  44.964  0.00  0.00    +0.005 A 
ATOM     29  C   UNL     1      54.130  -3.562  44.645  0.00  0.00    +0.013 A 
BRANCH  18  19
ATOM     19  C   UNL     1      57.478  -1.604  44.573  0.00  0.00    +0.119 C 
BRANCH  19  20
ATOM     20  N   UNL     1      58.716  -1.553  43.740  0.00  0.00    -0.302 NA
ATOM     21  C   UNL     1      59.694  -2.677  44.095  0.00  0.00    +0.066 C 
ATOM     22  C   UNL     1      60.974  -2.622  43.199  0.00  0.00    -0.064 C 
ATOM     23  N   UNL     1      61.642  -1.254  43.352  0.00  0.00    +0.379 N 
ATOM     24  C   UNL     1      62.877  -1.220  42.555  0.00  0.00    -0.096 C 
ATOM     25  H   UNL     1      61.927  -1.135  44.423  0.00  0.00    -0.082 HD
ATOM     26  C   UNL     1      60.676  -0.131  43.003  0.00  0.00    -0.064 C 
ATOM     27  C   UNL     1      59.394  -0.212  43.879  0.00  0.00    +0.066 C 
ENDBRANCH  19  20
ENDBRANCH  18  19
ENDBRANCH  14  15
ENDBRANCH  12  13
TORSDOF 6
ENDMDL
