MODEL 1
REMARK VINA RESULT:      -9.0      0.000      0.000
REMARK  Name = C:\Users\Docking\Desktop\test protocol\1iep_ligandH.pdb
REMARK  8 active torsions:
REMARK  status: ('A' for Active; 'I' for Inactive)
REMARK    1  A    between atoms: _5  and  _11
REMARK    2  A    between atoms: _19  and  _21
REMARK    3  A    between atoms: _22  and  _66
REMARK    4  A    between atoms: _27  and  _30
REMARK    5  A    between atoms: _32  and  _33
REMARK    6  A    between atoms: _38  and  _43
REMARK    7  A    between atoms: _43  and  _46
REMARK    8  A    between atoms: _53  and  _55
REMARK                            x       y       z     vdW  Elec       q    Type
REMARK                         _______ _______ _______ _____ _____    ______ ____
ROOT
ATOM     10  C   UNL     1      62.331  16.634 146.030  0.00  0.00    +0.038 A 
ATOM     11  C   UNL     1      62.113  16.481 147.423  0.00  0.00    +0.047 A 
ATOM     12  C   UNL     1      60.908  15.844 147.931  0.00  0.00    +0.035 A 
ATOM     32  C   UNL     1      59.946  15.371 146.991  0.00  0.00    +0.024 A 
ATOM     33  C   UNL     1      60.151  15.519 145.571  0.00  0.00    +0.007 A 
ATOM     34  C   UNL     1      61.337  16.149 145.065  0.00  0.00    -0.029 A 
ATOM     35  C   UNL     1      61.501  16.286 143.533  0.00  0.00    +0.045 C 
ENDROOT
BRANCH  10   9
ATOM      4  C   UNL     1      67.102  16.781 145.533  0.00  0.00    +0.077 A 
ATOM      5  C   UNL     1      67.271  15.530 146.215  0.00  0.00    +0.048 A 
ATOM      6  C   UNL     1      66.105  14.885 146.685  0.00  0.00    +0.116 A 
ATOM      7  N   UNL     1      64.868  15.456 146.481  0.00  0.00    -0.223 NA
ATOM      8  C   UNL     1      64.740  16.664 145.821  0.00  0.00    +0.220 A 
ATOM      9  N   UNL     1      63.505  17.254 145.598  0.00  0.00    -0.283 N 
ATOM     36  H   UNL     1      63.454  18.149 145.113  0.00  0.00    +0.155 HD
ATOM     37  N   UNL     1      65.839  17.301 145.364  0.00  0.00    -0.214 NA
BRANCH   4   3
ATOM      1  C   UNL     1      69.497  19.741 144.638  0.00  0.00    +0.020 A 
ATOM      2  C   UNL     1      68.381  19.015 145.199  0.00  0.00    +0.013 A 
ATOM      3  C   UNL     1      68.238  17.582 144.975  0.00  0.00    +0.019 A 
ATOM     38  C   UNL     1      69.249  16.908 144.174  0.00  0.00    +0.120 A 
ATOM     39  N   UNL     1      70.312  17.634 143.646  0.00  0.00    -0.263 NA
ATOM     40  C   UNL     1      70.459  19.014 143.853  0.00  0.00    +0.111 A 
ENDBRANCH   4   3
ENDBRANCH  10   9
BRANCH  12  13
ATOM     13  N   UNL     1      60.628  15.668 149.335  0.00  0.00    -0.281 N 
ATOM     14  C   UNL     1      60.940  14.582 150.136  0.00  0.00    +0.248 C 
ATOM     30  O   UNL     1      61.321  13.500 149.715  0.00  0.00    -0.270 OA
ATOM     31  H   UNL     1      60.140  16.438 149.793  0.00  0.00    +0.155 HD
BRANCH  14  15
ATOM     15  C   UNL     1      60.795  14.713 151.618  0.00  0.00    +0.037 A 
ATOM     16  C   UNL     1      61.941  15.048 152.467  0.00  0.00    +0.013 A 
ATOM     17  C   UNL     1      61.777  15.151 153.895  0.00  0.00    +0.005 A 
ATOM     18  C   UNL     1      60.460  14.920 154.483  0.00  0.00    -0.033 A 
ATOM     28  C   UNL     1      59.339  14.594 153.617  0.00  0.00    +0.005 A 
ATOM     29  C   UNL     1      59.496  14.491 152.217  0.00  0.00    +0.013 A 
BRANCH  18  19
ATOM     19  C   UNL     1      60.197  14.988 156.000  0.00  0.00    +0.119 C 
BRANCH  19  20
ATOM     20  N   UNL     1      58.990  15.741 156.451  0.00  0.00    -0.302 NA
ATOM     21  C   UNL     1      59.265  17.242 156.583  0.00  0.00    +0.066 C 
ATOM     22  C   UNL     1      57.985  18.018 157.034  0.00  0.00    -0.064 C 
ATOM     23  N   UNL     1      57.484  17.441 158.359  0.00  0.00    +0.379 N 
ATOM     24  C   UNL     1      56.314  18.207 158.816  0.00  0.00    -0.096 C 
ATOM     25  H   UNL     1      58.293  17.577 159.114  0.00  0.00    -0.082 HD
ATOM     26  C   UNL     1      57.210  15.949 158.238  0.00  0.00    -0.064 C 
ATOM     27  C   UNL     1      58.480  15.191 157.760  0.00  0.00    +0.066 C 
ENDBRANCH  19  20
ENDBRANCH  18  19
ENDBRANCH  14  15
ENDBRANCH  12  13
TORSDOF 6
ENDMDL
MODEL 2
REMARK VINA RESULT:      -8.7      1.968      2.879
REMARK  Name = C:\Users\Docking\Desktop\test protocol\1iep_ligandH.pdb
REMARK  8 active torsions:
REMARK  status: ('A' for Active; 'I' for Inactive)
REMARK    1  A    between atoms: _5  and  _11
REMARK    2  A    between atoms: _19  and  _21
REMARK    3  A    between atoms: _22  and  _66
REMARK    4  A    between atoms: _27  and  _30
REMARK    5  A    between atoms: _32  and  _33
REMARK    6  A    between atoms: _38  and  _43
REMARK    7  A    between atoms: _43  and  _46
REMARK    8  A    between atoms: _53  and  _55
REMARK                            x       y       z     vdW  Elec       q    Type
REMARK                         _______ _______ _______ _____ _____    ______ ____
ROOT
ATOM     10  C   UNL     1      62.354  16.598 145.959  0.00  0.00    +0.038 A 
ATOM     11  C   UNL     1      62.183  16.479 147.362  0.00  0.00    +0.047 A 
ATOM     12  C   UNL     1      60.967  15.916 147.927  0.00  0.00    +0.035 A 
ATOM     32  C   UNL     1      59.945  15.482 147.033  0.00  0.00    +0.024 A 
ATOM     33  C   UNL     1      60.101  15.596 145.605  0.00  0.00    +0.007 A 
ATOM     34  C   UNL     1      61.298  16.153 145.041  0.00  0.00    -0.029 A 
ATOM     35  C   UNL     1      61.408  16.258 143.503  0.00  0.00    +0.045 C 
ENDROOT
BRANCH  10   9
ATOM      4  C   UNL     1      67.133  16.628 145.516  0.00  0.00    +0.077 A 
ATOM      5  C   UNL     1      67.276  15.469 146.349  0.00  0.00    +0.048 A 
ATOM      6  C   UNL     1      66.096  14.900 146.878  0.00  0.00    +0.116 A 
ATOM      7  N   UNL     1      64.869  15.456 146.588  0.00  0.00    -0.223 NA
ATOM      8  C   UNL     1      64.766  16.575 145.782  0.00  0.00    +0.220 A 
ATOM      9  N   UNL     1      63.542  17.146 145.471  0.00  0.00    -0.283 N 
ATOM     36  H   UNL     1      63.509  17.976 144.878  0.00  0.00    +0.155 HD
ATOM     37  N   UNL     1      65.878  17.138 145.266  0.00  0.00    -0.214 NA
BRANCH   4   3
ATOM      1  C   UNL     1      70.348  17.408 143.429  0.00  0.00    +0.020 A 
ATOM      2  C   UNL     1      69.252  16.673 144.018  0.00  0.00    +0.013 A 
ATOM      3  C   UNL     1      68.286  17.341 144.880  0.00  0.00    +0.019 A 
ATOM     38  C   UNL     1      68.457  18.765 145.127  0.00  0.00    +0.120 A 
ATOM     39  N   UNL     1      69.522  19.446 144.547  0.00  0.00    -0.263 NA
ATOM     40  C   UNL     1      70.460  18.813 143.717  0.00  0.00    +0.111 A 
ENDBRANCH   4   3
ENDBRANCH  10   9
BRANCH  12  13
ATOM     13  N   UNL     1      60.734  15.777 149.343  0.00  0.00    -0.281 N 
ATOM     14  C   UNL     1      60.663  14.609 150.084  0.00  0.00    +0.248 C 
ATOM     30  O   UNL     1      60.577  13.489 149.603  0.00  0.00    -0.270 OA
ATOM     31  H   UNL     1      60.606  16.646 149.862  0.00  0.00    +0.155 HD
BRANCH  14  15
ATOM     15  C   UNL     1      60.676  14.699 151.576  0.00  0.00    +0.037 A 
ATOM     16  C   UNL     1      59.449  14.526 152.358  0.00  0.00    +0.013 A 
ATOM     17  C   UNL     1      59.486  14.634 153.795  0.00  0.00    +0.005 A 
ATOM     18  C   UNL     1      60.757  14.915 154.460  0.00  0.00    -0.033 A 
ATOM     28  C   UNL     1      61.960  15.077 153.660  0.00  0.00    +0.005 A 
ATOM     29  C   UNL     1      61.927  14.973 152.251  0.00  0.00    +0.013 A 
BRANCH  18  19
ATOM     19  C   UNL     1      60.886  15.068 155.987  0.00  0.00    +0.119 C 
BRANCH  19  20
ATOM     20  N   UNL     1      62.164  15.635 156.511  0.00  0.00    -0.302 NA
ATOM     21  C   UNL     1      62.863  14.676 157.479  0.00  0.00    +0.066 C 
ATOM     22  C   UNL     1      64.210  15.275 158.001  0.00  0.00    -0.064 C 
ATOM     23  N   UNL     1      63.939  16.622 158.674  0.00  0.00    +0.379 N 
ATOM     24  C   UNL     1      65.195  17.160 159.217  0.00  0.00    -0.096 C 
ATOM     25  H   UNL     1      63.250  16.438 159.532  0.00  0.00    -0.082 HD
ATOM     26  C   UNL     1      63.242  17.580 157.719  0.00  0.00    -0.064 C 
ATOM     27  C   UNL     1      61.919  16.963 157.184  0.00  0.00    +0.066 C 
ENDBRANCH  19  20
ENDBRANCH  18  19
ENDBRANCH  14  15
ENDBRANCH  12  13
TORSDOF 6
ENDMDL
MODEL 3
REMARK VINA RESULT:      -8.7      6.068     16.031
REMARK  Name = C:\Users\Docking\Desktop\test protocol\1iep_ligandH.pdb
REMARK  8 active torsions:
REMARK  status: ('A' for Active; 'I' for Inactive)
REMARK    1  A    between atoms: _5  and  _11
REMARK    2  A    between atoms: _19  and  _21
REMARK    3  A    between atoms: _22  and  _66
REMARK    4  A    between atoms: _27  and  _30
REMARK    5  A    between atoms: _32  and  _33
REMARK    6  A    between atoms: _38  and  _43
REMARK    7  A    between atoms: _43  and  _46
REMARK    8  A    between atoms: _53  and  _55
REMARK                            x       y       z     vdW  Elec       q    Type
REMARK                         _______ _______ _______ _____ _____    ______ ____
ROOT
ATOM     10  C   UNL     1      68.052  18.085 145.499  0.00  0.00    +0.038 A 
ATOM     11  C   UNL     1      68.789  17.534 144.420  0.00  0.00    +0.047 A 
ATOM     12  C   UNL     1      70.229  17.713 144.323  0.00  0.00    +0.035 A 
ATOM     32  C   UNL     1      70.888  18.457 145.345  0.00  0.00    +0.024 A 
ATOM     33  C   UNL     1      70.154  19.025 146.449  0.00  0.00    +0.007 A 
ATOM     34  C   UNL     1      68.733  18.854 146.548  0.00  0.00    -0.029 A 
ATOM     35  C   UNL     1      67.996  19.491 147.750  0.00  0.00    +0.045 C 
ENDROOT
BRANCH  10   9
ATOM      4  C   UNL     1      64.178  15.610 146.878  0.00  0.00    +0.077 A 
ATOM      5  C   UNL     1      64.974  14.622 147.547  0.00  0.00    +0.048 A 
ATOM      6  C   UNL     1      66.377  14.783 147.507  0.00  0.00    +0.116 A 
ATOM      7  N   UNL     1      66.931  15.857 146.844  0.00  0.00    -0.223 NA
ATOM      8  C   UNL     1      66.135  16.791 146.208  0.00  0.00    +0.220 A 
ATOM      9  N   UNL     1      66.671  17.883 145.542  0.00  0.00    -0.283 N 
ATOM     36  H   UNL     1      66.049  18.545 145.079  0.00  0.00    +0.155 HD
ATOM     37  N   UNL     1      64.792  16.658 146.230  0.00  0.00    -0.214 NA
BRANCH   4   3
ATOM      1  C   UNL     1      60.454  14.473 147.259  0.00  0.00    +0.020 A 
ATOM      2  C   UNL     1      61.898  14.452 147.324  0.00  0.00    +0.013 A 
ATOM      3  C   UNL     1      62.681  15.579 146.834  0.00  0.00    +0.019 A 
ATOM     38  C   UNL     1      61.969  16.721 146.282  0.00  0.00    +0.120 A 
ATOM     39  N   UNL     1      60.578  16.712 146.231  0.00  0.00    -0.263 NA
ATOM     40  C   UNL     1      59.813  15.632 146.698  0.00  0.00    +0.111 A 
ENDBRANCH   4   3
ENDBRANCH  10   9
BRANCH  12  13
ATOM     13  N   UNL     1      71.029  17.183 143.247  0.00  0.00    -0.281 N 
ATOM     14  C   UNL     1      71.267  15.854 142.937  0.00  0.00    +0.248 C 
ATOM     30  O   UNL     1      70.999  14.915 143.671  0.00  0.00    -0.270 OA
ATOM     31  H   UNL     1      71.474  17.872 142.640  0.00  0.00    +0.155 HD
BRANCH  14  15
ATOM     15  C   UNL     1      71.908  15.522 141.628  0.00  0.00    +0.037 A 
ATOM     16  C   UNL     1      72.655  14.275 141.443  0.00  0.00    +0.013 A 
ATOM     17  C   UNL     1      73.278  13.987 140.175  0.00  0.00    +0.005 A 
ATOM     18  C   UNL     1      73.155  14.948 139.082  0.00  0.00    -0.033 A 
ATOM     28  C   UNL     1      72.404  16.174 139.291  0.00  0.00    +0.005 A 
ATOM     29  C   UNL     1      71.793  16.461 140.533  0.00  0.00    +0.013 A 
BRANCH  18  19
ATOM     19  C   UNL     1      73.805  14.733 137.702  0.00  0.00    +0.119 C 
BRANCH  19  20
ATOM     20  N   UNL     1      74.927  15.644 137.325  0.00  0.00    -0.302 NA
ATOM     21  C   UNL     1      74.444  16.836 136.494  0.00  0.00    +0.066 C 
ATOM     22  C   UNL     1      75.626  17.791 136.128  0.00  0.00    -0.064 C 
ATOM     23  N   UNL     1      76.698  17.003 135.373  0.00  0.00    +0.379 N 
ATOM     24  C   UNL     1      77.785  17.910 134.976  0.00  0.00    -0.096 C 
ATOM     25  H   UNL     1      76.233  16.605 134.441  0.00  0.00    -0.082 HD
ATOM     26  C   UNL     1      77.182  15.814 136.191  0.00  0.00    -0.064 C 
ATOM     27  C   UNL     1      75.995  14.888 136.575  0.00  0.00    +0.066 C 
ENDBRANCH  19  20
ENDBRANCH  18  19
ENDBRANCH  14  15
ENDBRANCH  12  13
TORSDOF 6
ENDMDL
