MODEL 1
REMARK VINA RESULT:      -7.4      0.000      0.000
REMARK  Name = C:\Users\Docking\Desktop\test protocol\1iep_ligandH.pdb
REMARK  8 active torsions:
REMARK  status: ('A' for Active; 'I' for Inactive)
REMARK    1  A    between atoms: _5  and  _11
REMARK    2  A    between atoms: _19  and  _21
REMARK    3  A    between atoms: _22  and  _66
REMARK    4  A    between atoms: _27  and  _30
REMARK    5  A    between atoms: _32  and  _33
REMARK    6  A    between atoms: _38  and  _43
REMARK    7  A    between atoms: _43  and  _46
REMARK    8  A    between atoms: _53  and  _55
REMARK                            x       y       z     vdW  Elec       q    Type
REMARK                         _______ _______ _______ _____ _____    ______ ____
ROOT
ATOM     10  C   UNL     1      13.163  33.243  29.243  0.00  0.00    +0.038 A 
ATOM     11  C   UNL     1      14.576  33.146  29.174  0.00  0.00    +0.047 A 
ATOM     12  C   UNL     1      15.316  33.716  28.060  0.00  0.00    +0.035 A 
ATOM     32  C   UNL     1      14.585  34.381  27.033  0.00  0.00    +0.024 A 
ATOM     33  C   UNL     1      13.148  34.489  27.087  0.00  0.00    +0.007 A 
ATOM     34  C   UNL     1      12.412  33.926  28.183  0.00  0.00    -0.029 A 
ATOM     35  C   UNL     1      10.872  34.065  28.185  0.00  0.00    +0.045 C 
ENDROOT
BRANCH  10   9
ATOM      4  C   UNL     1      11.353  33.483  33.682  0.00  0.00    +0.077 A 
ATOM      5  C   UNL     1      11.781  34.842  33.847  0.00  0.00    +0.048 A 
ATOM      6  C   UNL     1      12.471  35.441  32.769  0.00  0.00    +0.116 A 
ATOM      7  N   UNL     1      12.708  34.724  31.616  0.00  0.00    -0.223 NA
ATOM      8  C   UNL     1      12.282  33.414  31.490  0.00  0.00    +0.220 A 
ATOM      9  N   UNL     1      12.503  32.677  30.337  0.00  0.00    -0.283 N 
ATOM     36  H   UNL     1      12.180  31.711  30.286  0.00  0.00    +0.155 HD
ATOM     37  N   UNL     1      11.623  32.820  32.506  0.00  0.00    -0.214 NA
BRANCH   4   3
ATOM      1  C   UNL     1       9.740  32.400  37.078  0.00  0.00    +0.020 A 
ATOM      2  C   UNL     1      10.468  33.181  36.104  0.00  0.00    +0.013 A 
ATOM      3  C   UNL     1      10.610  32.714  34.731  0.00  0.00    +0.019 A 
ATOM     38  C   UNL     1       9.998  31.444  34.372  0.00  0.00    +0.120 A 
ATOM     39  N   UNL     1       9.304  30.713  35.331  0.00  0.00    -0.263 NA
ATOM     40  C   UNL     1       9.163  31.151  36.656  0.00  0.00    +0.111 A 
ENDBRANCH   4   3
ENDBRANCH  10   9
BRANCH  12  13
ATOM     13  N   UNL     1      16.750  33.642  27.932  0.00  0.00    -0.281 N 
ATOM     14  C   UNL     1      17.492  32.757  27.165  0.00  0.00    +0.248 C 
ATOM     30  O   UNL     1      17.039  31.753  26.636  0.00  0.00    -0.270 OA
ATOM     31  H   UNL     1      17.284  34.323  28.472  0.00  0.00    +0.155 HD
BRANCH  14  15
ATOM     15  C   UNL     1      18.951  33.019  26.971  0.00  0.00    +0.037 A 
ATOM     16  C   UNL     1      19.605  34.176  27.587  0.00  0.00    +0.013 A 
ATOM     17  C   UNL     1      21.009  34.414  27.369  0.00  0.00    +0.005 A 
ATOM     18  C   UNL     1      21.771  33.491  26.531  0.00  0.00    -0.033 A 
ATOM     28  C   UNL     1      21.098  32.348  25.936  0.00  0.00    +0.005 A 
ATOM     29  C   UNL     1      19.721  32.112  26.146  0.00  0.00    +0.013 A 
BRANCH  18  19
ATOM     19  C   UNL     1      23.269  33.679  26.227  0.00  0.00    +0.119 C 
BRANCH  19  20
ATOM     20  N   UNL     1      23.800  35.075  26.242  0.00  0.00    -0.302 NA
ATOM     21  C   UNL     1      24.821  35.314  25.126  0.00  0.00    +0.066 C 
ATOM     22  C   UNL     1      25.349  36.785  25.142  0.00  0.00    -0.064 C 
ATOM     23  N   UNL     1      25.961  37.089  26.510  0.00  0.00    +0.379 N 
ATOM     24  C   UNL     1      26.511  38.452  26.510  0.00  0.00    -0.096 C 
ATOM     25  H   UNL     1      26.809  36.382  26.665  0.00  0.00    -0.082 HD
ATOM     26  C   UNL     1      24.954  36.852  27.626  0.00  0.00    -0.064 C 
ATOM     27  C   UNL     1      24.413  35.395  27.583  0.00  0.00    +0.066 C 
ENDBRANCH  19  20
ENDBRANCH  18  19
ENDBRANCH  14  15
ENDBRANCH  12  13
TORSDOF 6
ENDMDL
MODEL 2
REMARK VINA RESULT:      -7.3     15.418     19.414
REMARK  Name = C:\Users\Docking\Desktop\test protocol\1iep_ligandH.pdb
REMARK  8 active torsions:
REMARK  status: ('A' for Active; 'I' for Inactive)
REMARK    1  A    between atoms: _5  and  _11
REMARK    2  A    between atoms: _19  and  _21
REMARK    3  A    between atoms: _22  and  _66
REMARK    4  A    between atoms: _27  and  _30
REMARK    5  A    between atoms: _32  and  _33
REMARK    6  A    between atoms: _38  and  _43
REMARK    7  A    between atoms: _43  and  _46
REMARK    8  A    between atoms: _53  and  _55
REMARK                            x       y       z     vdW  Elec       q    Type
REMARK                         _______ _______ _______ _____ _____    ______ ____
ROOT
ATOM     10  C   UNL     1      22.580  27.537  16.502  0.00  0.00    +0.038 A 
ATOM     11  C   UNL     1      23.906  27.939  16.200  0.00  0.00    +0.047 A 
ATOM     12  C   UNL     1      24.712  28.666  17.169  0.00  0.00    +0.035 A 
ATOM     32  C   UNL     1      24.135  28.966  18.438  0.00  0.00    +0.024 A 
ATOM     33  C   UNL     1      22.788  28.566  18.761  0.00  0.00    +0.007 A 
ATOM     34  C   UNL     1      21.988  27.851  17.809  0.00  0.00    -0.029 A 
ATOM     35  C   UNL     1      20.548  27.453  18.207  0.00  0.00    +0.045 C 
ENDROOT
BRANCH  10   9
ATOM      4  C   UNL     1      20.304  27.289  12.284  0.00  0.00    +0.077 A 
ATOM      5  C   UNL     1      20.564  28.670  11.996  0.00  0.00    +0.048 A 
ATOM      6  C   UNL     1      21.280  29.411  12.962  0.00  0.00    +0.116 A 
ATOM      7  N   UNL     1      21.701  28.806  14.126  0.00  0.00    -0.223 NA
ATOM      8  C   UNL     1      21.432  27.472  14.374  0.00  0.00    +0.220 A 
ATOM      9  N   UNL     1      21.852  26.841  15.535  0.00  0.00    -0.283 N 
ATOM     36  H   UNL     1      21.628  25.858  15.684  0.00  0.00    +0.155 HD
ATOM     37  N   UNL     1      20.748  26.743  13.468  0.00  0.00    -0.214 NA
BRANCH   4   3
ATOM      1  C   UNL     1      19.467  24.558   9.612  0.00  0.00    +0.020 A 
ATOM      2  C   UNL     1      20.231  25.420  10.485  0.00  0.00    +0.013 A 
ATOM      3  C   UNL     1      19.562  26.373  11.361  0.00  0.00    +0.019 A 
ATOM     38  C   UNL     1      18.108  26.430  11.330  0.00  0.00    +0.120 A 
ATOM     39  N   UNL     1      17.400  25.589  10.477  0.00  0.00    -0.263 NA
ATOM     40  C   UNL     1      18.032  24.668   9.629  0.00  0.00    +0.111 A 
ENDBRANCH   4   3
ENDBRANCH  10   9
BRANCH  12  13
ATOM     13  N   UNL     1      26.061  29.107  16.916  0.00  0.00    -0.281 N 
ATOM     14  C   UNL     1      27.133  28.353  16.469  0.00  0.00    +0.248 C 
ATOM     30  O   UNL     1      27.148  27.132  16.423  0.00  0.00    -0.270 OA
ATOM     31  H   UNL     1      26.248  30.095  17.087  0.00  0.00    +0.155 HD
BRANCH  14  15
ATOM     15  C   UNL     1      28.375  29.056  16.022  0.00  0.00    +0.037 A 
ATOM     16  C   UNL     1      29.593  29.038  16.836  0.00  0.00    +0.013 A 
ATOM     17  C   UNL     1      30.771  29.739  16.390  0.00  0.00    +0.005 A 
ATOM     18  C   UNL     1      30.736  30.462  15.122  0.00  0.00    -0.033 A 
ATOM     28  C   UNL     1      29.516  30.459  14.331  0.00  0.00    +0.005 A 
ATOM     29  C   UNL     1      28.359  29.774  14.766  0.00  0.00    +0.013 A 
BRANCH  18  19
ATOM     19  C   UNL     1      31.940  31.255  14.578  0.00  0.00    +0.119 C 
BRANCH  19  20
ATOM     20  N   UNL     1      33.026  30.477  13.911  0.00  0.00    -0.302 NA
ATOM     21  C   UNL     1      32.525  29.132  13.378  0.00  0.00    +0.066 C 
ATOM     22  C   UNL     1      33.669  28.341  12.664  0.00  0.00    -0.064 C 
ATOM     23  N   UNL     1      34.831  28.139  13.638  0.00  0.00    +0.379 N 
ATOM     24  C   UNL     1      35.884  27.346  12.987  0.00  0.00    -0.096 C 
ATOM     25  H   UNL     1      34.448  27.549  14.503  0.00  0.00    -0.082 HD
ATOM     26  C   UNL     1      35.333  29.472  14.174  0.00  0.00    -0.064 C 
ATOM     27  C   UNL     1      34.182  30.263  14.856  0.00  0.00    +0.066 C 
ENDBRANCH  19  20
ENDBRANCH  18  19
ENDBRANCH  14  15
ENDBRANCH  12  13
TORSDOF 6
ENDMDL
MODEL 3
REMARK VINA RESULT:      -7.2     16.434     22.659
REMARK  Name = C:\Users\Docking\Desktop\test protocol\1iep_ligandH.pdb
REMARK  8 active torsions:
REMARK  status: ('A' for Active; 'I' for Inactive)
REMARK    1  A    between atoms: _5  and  _11
REMARK    2  A    between atoms: _19  and  _21
REMARK    3  A    between atoms: _22  and  _66
REMARK    4  A    between atoms: _27  and  _30
REMARK    5  A    between atoms: _32  and  _33
REMARK    6  A    between atoms: _38  and  _43
REMARK    7  A    between atoms: _43  and  _46
REMARK    8  A    between atoms: _53  and  _55
REMARK                            x       y       z     vdW  Elec       q    Type
REMARK                         _______ _______ _______ _____ _____    ______ ____
ROOT
ATOM     10  C   UNL     1      24.403  28.783  15.788  0.00  0.00    +0.038 A 
ATOM     11  C   UNL     1      23.631  28.257  14.721  0.00  0.00    +0.047 A 
ATOM     12  C   UNL     1      22.319  27.673  14.957  0.00  0.00    +0.035 A 
ATOM     32  C   UNL     1      21.823  27.645  16.293  0.00  0.00    +0.024 A 
ATOM     33  C   UNL     1      22.595  28.175  17.390  0.00  0.00    +0.007 A 
ATOM     34  C   UNL     1      23.890  28.749  17.163  0.00  0.00    -0.029 A 
ATOM     35  C   UNL     1      24.676  29.296  18.377  0.00  0.00    +0.045 C 
ENDROOT
BRANCH  10   9
ATOM      4  C   UNL     1      29.124  28.382  15.021  0.00  0.00    +0.077 A 
ATOM      5  C   UNL     1      29.097  26.963  15.231  0.00  0.00    +0.048 A 
ATOM      6  C   UNL     1      27.850  26.377  15.541  0.00  0.00    +0.116 A 
ATOM      7  N   UNL     1      26.720  27.160  15.632  0.00  0.00    -0.223 NA
ATOM      8  C   UNL     1      26.780  28.526  15.425  0.00  0.00    +0.220 A 
ATOM      9  N   UNL     1      25.655  29.332  15.504  0.00  0.00    -0.283 N 
ATOM     36  H   UNL     1      25.743  30.336  15.352  0.00  0.00    +0.155 HD
ATOM     37  N   UNL     1      27.960  29.111  15.130  0.00  0.00    -0.214 NA
BRANCH   4   3
ATOM      1  C   UNL     1      31.787  31.232  14.720  0.00  0.00    +0.020 A 
ATOM      2  C   UNL     1      30.569  30.538  15.072  0.00  0.00    +0.013 A 
ATOM      3  C   UNL     1      30.365  29.148  14.683  0.00  0.00    +0.019 A 
ATOM     38  C   UNL     1      31.421  28.483  13.935  0.00  0.00    +0.120 A 
ATOM     39  N   UNL     1      32.583  29.177  13.610  0.00  0.00    -0.263 NA
ATOM     40  C   UNL     1      32.790  30.515  13.977  0.00  0.00    +0.111 A 
ENDBRANCH   4   3
ENDBRANCH  10   9
BRANCH  12  13
ATOM     13  N   UNL     1      21.494  27.116  13.914  0.00  0.00    -0.281 N 
ATOM     14  C   UNL     1      21.031  27.742  12.769  0.00  0.00    +0.248 C 
ATOM     30  O   UNL     1      21.080  28.947  12.572  0.00  0.00    -0.270 OA
ATOM     31  H   UNL     1      21.217  26.141  14.036  0.00  0.00    +0.155 HD
BRANCH  14  15
ATOM     15  C   UNL     1      20.410  26.911  11.693  0.00  0.00    +0.037 A 
ATOM     16  C   UNL     1      19.444  25.856  12.009  0.00  0.00    +0.013 A 
ATOM     17  C   UNL     1      18.873  25.057  10.954  0.00  0.00    +0.005 A 
ATOM     18  C   UNL     1      19.266  25.313   9.570  0.00  0.00    -0.033 A 
ATOM     28  C   UNL     1      20.223  26.369   9.284  0.00  0.00    +0.005 A 
ATOM     29  C   UNL     1      20.785  27.153  10.316  0.00  0.00    +0.013 A 
BRANCH  18  19
ATOM     19  C   UNL     1      18.724  24.496   8.382  0.00  0.00    +0.119 C 
BRANCH  19  20
ATOM     20  N   UNL     1      19.714  23.723   7.574  0.00  0.00    -0.302 NA
ATOM     21  C   UNL     1      19.715  24.151   6.104  0.00  0.00    +0.066 C 
ATOM     22  C   UNL     1      20.772  23.348   5.278  0.00  0.00    -0.064 C 
ATOM     23  N   UNL     1      20.487  21.851   5.407  0.00  0.00    +0.379 N 
ATOM     24  C   UNL     1      21.444  21.096   4.586  0.00  0.00    -0.096 C 
ATOM     25  H   UNL     1      19.468  21.665   4.996  0.00  0.00    -0.082 HD
ATOM     26  C   UNL     1      20.482  21.418   6.867  0.00  0.00    -0.064 C 
ATOM     27  C   UNL     1      19.448  22.242   7.684  0.00  0.00    +0.066 C 
ENDBRANCH  19  20
ENDBRANCH  18  19
ENDBRANCH  14  15
ENDBRANCH  12  13
TORSDOF 6
ENDMDL
