MODEL 1
REMARK VINA RESULT:     -11.6      0.000      0.000
REMARK  Name = C:\Users\Docking\Desktop\test protocol\1iep_ligandH.pdb
REMARK  8 active torsions:
REMARK  status: ('A' for Active; 'I' for Inactive)
REMARK    1  A    between atoms: _5  and  _11
REMARK    2  A    between atoms: _19  and  _21
REMARK    3  A    between atoms: _22  and  _66
REMARK    4  A    between atoms: _27  and  _30
REMARK    5  A    between atoms: _32  and  _33
REMARK    6  A    between atoms: _38  and  _43
REMARK    7  A    between atoms: _43  and  _46
REMARK    8  A    between atoms: _53  and  _55
REMARK                            x       y       z     vdW  Elec       q    Type
REMARK                         _______ _______ _______ _____ _____    ______ ____
ROOT
ATOM     10  C   UNL     1      17.658  -4.871   2.157  0.00  0.00    +0.038 A 
ATOM     11  C   UNL     1      16.903  -3.874   1.489  0.00  0.00    +0.047 A 
ATOM     12  C   UNL     1      17.556  -2.802   0.753  0.00  0.00    +0.035 A 
ATOM     32  C   UNL     1      18.981  -2.778   0.718  0.00  0.00    +0.024 A 
ATOM     33  C   UNL     1      19.764  -3.783   1.393  0.00  0.00    +0.007 A 
ATOM     34  C   UNL     1      19.125  -4.841   2.121  0.00  0.00    -0.029 A 
ATOM     35  C   UNL     1      20.015  -5.888   2.831  0.00  0.00    +0.045 C 
ENDROOT
BRANCH  10   9
ATOM      4  C   UNL     1      16.033  -9.369   2.566  0.00  0.00    +0.077 A 
ATOM      5  C   UNL     1      16.558  -9.738   1.283  0.00  0.00    +0.048 A 
ATOM      6  C   UNL     1      17.233  -8.739   0.547  0.00  0.00    +0.116 A 
ATOM      7  N   UNL     1      17.368  -7.469   1.064  0.00  0.00    -0.223 NA
ATOM      8  C   UNL     1      16.848  -7.146   2.304  0.00  0.00    +0.220 A 
ATOM      9  N   UNL     1      16.979  -5.877   2.848  0.00  0.00    -0.283 N 
ATOM     36  H   UNL     1      16.575  -5.676   3.763  0.00  0.00    +0.155 HD
ATOM     37  N   UNL     1      16.198  -8.081   3.027  0.00  0.00    -0.214 NA
BRANCH   4   3
ATOM      1  C   UNL     1      13.570 -12.100   3.897  0.00  0.00    +0.020 A 
ATOM      2  C   UNL     1      14.249 -11.207   2.988  0.00  0.00    +0.013 A 
ATOM      3  C   UNL     1      15.297 -10.313   3.465  0.00  0.00    +0.019 A 
ATOM     38  C   UNL     1      15.637 -10.350   4.879  0.00  0.00    +0.120 A 
ATOM     39  N   UNL     1      14.965 -11.220   5.732  0.00  0.00    -0.263 NA
ATOM     40  C   UNL     1      13.954 -12.083   5.285  0.00  0.00    +0.111 A 
ENDBRANCH   4   3
ENDBRANCH  10   9
BRANCH  12  13
ATOM     13  N   UNL     1      16.842  -1.757   0.062  0.00  0.00    -0.281 N 
ATOM     14  C   UNL     1      16.516  -0.495   0.530  0.00  0.00    +0.248 C 
ATOM     30  O   UNL     1      16.604  -0.147   1.698  0.00  0.00    -0.270 OA
ATOM     31  H   UNL     1      16.540  -1.975  -0.888  0.00  0.00    +0.155 HD
BRANCH  14  15
ATOM     15  C   UNL     1      16.006   0.524  -0.437  0.00  0.00    +0.037 A 
ATOM     16  C   UNL     1      16.889   1.136  -1.433  0.00  0.00    +0.013 A 
ATOM     17  C   UNL     1      16.374   2.129  -2.342  0.00  0.00    +0.005 A 
ATOM     18  C   UNL     1      14.968   2.515  -2.261  0.00  0.00    -0.033 A 
ATOM     28  C   UNL     1      14.113   1.888  -1.267  0.00  0.00    +0.005 A 
ATOM     29  C   UNL     1      14.613   0.915  -0.373  0.00  0.00    +0.013 A 
BRANCH  18  19
ATOM     19  C   UNL     1      14.338   3.581  -3.177  0.00  0.00    +0.119 C 
BRANCH  19  20
ATOM     20  N   UNL     1      14.519   3.410  -4.650  0.00  0.00    -0.302 NA
ATOM     21  C   UNL     1      14.327   4.726  -5.409  0.00  0.00    +0.066 C 
ATOM     22  C   UNL     1      14.542   4.533  -6.945  0.00  0.00    -0.064 C 
ATOM     23  N   UNL     1      13.578   3.464  -7.462  0.00  0.00    +0.379 N 
ATOM     24  C   UNL     1      13.738   3.322  -8.917  0.00  0.00    -0.096 C 
ATOM     25  H   UNL     1      12.540   3.823  -7.269  0.00  0.00    -0.082 HD
ATOM     26  C   UNL     1      13.761   2.153  -6.711  0.00  0.00    -0.064 C 
ATOM     27  C   UNL     1      13.574   2.361  -5.182  0.00  0.00    +0.066 C 
ENDBRANCH  19  20
ENDBRANCH  18  19
ENDBRANCH  14  15
ENDBRANCH  12  13
TORSDOF 6
ENDMDL
MODEL 2
REMARK VINA RESULT:     -10.6      2.792      5.312
REMARK  Name = C:\Users\Docking\Desktop\test protocol\1iep_ligandH.pdb
REMARK  8 active torsions:
REMARK  status: ('A' for Active; 'I' for Inactive)
REMARK    1  A    between atoms: _5  and  _11
REMARK    2  A    between atoms: _19  and  _21
REMARK    3  A    between atoms: _22  and  _66
REMARK    4  A    between atoms: _27  and  _30
REMARK    5  A    between atoms: _32  and  _33
REMARK    6  A    between atoms: _38  and  _43
REMARK    7  A    between atoms: _43  and  _46
REMARK    8  A    between atoms: _53  and  _55
REMARK                            x       y       z     vdW  Elec       q    Type
REMARK                         _______ _______ _______ _____ _____    ______ ____
ROOT
ATOM     10  C   UNL     1      14.254  -1.317   1.038  0.00  0.00    +0.038 A 
ATOM     11  C   UNL     1      14.589  -0.677  -0.182  0.00  0.00    +0.047 A 
ATOM     12  C   UNL     1      14.067   0.641  -0.510  0.00  0.00    +0.035 A 
ATOM     32  C   UNL     1      13.208   1.279   0.431  0.00  0.00    +0.024 A 
ATOM     33  C   UNL     1      12.855   0.643   1.676  0.00  0.00    +0.007 A 
ATOM     34  C   UNL     1      13.365  -0.658   2.003  0.00  0.00    -0.029 A 
ATOM     35  C   UNL     1      12.949  -1.295   3.349  0.00  0.00    +0.045 C 
ENDROOT
BRANCH  10   9
ATOM      4  C   UNL     1      17.805  -4.200   2.492  0.00  0.00    +0.077 A 
ATOM      5  C   UNL     1      18.689  -3.093   2.721  0.00  0.00    +0.048 A 
ATOM      6  C   UNL     1      18.194  -1.799   2.446  0.00  0.00    +0.116 A 
ATOM      7  N   UNL     1      16.908  -1.635   1.977  0.00  0.00    -0.223 NA
ATOM      8  C   UNL     1      16.082  -2.724   1.765  0.00  0.00    +0.220 A 
ATOM      9  N   UNL     1      14.784  -2.582   1.301  0.00  0.00    -0.283 N 
ATOM     36  H   UNL     1      14.209  -3.411   1.151  0.00  0.00    +0.155 HD
ATOM     37  N   UNL     1      16.533  -3.970   2.019  0.00  0.00    -0.214 NA
BRANCH   4   3
ATOM      1  C   UNL     1      17.615  -8.043   3.193  0.00  0.00    +0.020 A 
ATOM      2  C   UNL     1      17.198  -6.680   2.959  0.00  0.00    +0.013 A 
ATOM      3  C   UNL     1      18.182  -5.627   2.738  0.00  0.00    +0.019 A 
ATOM     38  C   UNL     1      19.591  -5.991   2.759  0.00  0.00    +0.120 A 
ATOM     39  N   UNL     1      19.962  -7.313   2.988  0.00  0.00    -0.263 NA
ATOM     40  C   UNL     1      19.024  -8.333   3.203  0.00  0.00    +0.111 A 
ENDBRANCH   4   3
ENDBRANCH  10   9
BRANCH  12  13
ATOM     13  N   UNL     1      14.367   1.336  -1.737  0.00  0.00    -0.281 N 
ATOM     14  C   UNL     1      15.583   1.860  -2.144  0.00  0.00    +0.248 C 
ATOM     30  O   UNL     1      16.554   1.998  -1.416  0.00  0.00    -0.270 OA
ATOM     31  H   UNL     1      13.587   1.456  -2.384  0.00  0.00    +0.155 HD
BRANCH  14  15
ATOM     15  C   UNL     1      15.738   2.309  -3.561  0.00  0.00    +0.037 A 
ATOM     16  C   UNL     1      16.975   2.061  -4.306  0.00  0.00    +0.013 A 
ATOM     17  C   UNL     1      17.104   2.519  -5.666  0.00  0.00    +0.005 A 
ATOM     18  C   UNL     1      15.991   3.229  -6.292  0.00  0.00    -0.033 A 
ATOM     28  C   UNL     1      14.773   3.457  -5.532  0.00  0.00    +0.005 A 
ATOM     29  C   UNL     1      14.643   3.010  -4.198  0.00  0.00    +0.013 A 
BRANCH  18  19
ATOM     19  C   UNL     1      16.049   3.773  -7.732  0.00  0.00    +0.119 C 
BRANCH  19  20
ATOM     20  N   UNL     1      14.794   4.353  -8.295  0.00  0.00    -0.302 NA
ATOM     21  C   UNL     1      14.596   3.977  -9.766  0.00  0.00    +0.066 C 
ATOM     22  C   UNL     1      13.267   4.574 -10.332  0.00  0.00    -0.064 C 
ATOM     23  N   UNL     1      13.279   6.094 -10.159  0.00  0.00    +0.379 N 
ATOM     24  C   UNL     1      12.056   6.664 -10.743  0.00  0.00    -0.096 C 
ATOM     25  H   UNL     1      14.147   6.493 -10.734  0.00  0.00    -0.082 HD
ATOM     26  C   UNL     1      13.478   6.477  -8.699  0.00  0.00    -0.064 C 
ATOM     27  C   UNL     1      14.787   5.854  -8.138  0.00  0.00    +0.066 C 
ENDBRANCH  19  20
ENDBRANCH  18  19
ENDBRANCH  14  15
ENDBRANCH  12  13
TORSDOF 6
ENDMDL
MODEL 3
REMARK VINA RESULT:     -10.6      7.170     12.221
REMARK  Name = C:\Users\Docking\Desktop\test protocol\1iep_ligandH.pdb
REMARK  8 active torsions:
REMARK  status: ('A' for Active; 'I' for Inactive)
REMARK    1  A    between atoms: _5  and  _11
REMARK    2  A    between atoms: _19  and  _21
REMARK    3  A    between atoms: _22  and  _66
REMARK    4  A    between atoms: _27  and  _30
REMARK    5  A    between atoms: _32  and  _33
REMARK    6  A    between atoms: _38  and  _43
REMARK    7  A    between atoms: _43  and  _46
REMARK    8  A    between atoms: _53  and  _55
REMARK                            x       y       z     vdW  Elec       q    Type
REMARK                         _______ _______ _______ _____ _____    ______ ____
ROOT
ATOM     10  C   UNL     1      13.500   2.457  -6.202  0.00  0.00    +0.038 A 
ATOM     11  C   UNL     1      13.541   3.806  -6.638  0.00  0.00    +0.047 A 
ATOM     12  C   UNL     1      13.294   4.155  -8.028  0.00  0.00    +0.035 A 
ATOM     32  C   UNL     1      13.006   3.105  -8.947  0.00  0.00    +0.024 A 
ATOM     33  C   UNL     1      12.961   1.728  -8.521  0.00  0.00    +0.007 A 
ATOM     34  C   UNL     1      13.207   1.378  -7.152  0.00  0.00    -0.029 A 
ATOM     35  C   UNL     1      13.152  -0.115  -6.752  0.00  0.00    +0.045 C 
ENDROOT
BRANCH  10   9
ATOM      4  C   UNL     1      16.470   1.649  -2.519  0.00  0.00    +0.077 A 
ATOM      5  C   UNL     1      17.631   1.764  -3.353  0.00  0.00    +0.048 A 
ATOM      6  C   UNL     1      17.421   2.024  -4.726  0.00  0.00    +0.116 A 
ATOM      7  N   UNL     1      16.140   2.158  -5.216  0.00  0.00    -0.223 NA
ATOM      8  C   UNL     1      15.042   2.040  -4.385  0.00  0.00    +0.220 A 
ATOM      9  N   UNL     1      13.745   2.179  -4.855  0.00  0.00    -0.283 N 
ATOM     36  H   UNL     1      12.962   2.078  -4.211  0.00  0.00    +0.155 HD
ATOM     37  N   UNL     1      15.216   1.790  -3.070  0.00  0.00    -0.214 NA
BRANCH   4   3
ATOM      1  C   UNL     1      17.142  -0.048   0.941  0.00  0.00    +0.020 A 
ATOM      2  C   UNL     1      17.109   0.164  -0.487  0.00  0.00    +0.013 A 
ATOM      3  C   UNL     1      16.529   1.378  -1.047  0.00  0.00    +0.019 A 
ATOM     38  C   UNL     1      15.987   2.366  -0.127  0.00  0.00    +0.120 A 
ATOM     39  N   UNL     1      16.031   2.134   1.244  0.00  0.00    -0.263 NA
ATOM     40  C   UNL     1      16.585   0.969   1.795  0.00  0.00    +0.111 A 
ENDBRANCH   4   3
ENDBRANCH  10   9
BRANCH  12  13
ATOM     13  N   UNL     1      13.330   5.506  -8.531  0.00  0.00    -0.281 N 
ATOM     14  C   UNL     1      12.726   6.007  -9.672  0.00  0.00    +0.248 C 
ATOM     30  O   UNL     1      12.236   5.317 -10.554  0.00  0.00    -0.270 OA
ATOM     31  H   UNL     1      13.867   6.175  -7.978  0.00  0.00    +0.155 HD
BRANCH  14  15
ATOM     15  C   UNL     1      12.670   7.487  -9.870  0.00  0.00    +0.037 A 
ATOM     16  C   UNL     1      12.425   8.395  -8.747  0.00  0.00    +0.013 A 
ATOM     17  C   UNL     1      12.359   9.818  -8.969  0.00  0.00    +0.005 A 
ATOM     18  C   UNL     1      12.541  10.342 -10.320  0.00  0.00    -0.033 A 
ATOM     28  C   UNL     1      12.789   9.419 -11.415  0.00  0.00    +0.005 A 
ATOM     29  C   UNL     1      12.853   8.023 -11.202  0.00  0.00    +0.013 A 
BRANCH  18  19
ATOM     19  C   UNL     1      12.467  11.844 -10.652  0.00  0.00    +0.119 C 
BRANCH  19  20
ATOM     20  N   UNL     1      13.530  12.724 -10.083  0.00  0.00    -0.302 NA
ATOM     21  C   UNL     1      13.300  14.199 -10.425  0.00  0.00    +0.066 C 
ATOM     22  C   UNL     1      14.410  15.107  -9.803  0.00  0.00    -0.064 C 
ATOM     23  N   UNL     1      15.781  14.644 -10.297  0.00  0.00    +0.379 N 
ATOM     24  C   UNL     1      16.822  15.533  -9.760  0.00  0.00    -0.096 C 
ATOM     25  H   UNL     1      15.791  14.744 -11.408  0.00  0.00    -0.082 HD
ATOM     26  C   UNL     1      16.017  13.178  -9.963  0.00  0.00    -0.064 C 
ATOM     27  C   UNL     1      14.893  12.287 -10.562  0.00  0.00    +0.066 C 
ENDBRANCH  19  20
ENDBRANCH  18  19
ENDBRANCH  14  15
ENDBRANCH  12  13
TORSDOF 6
ENDMDL
