MODEL 1
REMARK VINA RESULT:      -8.4      0.000      0.000
REMARK  Name = C:\Users\Docking\Desktop\test protocol\1iep_ligandH.pdb
REMARK  8 active torsions:
REMARK  status: ('A' for Active; 'I' for Inactive)
REMARK    1  A    between atoms: _5  and  _11
REMARK    2  A    between atoms: _19  and  _21
REMARK    3  A    between atoms: _22  and  _66
REMARK    4  A    between atoms: _27  and  _30
REMARK    5  A    between atoms: _32  and  _33
REMARK    6  A    between atoms: _38  and  _43
REMARK    7  A    between atoms: _43  and  _46
REMARK    8  A    between atoms: _53  and  _55
REMARK                            x       y       z     vdW  Elec       q    Type
REMARK                         _______ _______ _______ _____ _____    ______ ____
ROOT
ATOM     10  C   UNL     1      20.588   3.816  76.044  0.00  0.00    +0.038 A 
ATOM     11  C   UNL     1      20.992   3.734  77.401  0.00  0.00    +0.047 A 
ATOM     12  C   UNL     1      20.729   2.544  78.195  0.00  0.00    +0.035 A 
ATOM     32  C   UNL     1      20.054   1.453  77.573  0.00  0.00    +0.024 A 
ATOM     33  C   UNL     1      19.634   1.519  76.195  0.00  0.00    +0.007 A 
ATOM     34  C   UNL     1      19.889   2.692  75.408  0.00  0.00    -0.029 A 
ATOM     35  C   UNL     1      19.411   2.710  73.938  0.00  0.00    +0.045 C 
ENDROOT
BRANCH  10   9
ATOM      4  C   UNL     1      23.197   6.330  72.896  0.00  0.00    +0.077 A 
ATOM      5  C   UNL     1      24.097   5.235  72.678  0.00  0.00    +0.048 A 
ATOM      6  C   UNL     1      23.858   4.044  73.401  0.00  0.00    +0.116 A 
ATOM      7  N   UNL     1      22.795   3.966  74.274  0.00  0.00    -0.223 NA
ATOM      8  C   UNL     1      21.946   5.042  74.462  0.00  0.00    +0.220 A 
ATOM      9  N   UNL     1      20.866   4.983  75.329  0.00  0.00    -0.283 N 
ATOM     36  H   UNL     1      20.268   5.800  75.446  0.00  0.00    +0.155 HD
ATOM     37  N   UNL     1      22.154   6.190  73.785  0.00  0.00    -0.214 NA
BRANCH   4   3
ATOM      1  C   UNL     1      22.478   9.964  71.641  0.00  0.00    +0.020 A 
ATOM      2  C   UNL     1      22.315   8.705  72.330  0.00  0.00    +0.013 A 
ATOM      3  C   UNL     1      23.316   7.652  72.205  0.00  0.00    +0.019 A 
ATOM     38  C   UNL     1      24.479   7.908  71.369  0.00  0.00    +0.120 A 
ATOM     39  N   UNL     1      24.608   9.130  70.716  0.00  0.00    -0.263 NA
ATOM     40  C   UNL     1      23.651  10.150  70.828  0.00  0.00    +0.111 A 
ENDBRANCH   4   3
ENDBRANCH  10   9
BRANCH  12  13
ATOM     13  N   UNL     1      21.109   2.407  79.579  0.00  0.00    -0.281 N 
ATOM     14  C   UNL     1      20.309   2.553  80.700  0.00  0.00    +0.248 C 
ATOM     30  O   UNL     1      19.186   3.036  80.690  0.00  0.00    -0.270 OA
ATOM     31  H   UNL     1      22.087   2.174  79.753  0.00  0.00    +0.155 HD
BRANCH  14  15
ATOM     15  C   UNL     1      20.837   2.112  82.027  0.00  0.00    +0.037 A 
ATOM     16  C   UNL     1      21.117   0.700  82.302  0.00  0.00    +0.013 A 
ATOM     17  C   UNL     1      21.610   0.300  83.596  0.00  0.00    +0.005 A 
ATOM     18  C   UNL     1      21.827   1.314  84.625  0.00  0.00    -0.033 A 
ATOM     28  C   UNL     1      21.546   2.708  84.323  0.00  0.00    +0.005 A 
ATOM     29  C   UNL     1      21.062   3.104  83.057  0.00  0.00    +0.013 A 
BRANCH  18  19
ATOM     19  C   UNL     1      22.331   0.975  86.040  0.00  0.00    +0.119 C 
BRANCH  19  20
ATOM     20  N   UNL     1      23.170   1.999  86.731  0.00  0.00    -0.302 NA
ATOM     21  C   UNL     1      24.540   1.443  87.132  0.00  0.00    +0.066 C 
ATOM     22  C   UNL     1      25.413   2.534  87.833  0.00  0.00    -0.064 C 
ATOM     23  N   UNL     1      24.668   3.072  89.056  0.00  0.00    +0.379 N 
ATOM     24  C   UNL     1      25.511   4.056  89.751  0.00  0.00    -0.096 C 
ATOM     25  H   UNL     1      24.501   2.217  89.752  0.00  0.00    -0.082 HD
ATOM     26  C   UNL     1      23.304   3.623  88.667  0.00  0.00    -0.064 C 
ATOM     27  C   UNL     1      22.455   2.540  87.945  0.00  0.00    +0.066 C 
ENDBRANCH  19  20
ENDBRANCH  18  19
ENDBRANCH  14  15
ENDBRANCH  12  13
TORSDOF 6
ENDMDL
MODEL 2
REMARK VINA RESULT:      -8.3      5.972     11.056
REMARK  Name = C:\Users\Docking\Desktop\test protocol\1iep_ligandH.pdb
REMARK  8 active torsions:
REMARK  status: ('A' for Active; 'I' for Inactive)
REMARK    1  A    between atoms: _5  and  _11
REMARK    2  A    between atoms: _19  and  _21
REMARK    3  A    between atoms: _22  and  _66
REMARK    4  A    between atoms: _27  and  _30
REMARK    5  A    between atoms: _32  and  _33
REMARK    6  A    between atoms: _38  and  _43
REMARK    7  A    between atoms: _43  and  _46
REMARK    8  A    between atoms: _53  and  _55
REMARK                            x       y       z     vdW  Elec       q    Type
REMARK                         _______ _______ _______ _____ _____    ______ ____
ROOT
ATOM     10  C   UNL     1      20.469   3.313  76.185  0.00  0.00    +0.038 A 
ATOM     11  C   UNL     1      19.179   2.881  75.782  0.00  0.00    +0.047 A 
ATOM     12  C   UNL     1      18.678   1.565  76.145  0.00  0.00    +0.035 A 
ATOM     32  C   UNL     1      19.517   0.713  76.921  0.00  0.00    +0.024 A 
ATOM     33  C   UNL     1      20.831   1.135  77.339  0.00  0.00    +0.007 A 
ATOM     34  C   UNL     1      21.332   2.432  76.982  0.00  0.00    -0.029 A 
ATOM     35  C   UNL     1      22.751   2.828  77.451  0.00  0.00    +0.045 C 
ENDROOT
BRANCH  10   9
ATOM      4  C   UNL     1      23.054   6.262  73.419  0.00  0.00    +0.077 A 
ATOM      5  C   UNL     1      23.616   5.170  72.677  0.00  0.00    +0.048 A 
ATOM      6  C   UNL     1      23.219   3.864  73.044  0.00  0.00    +0.116 A 
ATOM      7  N   UNL     1      22.326   3.677  74.077  0.00  0.00    -0.223 NA
ATOM      8  C   UNL     1      21.805   4.752  74.772  0.00  0.00    +0.220 A 
ATOM      9  N   UNL     1      20.899   4.587  75.809  0.00  0.00    -0.283 N 
ATOM     36  H   UNL     1      20.543   5.405  76.303  0.00  0.00    +0.155 HD
ATOM     37  N   UNL     1      22.169   6.009  74.443  0.00  0.00    -0.214 NA
BRANCH   4   3
ATOM      1  C   UNL     1      22.821   9.973  72.205  0.00  0.00    +0.020 A 
ATOM      2  C   UNL     1      22.465   8.593  72.440  0.00  0.00    +0.013 A 
ATOM      3  C   UNL     1      23.373   7.700  73.148  0.00  0.00    +0.019 A 
ATOM     38  C   UNL     1      24.643   8.239  73.610  0.00  0.00    +0.120 A 
ATOM     39  N   UNL     1      24.959   9.572  73.368  0.00  0.00    -0.263 NA
ATOM     40  C   UNL     1      24.094  10.441  72.686  0.00  0.00    +0.111 A 
ENDBRANCH   4   3
ENDBRANCH  10   9
BRANCH  12  13
ATOM     13  N   UNL     1      17.381   1.069  75.757  0.00  0.00    -0.281 N 
ATOM     14  C   UNL     1      16.173   1.242  76.413  0.00  0.00    +0.248 C 
ATOM     30  O   UNL     1      16.059   1.672  77.551  0.00  0.00    -0.270 OA
ATOM     31  H   UNL     1      17.349   0.525  74.895  0.00  0.00    +0.155 HD
BRANCH  14  15
ATOM     15  C   UNL     1      14.909   0.871  75.707  0.00  0.00    +0.037 A 
ATOM     16  C   UNL     1      13.805   0.220  76.417  0.00  0.00    +0.013 A 
ATOM     17  C   UNL     1      12.603  -0.143  75.708  0.00  0.00    +0.005 A 
ATOM     18  C   UNL     1      12.499   0.146  74.280  0.00  0.00    -0.033 A 
ATOM     28  C   UNL     1      13.607   0.798  73.602  0.00  0.00    +0.005 A 
ATOM     29  C   UNL     1      14.787   1.154  74.293  0.00  0.00    +0.013 A 
BRANCH  18  19
ATOM     19  C   UNL     1      11.263  -0.225  73.440  0.00  0.00    +0.119 C 
BRANCH  19  20
ATOM     20  N   UNL     1      11.416  -1.333  72.450  0.00  0.00    -0.302 NA
ATOM     21  C   UNL     1      12.707  -2.126  72.671  0.00  0.00    +0.066 C 
ATOM     22  C   UNL     1      12.840  -3.295  71.642  0.00  0.00    -0.064 C 
ATOM     23  N   UNL     1      12.789  -2.728  70.222  0.00  0.00    +0.379 N 
ATOM     24  C   UNL     1      12.972  -3.818  69.252  0.00  0.00    -0.096 C 
ATOM     25  H   UNL     1      13.646  -2.025  70.107  0.00  0.00    -0.082 HD
ATOM     26  C   UNL     1      11.509  -1.936  69.994  0.00  0.00    -0.064 C 
ATOM     27  C   UNL     1      11.372  -0.795  71.041  0.00  0.00    +0.066 C 
ENDBRANCH  19  20
ENDBRANCH  18  19
ENDBRANCH  14  15
ENDBRANCH  12  13
TORSDOF 6
ENDMDL
MODEL 3
REMARK VINA RESULT:      -8.2     23.973     30.045
REMARK  Name = C:\Users\Docking\Desktop\test protocol\1iep_ligandH.pdb
REMARK  8 active torsions:
REMARK  status: ('A' for Active; 'I' for Inactive)
REMARK    1  A    between atoms: _5  and  _11
REMARK    2  A    between atoms: _19  and  _21
REMARK    3  A    between atoms: _22  and  _66
REMARK    4  A    between atoms: _27  and  _30
REMARK    5  A    between atoms: _32  and  _33
REMARK    6  A    between atoms: _38  and  _43
REMARK    7  A    between atoms: _43  and  _46
REMARK    8  A    between atoms: _53  and  _55
REMARK                            x       y       z     vdW  Elec       q    Type
REMARK                         _______ _______ _______ _____ _____    ______ ____
ROOT
ATOM     10  C   UNL     1      12.710  19.711  52.030  0.00  0.00    +0.038 A 
ATOM     11  C   UNL     1      12.105  18.856  52.986  0.00  0.00    +0.047 A 
ATOM     12  C   UNL     1      10.786  18.287  52.758  0.00  0.00    +0.035 A 
ATOM     32  C   UNL     1      10.112  18.609  51.543  0.00  0.00    +0.024 A 
ATOM     33  C   UNL     1      10.712  19.477  50.561  0.00  0.00    +0.007 A 
ATOM     34  C   UNL     1      12.012  20.043  50.782  0.00  0.00    -0.029 A 
ATOM     35  C   UNL     1      12.604  20.973  49.698  0.00  0.00    +0.045 C 
ENDROOT
BRANCH  10   9
ATOM      4  C   UNL     1      15.639  22.770  54.288  0.00  0.00    +0.077 A 
ATOM      5  C   UNL     1      14.548  23.408  54.966  0.00  0.00    +0.048 A 
ATOM      6  C   UNL     1      13.247  22.923  54.701  0.00  0.00    +0.116 A 
ATOM      7  N   UNL     1      13.064  21.878  53.821  0.00  0.00    -0.223 NA
ATOM      8  C   UNL     1      14.139  21.287  53.183  0.00  0.00    +0.220 A 
ATOM      9  N   UNL     1      13.979  20.230  52.301  0.00  0.00    -0.283 N 
ATOM     36  H   UNL     1      14.796  19.826  51.844  0.00  0.00    +0.155 HD
ATOM     37  N   UNL     1      15.390  21.732  53.418  0.00  0.00    -0.214 NA
BRANCH   4   3
ATOM      1  C   UNL     1      19.473  22.669  55.061  0.00  0.00    +0.020 A 
ATOM      2  C   UNL     1      18.103  22.235  54.905  0.00  0.00    +0.013 A 
ATOM      3  C   UNL     1      17.072  23.167  54.467  0.00  0.00    +0.019 A 
ATOM     38  C   UNL     1      17.462  24.542  54.192  0.00  0.00    +0.120 A 
ATOM     39  N   UNL     1      18.788  24.931  54.353  0.00  0.00    -0.263 NA
ATOM     40  C   UNL     1      19.789  24.044  54.775  0.00  0.00    +0.111 A 
ENDBRANCH   4   3
ENDBRANCH  10   9
BRANCH  12  13
ATOM     13  N   UNL     1      10.117  17.419  53.695  0.00  0.00    -0.281 N 
ATOM     14  C   UNL     1      10.098  16.034  53.709  0.00  0.00    +0.248 C 
ATOM     30  O   UNL     1      10.478  15.329  52.786  0.00  0.00    -0.270 OA
ATOM     31  H   UNL     1       9.596  17.882  54.440  0.00  0.00    +0.155 HD
BRANCH  14  15
ATOM     15  C   UNL     1       9.565  15.331  54.915  0.00  0.00    +0.037 A 
ATOM     16  C   UNL     1       8.899  16.069  55.992  0.00  0.00    +0.013 A 
ATOM     17  C   UNL     1       8.410  15.368  57.153  0.00  0.00    +0.005 A 
ATOM     18  C   UNL     1       8.583  13.920  57.242  0.00  0.00    -0.033 A 
ATOM     28  C   UNL     1       9.242  13.213  56.156  0.00  0.00    +0.005 A 
ATOM     29  C   UNL     1       9.724  13.896  55.018  0.00  0.00    +0.013 A 
BRANCH  18  19
ATOM     19  C   UNL     1       8.111  13.094  58.453  0.00  0.00    +0.119 C 
BRANCH  19  20
ATOM     20  N   UNL     1       8.243  13.721  59.802  0.00  0.00    -0.302 NA
ATOM     21  C   UNL     1       9.632  13.496  60.406  0.00  0.00    +0.066 C 
ATOM     22  C   UNL     1       9.761  14.177  61.807  0.00  0.00    -0.064 C 
ATOM     23  N   UNL     1       8.673  13.637  62.736  0.00  0.00    +0.379 N 
ATOM     24  C   UNL     1       8.827  14.232  64.071  0.00  0.00    -0.096 C 
ATOM     25  H   UNL     1       8.829  12.537  62.835  0.00  0.00    -0.082 HD
ATOM     26  C   UNL     1       7.288  13.854  62.142  0.00  0.00    -0.064 C 
ATOM     27  C   UNL     1       7.181  13.198  60.737  0.00  0.00    +0.066 C 
ENDBRANCH  19  20
ENDBRANCH  18  19
ENDBRANCH  14  15
ENDBRANCH  12  13
TORSDOF 6
ENDMDL
