MODEL 1
REMARK VINA RESULT:      -8.6      0.000      0.000
REMARK  Name = C:\Users\Docking\Desktop\test protocol\1iep_ligandH.pdb
REMARK  8 active torsions:
REMARK  status: ('A' for Active; 'I' for Inactive)
REMARK    1  A    between atoms: _5  and  _11
REMARK    2  A    between atoms: _19  and  _21
REMARK    3  A    between atoms: _22  and  _66
REMARK    4  A    between atoms: _27  and  _30
REMARK    5  A    between atoms: _32  and  _33
REMARK    6  A    between atoms: _38  and  _43
REMARK    7  A    between atoms: _43  and  _46
REMARK    8  A    between atoms: _53  and  _55
REMARK                            x       y       z     vdW  Elec       q    Type
REMARK                         _______ _______ _______ _____ _____    ______ ____
ROOT
ATOM     10  C   UNL     1      18.033   2.695  12.197  0.00  0.00    +0.038 A 
ATOM     11  C   UNL     1      19.417   2.397  12.122  0.00  0.00    +0.047 A 
ATOM     12  C   UNL     1      20.023   1.407  13.000  0.00  0.00    +0.035 A 
ATOM     32  C   UNL     1      19.187   0.737  13.940  0.00  0.00    +0.024 A 
ATOM     33  C   UNL     1      17.778   1.029  14.031  0.00  0.00    +0.007 A 
ATOM     34  C   UNL     1      17.176   2.006  13.169  0.00  0.00    -0.029 A 
ATOM     35  C   UNL     1      15.661   2.283  13.315  0.00  0.00    +0.045 C 
ENDROOT
BRANCH  10   9
ATOM      4  C   UNL     1      16.494   7.137  11.230  0.00  0.00    +0.077 A 
ATOM      5  C   UNL     1      16.738   7.578  12.574  0.00  0.00    +0.048 A 
ATOM      6  C   UNL     1      17.253   6.628  13.484  0.00  0.00    +0.116 A 
ATOM      7  N   UNL     1      17.503   5.337  13.071  0.00  0.00    -0.223 NA
ATOM      8  C   UNL     1      17.254   4.945  11.769  0.00  0.00    +0.220 A 
ATOM      9  N   UNL     1      17.504   3.654  11.330  0.00  0.00    -0.283 N 
ATOM     36  H   UNL     1      17.301   3.402  10.363  0.00  0.00    +0.155 HD
ATOM     37  N   UNL     1      16.761   5.832  10.880  0.00  0.00    -0.214 NA
BRANCH   4   3
ATOM      1  C   UNL     1      15.830   8.812   7.759  0.00  0.00    +0.020 A 
ATOM      2  C   UNL     1      16.383   7.932   8.762  0.00  0.00    +0.013 A 
ATOM      3  C   UNL     1      15.954   8.024  10.152  0.00  0.00    +0.019 A 
ATOM     38  C   UNL     1      14.954   9.024  10.496  0.00  0.00    +0.120 A 
ATOM     39  N   UNL     1      14.440   9.859   9.508  0.00  0.00    -0.263 NA
ATOM     40  C   UNL     1      14.847   9.781   8.168  0.00  0.00    +0.111 A 
ENDBRANCH   4   3
ENDBRANCH  10   9
BRANCH  12  13
ATOM     13  N   UNL     1      21.424   1.069  12.975  0.00  0.00    -0.281 N 
ATOM     14  C   UNL     1      22.241   0.903  11.868  0.00  0.00    +0.248 C 
ATOM     30  O   UNL     1      21.837   0.810  10.719  0.00  0.00    -0.270 OA
ATOM     31  H   UNL     1      21.868   0.935  13.884  0.00  0.00    +0.155 HD
BRANCH  14  15
ATOM     15  C   UNL     1      23.719   0.812  12.069  0.00  0.00    +0.037 A 
ATOM     16  C   UNL     1      24.556  -0.012  11.193  0.00  0.00    +0.013 A 
ATOM     17  C   UNL     1      25.977  -0.095  11.419  0.00  0.00    +0.005 A 
ATOM     18  C   UNL     1      26.571   0.648  12.527  0.00  0.00    -0.033 A 
ATOM     28  C   UNL     1      25.718   1.462  13.378  0.00  0.00    +0.005 A 
ATOM     29  C   UNL     1      24.325   1.545  13.160  0.00  0.00    +0.013 A 
BRANCH  18  19
ATOM     19  C   UNL     1      28.075   0.601  12.856  0.00  0.00    +0.119 C 
BRANCH  19  20
ATOM     20  N   UNL     1      28.561  -0.554  13.668  0.00  0.00    -0.302 NA
ATOM     21  C   UNL     1      27.550  -0.969  14.740  0.00  0.00    +0.066 C 
ATOM     22  C   UNL     1      28.065  -2.193  15.565  0.00  0.00    -0.064 C 
ATOM     23  N   UNL     1      29.413  -1.846  16.199  0.00  0.00    +0.379 N 
ATOM     24  C   UNL     1      29.873  -2.974  17.023  0.00  0.00    -0.096 C 
ATOM     25  H   UNL     1      29.255  -0.975  16.876  0.00  0.00    -0.082 HD
ATOM     26  C   UNL     1      30.424  -1.430  15.140  0.00  0.00    -0.064 C 
ATOM     27  C   UNL     1      29.890  -0.232  14.306  0.00  0.00    +0.066 C 
ENDBRANCH  19  20
ENDBRANCH  18  19
ENDBRANCH  14  15
ENDBRANCH  12  13
TORSDOF 6
ENDMDL
MODEL 2
REMARK VINA RESULT:      -8.4      5.662     11.064
REMARK  Name = C:\Users\Docking\Desktop\test protocol\1iep_ligandH.pdb
REMARK  8 active torsions:
REMARK  status: ('A' for Active; 'I' for Inactive)
REMARK    1  A    between atoms: _5  and  _11
REMARK    2  A    between atoms: _19  and  _21
REMARK    3  A    between atoms: _22  and  _66
REMARK    4  A    between atoms: _27  and  _30
REMARK    5  A    between atoms: _32  and  _33
REMARK    6  A    between atoms: _38  and  _43
REMARK    7  A    between atoms: _43  and  _46
REMARK    8  A    between atoms: _53  and  _55
REMARK                            x       y       z     vdW  Elec       q    Type
REMARK                         _______ _______ _______ _____ _____    ______ ____
ROOT
ATOM     10  C   UNL     1      21.626   1.187  12.343  0.00  0.00    +0.038 A 
ATOM     11  C   UNL     1      21.112   2.067  13.329  0.00  0.00    +0.047 A 
ATOM     12  C   UNL     1      19.919   1.730  14.091  0.00  0.00    +0.035 A 
ATOM     32  C   UNL     1      19.276   0.486  13.824  0.00  0.00    +0.024 A 
ATOM     33  C   UNL     1      19.784  -0.420  12.824  0.00  0.00    +0.007 A 
ATOM     34  C   UNL     1      20.959  -0.092  12.068  0.00  0.00    -0.029 A 
ATOM     35  C   UNL     1      21.455  -1.098  11.004  0.00  0.00    +0.045 C 
ENDROOT
BRANCH  10   9
ATOM      4  C   UNL     1      23.820   3.076   8.516  0.00  0.00    +0.077 A 
ATOM      5  C   UNL     1      22.575   3.314   7.845  0.00  0.00    +0.048 A 
ATOM      6  C   UNL     1      21.393   2.929   8.516  0.00  0.00    +0.116 A 
ATOM      7  N   UNL     1      21.463   2.351   9.765  0.00  0.00    -0.223 NA
ATOM      8  C   UNL     1      22.680   2.134  10.383  0.00  0.00    +0.220 A 
ATOM      9  N   UNL     1      22.774   1.561  11.642  0.00  0.00    -0.283 N 
ATOM     36  H   UNL     1      23.692   1.411  12.061  0.00  0.00    +0.155 HD
ATOM     37  N   UNL     1      23.824   2.491   9.762  0.00  0.00    -0.214 NA
BRANCH   4   3
ATOM      1  C   UNL     1      26.814   3.532   6.040  0.00  0.00    +0.020 A 
ATOM      2  C   UNL     1      25.512   3.169   6.549  0.00  0.00    +0.013 A 
ATOM      3  C   UNL     1      25.155   3.431   7.937  0.00  0.00    +0.019 A 
ATOM     38  C   UNL     1      26.147   4.067   8.791  0.00  0.00    +0.120 A 
ATOM     39  N   UNL     1      27.394   4.404   8.274  0.00  0.00    -0.263 NA
ATOM     40  C   UNL     1      27.749   4.155   6.940  0.00  0.00    +0.111 A 
ENDBRANCH   4   3
ENDBRANCH  10   9
BRANCH  12  13
ATOM     13  N   UNL     1      19.346   2.587  15.099  0.00  0.00    -0.281 N 
ATOM     14  C   UNL     1      19.959   3.095  16.233  0.00  0.00    +0.248 C 
ATOM     30  O   UNL     1      21.036   2.714  16.666  0.00  0.00    -0.270 OA
ATOM     31  H   UNL     1      18.371   2.852  14.960  0.00  0.00    +0.155 HD
BRANCH  14  15
ATOM     15  C   UNL     1      19.269   4.173  17.005  0.00  0.00    +0.037 A 
ATOM     16  C   UNL     1      18.034   3.905  17.747  0.00  0.00    +0.013 A 
ATOM     17  C   UNL     1      17.379   4.966  18.469  0.00  0.00    +0.005 A 
ATOM     18  C   UNL     1      17.959   6.306  18.455  0.00  0.00    -0.033 A 
ATOM     28  C   UNL     1      19.188   6.544  17.715  0.00  0.00    +0.005 A 
ATOM     29  C   UNL     1      19.832   5.506  17.005  0.00  0.00    +0.013 A 
BRANCH  18  19
ATOM     19  C   UNL     1      17.317   7.504  19.180  0.00  0.00    +0.119 C 
BRANCH  19  20
ATOM     20  N   UNL     1      17.048   8.729  18.371  0.00  0.00    -0.302 NA
ATOM     21  C   UNL     1      16.791   9.955  19.252  0.00  0.00    +0.066 C 
ATOM     22  C   UNL     1      16.534  11.233  18.388  0.00  0.00    -0.064 C 
ATOM     23  N   UNL     1      15.350  10.982  17.452  0.00  0.00    +0.379 N 
ATOM     24  C   UNL     1      15.069  12.201  16.680  0.00  0.00    -0.096 C 
ATOM     25  H   UNL     1      14.458  10.769  18.085  0.00  0.00    -0.082 HD
ATOM     26  C   UNL     1      15.596   9.763  16.574  0.00  0.00    -0.064 C 
ATOM     27  C   UNL     1      15.880   8.505  17.442  0.00  0.00    +0.066 C 
ENDBRANCH  19  20
ENDBRANCH  18  19
ENDBRANCH  14  15
ENDBRANCH  12  13
TORSDOF 6
ENDMDL
MODEL 3
REMARK VINA RESULT:      -8.3      7.838      9.918
REMARK  Name = C:\Users\Docking\Desktop\test protocol\1iep_ligandH.pdb
REMARK  8 active torsions:
REMARK  status: ('A' for Active; 'I' for Inactive)
REMARK    1  A    between atoms: _5  and  _11
REMARK    2  A    between atoms: _19  and  _21
REMARK    3  A    between atoms: _22  and  _66
REMARK    4  A    between atoms: _27  and  _30
REMARK    5  A    between atoms: _32  and  _33
REMARK    6  A    between atoms: _38  and  _43
REMARK    7  A    between atoms: _43  and  _46
REMARK    8  A    between atoms: _53  and  _55
REMARK                            x       y       z     vdW  Elec       q    Type
REMARK                         _______ _______ _______ _____ _____    ______ ____
ROOT
ATOM     10  C   UNL     1      18.552   5.728  14.854  0.00  0.00    +0.038 A 
ATOM     11  C   UNL     1      19.139   6.622  15.785  0.00  0.00    +0.047 A 
ATOM     12  C   UNL     1      19.471   6.194  17.134  0.00  0.00    +0.035 A 
ATOM     32  C   UNL     1      19.194   4.845  17.502  0.00  0.00    +0.024 A 
ATOM     33  C   UNL     1      18.596   3.922  16.569  0.00  0.00    +0.007 A 
ATOM     34  C   UNL     1      18.264   4.340  15.237  0.00  0.00    -0.029 A 
ATOM     35  C   UNL     1      17.618   3.310  14.282  0.00  0.00    +0.045 C 
ENDROOT
BRANCH  10   9
ATOM      4  C   UNL     1      15.704   8.007  11.734  0.00  0.00    +0.077 A 
ATOM      5  C   UNL     1      14.714   8.270  12.739  0.00  0.00    +0.048 A 
ATOM      6  C   UNL     1      14.973   7.795  14.044  0.00  0.00    +0.116 A 
ATOM      7  N   UNL     1      16.138   7.110  14.314  0.00  0.00    -0.223 NA
ATOM      8  C   UNL     1      17.071   6.872  13.321  0.00  0.00    +0.220 A 
ATOM      9  N   UNL     1      18.253   6.193  13.571  0.00  0.00    -0.283 N 
ATOM     36  H   UNL     1      18.913   6.031  12.811  0.00  0.00    +0.155 HD
ATOM     37  N   UNL     1      16.847   7.314  12.066  0.00  0.00    -0.214 NA
BRANCH   4   3
ATOM      1  C   UNL     1      16.161   8.290   7.860  0.00  0.00    +0.020 A 
ATOM      2  C   UNL     1      16.321   7.828   9.219  0.00  0.00    +0.013 A 
ATOM      3  C   UNL     1      15.577   8.446  10.309  0.00  0.00    +0.019 A 
ATOM     38  C   UNL     1      14.671   9.538   9.986  0.00  0.00    +0.120 A 
ATOM     39  N   UNL     1      14.538   9.963   8.668  0.00  0.00    -0.263 NA
ATOM     40  C   UNL     1      15.251   9.377   7.611  0.00  0.00    +0.111 A 
ENDBRANCH   4   3
ENDBRANCH  10   9
BRANCH  12  13
ATOM     13  N   UNL     1      20.062   7.059  18.125  0.00  0.00    -0.281 N 
ATOM     14  C   UNL     1      21.393   7.418  18.257  0.00  0.00    +0.248 C 
ATOM     30  O   UNL     1      22.317   6.876  17.669  0.00  0.00    -0.270 OA
ATOM     31  H   UNL     1      19.420   7.456  18.812  0.00  0.00    +0.155 HD
BRANCH  14  15
ATOM     15  C   UNL     1      21.752   8.530  19.189  0.00  0.00    +0.037 A 
ATOM     16  C   UNL     1      20.732   9.207  19.993  0.00  0.00    +0.013 A 
ATOM     17  C   UNL     1      21.102  10.289  20.871  0.00  0.00    +0.005 A 
ATOM     18  C   UNL     1      22.502  10.699  20.950  0.00  0.00    -0.033 A 
ATOM     28  C   UNL     1      23.495  10.007  20.145  0.00  0.00    +0.005 A 
ATOM     29  C   UNL     1      23.135   8.947  19.283  0.00  0.00    +0.013 A 
BRANCH  18  19
ATOM     19  C   UNL     1      22.985  11.857  21.844  0.00  0.00    +0.119 C 
BRANCH  19  20
ATOM     20  N   UNL     1      22.813  11.700  23.319  0.00  0.00    -0.302 NA
ATOM     21  C   UNL     1      23.846  12.510  24.107  0.00  0.00    +0.066 C 
ATOM     22  C   UNL     1      23.637  12.351  25.649  0.00  0.00    -0.064 C 
ATOM     23  N   UNL     1      23.712  10.870  26.021  0.00  0.00    +0.379 N 
ATOM     24  C   UNL     1      23.573  10.723  27.477  0.00  0.00    -0.096 C 
ATOM     25  H   UNL     1      24.725  10.501  25.738  0.00  0.00    -0.082 HD
ATOM     26  C   UNL     1      22.690  10.057  25.240  0.00  0.00    -0.064 C 
ATOM     27  C   UNL     1      22.887  10.244  23.709  0.00  0.00    +0.066 C 
ENDBRANCH  19  20
ENDBRANCH  18  19
ENDBRANCH  14  15
ENDBRANCH  12  13
TORSDOF 6
ENDMDL
