MODEL 1
REMARK VINA RESULT:      -9.2      0.000      0.000
REMARK  Name = C:\Users\Docking\Desktop\test protocol\1iep_ligandH.pdb
REMARK  8 active torsions:
REMARK  status: ('A' for Active; 'I' for Inactive)
REMARK    1  A    between atoms: _5  and  _11
REMARK    2  A    between atoms: _19  and  _21
REMARK    3  A    between atoms: _22  and  _66
REMARK    4  A    between atoms: _27  and  _30
REMARK    5  A    between atoms: _32  and  _33
REMARK    6  A    between atoms: _38  and  _43
REMARK    7  A    between atoms: _43  and  _46
REMARK    8  A    between atoms: _53  and  _55
REMARK                            x       y       z     vdW  Elec       q    Type
REMARK                         _______ _______ _______ _____ _____    ______ ____
ROOT
ATOM     10  C   UNL     1      37.985 -18.581   9.550  0.00  0.00    +0.038 A 
ATOM     11  C   UNL     1      38.230 -18.304   8.181  0.00  0.00    +0.047 A 
ATOM     12  C   UNL     1      37.134 -18.094   7.248  0.00  0.00    +0.035 A 
ATOM     32  C   UNL     1      35.800 -18.170   7.744  0.00  0.00    +0.024 A 
ATOM     33  C   UNL     1      35.533 -18.452   9.132  0.00  0.00    +0.007 A 
ATOM     34  C   UNL     1      36.609 -18.663  10.057  0.00  0.00    -0.029 A 
ATOM     35  C   UNL     1      36.263 -18.969  11.533  0.00  0.00    +0.045 C 
ENDROOT
BRANCH  10   9
ATOM      4  C   UNL     1      41.072 -21.409  11.898  0.00  0.00    +0.077 A 
ATOM      5  C   UNL     1      40.444 -22.602  11.407  0.00  0.00    +0.048 A 
ATOM      6  C   UNL     1      39.325 -22.444  10.559  0.00  0.00    +0.116 A 
ATOM      7  N   UNL     1      38.877 -21.183  10.232  0.00  0.00    -0.223 NA
ATOM      8  C   UNL     1      39.504 -20.053  10.724  0.00  0.00    +0.220 A 
ATOM      9  N   UNL     1      39.074 -18.775  10.402  0.00  0.00    -0.283 N 
ATOM     36  H   UNL     1      39.559 -17.967  10.792  0.00  0.00    +0.155 HD
ATOM     37  N   UNL     1      40.573 -20.177  11.537  0.00  0.00    -0.214 NA
BRANCH   4   3
ATOM      1  C   UNL     1      44.706 -20.989  13.283  0.00  0.00    +0.020 A 
ATOM      2  C   UNL     1      43.586 -20.968  12.370  0.00  0.00    +0.013 A 
ATOM      3  C   UNL     1      42.266 -21.411  12.801  0.00  0.00    +0.019 A 
ATOM     38  C   UNL     1      42.112 -21.873  14.172  0.00  0.00    +0.120 A 
ATOM     39  N   UNL     1      43.209 -21.885  15.028  0.00  0.00    -0.263 NA
ATOM     40  C   UNL     1      44.485 -21.462  14.624  0.00  0.00    +0.111 A 
ENDBRANCH   4   3
ENDBRANCH  10   9
BRANCH  12  13
ATOM     13  N   UNL     1      37.322 -17.817   5.845  0.00  0.00    -0.281 N 
ATOM     14  C   UNL     1      38.296 -17.027   5.256  0.00  0.00    +0.248 C 
ATOM     30  O   UNL     1      39.028 -16.262   5.867  0.00  0.00    -0.270 OA
ATOM     31  H   UNL     1      36.656 -18.256   5.210  0.00  0.00    +0.155 HD
BRANCH  14  15
ATOM     15  C   UNL     1      38.472 -17.083   3.773  0.00  0.00    +0.037 A 
ATOM     16  C   UNL     1      38.080 -18.269   3.006  0.00  0.00    +0.013 A 
ATOM     17  C   UNL     1      38.277 -18.304   1.579  0.00  0.00    +0.005 A 
ATOM     18  C   UNL     1      38.866 -17.148   0.908  0.00  0.00    -0.033 A 
ATOM     28  C   UNL     1      39.240 -15.983   1.692  0.00  0.00    +0.005 A 
ATOM     29  C   UNL     1      39.051 -15.945   3.092  0.00  0.00    +0.013 A 
BRANCH  18  19
ATOM     19  C   UNL     1      39.132 -17.106  -0.608  0.00  0.00    +0.119 C 
BRANCH  19  20
ATOM     20  N   UNL     1      37.952 -17.248  -1.513  0.00  0.00    -0.302 NA
ATOM     21  C   UNL     1      36.711 -16.547  -0.954  0.00  0.00    +0.066 C 
ATOM     22  C   UNL     1      35.493 -16.686  -1.923  0.00  0.00    -0.064 C 
ATOM     23  N   UNL     1      35.210 -18.169  -2.173  0.00  0.00    +0.379 N 
ATOM     24  C   UNL     1      34.030 -18.304  -3.038  0.00  0.00    -0.096 C 
ATOM     25  H   UNL     1      34.966 -18.636  -1.191  0.00  0.00    -0.082 HD
ATOM     26  C   UNL     1      36.440 -18.874  -2.727  0.00  0.00    -0.064 C 
ATOM     27  C   UNL     1      37.653 -18.704  -1.770  0.00  0.00    +0.066 C 
ENDBRANCH  19  20
ENDBRANCH  18  19
ENDBRANCH  14  15
ENDBRANCH  12  13
TORSDOF 6
ENDMDL
MODEL 2
REMARK VINA RESULT:      -9.2      1.727     12.906
REMARK  Name = C:\Users\Docking\Desktop\test protocol\1iep_ligandH.pdb
REMARK  8 active torsions:
REMARK  status: ('A' for Active; 'I' for Inactive)
REMARK    1  A    between atoms: _5  and  _11
REMARK    2  A    between atoms: _19  and  _21
REMARK    3  A    between atoms: _22  and  _66
REMARK    4  A    between atoms: _27  and  _30
REMARK    5  A    between atoms: _32  and  _33
REMARK    6  A    between atoms: _38  and  _43
REMARK    7  A    between atoms: _43  and  _46
REMARK    8  A    between atoms: _53  and  _55
REMARK                            x       y       z     vdW  Elec       q    Type
REMARK                         _______ _______ _______ _____ _____    ______ ____
ROOT
ATOM     10  C   UNL     1      39.196 -15.989   1.864  0.00  0.00    +0.038 A 
ATOM     11  C   UNL     1      38.856 -16.535   3.128  0.00  0.00    +0.047 A 
ATOM     12  C   UNL     1      39.822 -16.578   4.214  0.00  0.00    +0.035 A 
ATOM     32  C   UNL     1      41.126 -16.054   3.979  0.00  0.00    +0.024 A 
ATOM     33  C   UNL     1      41.490 -15.496   2.701  0.00  0.00    +0.007 A 
ATOM     34  C   UNL     1      40.542 -15.453   1.624  0.00  0.00    -0.029 A 
ATOM     35  C   UNL     1      40.989 -14.849   0.273  0.00  0.00    +0.045 C 
ENDROOT
BRANCH  10   9
ATOM      4  C   UNL     1      36.988 -17.959  -1.915  0.00  0.00    +0.077 A 
ATOM      5  C   UNL     1      37.851 -19.105  -1.897  0.00  0.00    +0.048 A 
ATOM      6  C   UNL     1      38.855 -19.145  -0.904  0.00  0.00    +0.116 A 
ATOM      7  N   UNL     1      38.978 -18.112  -0.001  0.00  0.00    -0.223 NA
ATOM      8  C   UNL     1      38.130 -17.020  -0.047  0.00  0.00    +0.220 A 
ATOM      9  N   UNL     1      38.229 -15.973   0.856  0.00  0.00    -0.283 N 
ATOM     36  H   UNL     1      37.590 -15.182   0.784  0.00  0.00    +0.155 HD
ATOM     37  N   UNL     1      37.164 -16.957  -0.987  0.00  0.00    -0.214 NA
BRANCH   4   3
ATOM      1  C   UNL     1      34.216 -16.347  -4.154  0.00  0.00    +0.020 A 
ATOM      2  C   UNL     1      35.286 -16.473  -3.192  0.00  0.00    +0.013 A 
ATOM      3  C   UNL     1      35.878 -17.773  -2.902  0.00  0.00    +0.019 A 
ATOM     38  C   UNL     1      35.360 -18.934  -3.608  0.00  0.00    +0.120 A 
ATOM     39  N   UNL     1      34.327 -18.783  -4.528  0.00  0.00    -0.263 NA
ATOM     40  C   UNL     1      33.749 -17.537  -4.815  0.00  0.00    +0.111 A 
ENDBRANCH   4   3
ENDBRANCH  10   9
BRANCH  12  13
ATOM     13  N   UNL     1      39.535 -17.128   5.516  0.00  0.00    -0.281 N 
ATOM     14  C   UNL     1      38.303 -17.487   6.037  0.00  0.00    +0.248 C 
ATOM     30  O   UNL     1      37.228 -17.188   5.537  0.00  0.00    -0.270 OA
ATOM     31  H   UNL     1      40.339 -17.270   6.128  0.00  0.00    +0.155 HD
BRANCH  14  15
ATOM     15  C   UNL     1      38.257 -18.279   7.303  0.00  0.00    +0.037 A 
ATOM     16  C   UNL     1      37.792 -19.669   7.314  0.00  0.00    +0.013 A 
ATOM     17  C   UNL     1      37.742 -20.405   8.552  0.00  0.00    +0.005 A 
ATOM     18  C   UNL     1      38.159 -19.752   9.791  0.00  0.00    -0.033 A 
ATOM     28  C   UNL     1      38.621 -18.375   9.751  0.00  0.00    +0.005 A 
ATOM     29  C   UNL     1      38.671 -17.650   8.539  0.00  0.00    +0.013 A 
BRANCH  18  19
ATOM     19  C   UNL     1      38.118 -20.455  11.161  0.00  0.00    +0.119 C 
BRANCH  19  20
ATOM     20  N   UNL     1      39.427 -20.776  11.804  0.00  0.00    -0.302 NA
ATOM     21  C   UNL     1      39.804 -19.754  12.880  0.00  0.00    +0.066 C 
ATOM     22  C   UNL     1      41.165 -20.118  13.558  0.00  0.00    -0.064 C 
ATOM     23  N   UNL     1      42.257 -20.206  12.490  0.00  0.00    +0.379 N 
ATOM     24  C   UNL     1      43.549 -20.490  13.131  0.00  0.00    -0.096 C 
ATOM     25  H   UNL     1      42.333 -19.207  12.002  0.00  0.00    -0.082 HD
ATOM     26  C   UNL     1      41.889 -21.218  11.414  0.00  0.00    -0.064 C 
ATOM     27  C   UNL     1      40.520 -20.864  10.767  0.00  0.00    +0.066 C 
ENDBRANCH  19  20
ENDBRANCH  18  19
ENDBRANCH  14  15
ENDBRANCH  12  13
TORSDOF 6
ENDMDL
MODEL 3
REMARK VINA RESULT:      -9.2      2.214     12.949
REMARK  Name = C:\Users\Docking\Desktop\test protocol\1iep_ligandH.pdb
REMARK  8 active torsions:
REMARK  status: ('A' for Active; 'I' for Inactive)
REMARK    1  A    between atoms: _5  and  _11
REMARK    2  A    between atoms: _19  and  _21
REMARK    3  A    between atoms: _22  and  _66
REMARK    4  A    between atoms: _27  and  _30
REMARK    5  A    between atoms: _32  and  _33
REMARK    6  A    between atoms: _38  and  _43
REMARK    7  A    between atoms: _43  and  _46
REMARK    8  A    between atoms: _53  and  _55
REMARK                            x       y       z     vdW  Elec       q    Type
REMARK                         _______ _______ _______ _____ _____    ______ ____
ROOT
ATOM     10  C   UNL     1      37.489 -18.924   7.260  0.00  0.00    +0.038 A 
ATOM     11  C   UNL     1      38.561 -19.274   8.119  0.00  0.00    +0.047 A 
ATOM     12  C   UNL     1      38.481 -19.045   9.554  0.00  0.00    +0.035 A 
ATOM     32  C   UNL     1      37.292 -18.459  10.079  0.00  0.00    +0.024 A 
ATOM     33  C   UNL     1      36.193 -18.096   9.219  0.00  0.00    +0.007 A 
ATOM     34  C   UNL     1      36.267 -18.318   7.803  0.00  0.00    -0.029 A 
ATOM     35  C   UNL     1      35.061 -17.903   6.929  0.00  0.00    +0.045 C 
ENDROOT
BRANCH  10   9
ATOM      4  C   UNL     1      38.538 -17.516   2.793  0.00  0.00    +0.077 A 
ATOM      5  C   UNL     1      38.825 -16.177   3.219  0.00  0.00    +0.048 A 
ATOM      6  C   UNL     1      38.684 -15.890   4.595  0.00  0.00    +0.116 A 
ATOM      7  N   UNL     1      38.285 -16.876   5.471  0.00  0.00    -0.223 NA
ATOM      8  C   UNL     1      38.014 -18.157   5.026  0.00  0.00    +0.220 A 
ATOM      9  N   UNL     1      37.619 -19.167   5.890  0.00  0.00    -0.283 N 
ATOM     36  H   UNL     1      37.421 -20.097   5.522  0.00  0.00    +0.155 HD
ATOM     37  N   UNL     1      38.140 -18.456   3.717  0.00  0.00    -0.214 NA
BRANCH   4   3
ATOM      1  C   UNL     1      38.138 -19.588  -0.501  0.00  0.00    +0.020 A 
ATOM      2  C   UNL     1      38.004 -19.189   0.881  0.00  0.00    +0.013 A 
ATOM      3  C   UNL     1      38.645 -17.975   1.372  0.00  0.00    +0.019 A 
ATOM     38  C   UNL     1      39.419 -17.181   0.430  0.00  0.00    +0.120 A 
ATOM     39  N   UNL     1      39.531 -17.590  -0.895  0.00  0.00    -0.263 NA
ATOM     40  C   UNL     1      38.921 -18.758  -1.378  0.00  0.00    +0.111 A 
ENDBRANCH   4   3
ENDBRANCH  10   9
BRANCH  12  13
ATOM     13  N   UNL     1      39.541 -19.372  10.475  0.00  0.00    -0.281 N 
ATOM     14  C   UNL     1      39.968 -20.630  10.870  0.00  0.00    +0.248 C 
ATOM     30  O   UNL     1      39.358 -21.666  10.652  0.00  0.00    -0.270 OA
ATOM     31  H   UNL     1      40.036 -18.581  10.886  0.00  0.00    +0.155 HD
BRANCH  14  15
ATOM     15  C   UNL     1      41.250 -20.751  11.629  0.00  0.00    +0.037 A 
ATOM     16  C   UNL     1      42.296 -21.687  11.208  0.00  0.00    +0.013 A 
ATOM     17  C   UNL     1      43.516 -21.797  11.967  0.00  0.00    +0.005 A 
ATOM     18  C   UNL     1      43.696 -20.967  13.156  0.00  0.00    -0.033 A 
ATOM     28  C   UNL     1      42.645 -20.044  13.548  0.00  0.00    +0.005 A 
ATOM     29  C   UNL     1      41.447 -19.934  12.807  0.00  0.00    +0.013 A 
BRANCH  18  19
ATOM     19  C   UNL     1      44.957 -21.034  14.039  0.00  0.00    +0.119 C 
BRANCH  19  20
ATOM     20  N   UNL     1      44.964 -22.036  15.146  0.00  0.00    -0.302 NA
ATOM     21  C   UNL     1      43.770 -22.991  15.064  0.00  0.00    +0.066 C 
ATOM     22  C   UNL     1      43.805 -24.047  16.217  0.00  0.00    -0.064 C 
ATOM     23  N   UNL     1      43.830 -23.325  17.565  0.00  0.00    +0.379 N 
ATOM     24  C   UNL     1      43.805 -24.314  18.652  0.00  0.00    -0.096 C 
ATOM     25  H   UNL     1      42.899 -22.716  17.640  0.00  0.00    -0.082 HD
ATOM     26  C   UNL     1      45.013 -22.371  17.654  0.00  0.00    -0.064 C 
ATOM     27  C   UNL     1      44.984 -21.345  16.487  0.00  0.00    +0.066 C 
ENDBRANCH  19  20
ENDBRANCH  18  19
ENDBRANCH  14  15
ENDBRANCH  12  13
TORSDOF 6
ENDMDL
