MODEL 1
REMARK VINA RESULT:      -8.3      0.000      0.000
REMARK  Name = C:\Users\Docking\Desktop\test protocol\1iep_ligandH.pdb
REMARK  8 active torsions:
REMARK  status: ('A' for Active; 'I' for Inactive)
REMARK    1  A    between atoms: _5  and  _11
REMARK    2  A    between atoms: _19  and  _21
REMARK    3  A    between atoms: _22  and  _66
REMARK    4  A    between atoms: _27  and  _30
REMARK    5  A    between atoms: _32  and  _33
REMARK    6  A    between atoms: _38  and  _43
REMARK    7  A    between atoms: _43  and  _46
REMARK    8  A    between atoms: _53  and  _55
REMARK                            x       y       z     vdW  Elec       q    Type
REMARK                         _______ _______ _______ _____ _____    ______ ____
ROOT
ATOM     10  C   UNL     1       2.863  23.450  29.463  0.00  0.00    +0.038 A 
ATOM     11  C   UNL     1       2.344  22.527  28.520  0.00  0.00    +0.047 A 
ATOM     12  C   UNL     1       0.922  22.482  28.215  0.00  0.00    +0.035 A 
ATOM     32  C   UNL     1       0.058  23.394  28.887  0.00  0.00    +0.024 A 
ATOM     33  C   UNL     1       0.569  24.339  29.850  0.00  0.00    +0.007 A 
ATOM     34  C   UNL     1       1.970  24.386  30.157  0.00  0.00    -0.029 A 
ATOM     35  C   UNL     1       2.461  25.414  31.202  0.00  0.00    +0.045 C 
ENDROOT
BRANCH  10   9
ATOM      4  C   UNL     1       6.729  21.869  31.828  0.00  0.00    +0.077 A 
ATOM      5  C   UNL     1       5.943  20.989  32.644  0.00  0.00    +0.048 A 
ATOM      6  C   UNL     1       4.547  20.979  32.429  0.00  0.00    +0.116 A 
ATOM      7  N   UNL     1       3.989  21.791  31.466  0.00  0.00    -0.223 NA
ATOM      8  C   UNL     1       4.775  22.630  30.697  0.00  0.00    +0.220 A 
ATOM      9  N   UNL     1       4.237  23.450  29.718  0.00  0.00    -0.283 N 
ATOM     36  H   UNL     1       4.850  24.059  29.177  0.00  0.00    +0.155 HD
ATOM     37  N   UNL     1       6.111  22.659  30.885  0.00  0.00    -0.214 NA
BRANCH   4   3
ATOM      1  C   UNL     1      10.343  22.366  33.241  0.00  0.00    +0.020 A 
ATOM      2  C   UNL     1       8.903  22.258  33.193  0.00  0.00    +0.013 A 
ATOM      3  C   UNL     1       8.218  21.991  31.934  0.00  0.00    +0.019 A 
ATOM     38  C   UNL     1       9.025  21.836  30.734  0.00  0.00    +0.120 A 
ATOM     39  N   UNL     1      10.410  21.946  30.811  0.00  0.00    -0.263 NA
ATOM     40  C   UNL     1      11.080  22.205  32.016  0.00  0.00    +0.111 A 
ENDBRANCH   4   3
ENDBRANCH  10   9
BRANCH  12  13
ATOM     13  N   UNL     1       0.337  21.561  27.272  0.00  0.00    -0.281 N 
ATOM     14  C   UNL     1      -0.173  20.297  27.521  0.00  0.00    +0.248 C 
ATOM     30  O   UNL     1      -0.007  19.678  28.561  0.00  0.00    -0.270 OA
ATOM     31  H   UNL     1       0.292  21.880  26.304  0.00  0.00    +0.155 HD
BRANCH  14  15
ATOM     15  C   UNL     1      -0.970  19.618  26.455  0.00  0.00    +0.037 A 
ATOM     16  C   UNL     1      -0.645  18.259  26.013  0.00  0.00    +0.013 A 
ATOM     17  C   UNL     1      -1.419  17.633  24.971  0.00  0.00    +0.005 A 
ATOM     18  C   UNL     1      -2.528  18.366  24.364  0.00  0.00    -0.033 A 
ATOM     28  C   UNL     1      -2.831  19.710  24.825  0.00  0.00    +0.005 A 
ATOM     29  C   UNL     1      -2.074  20.328  25.845  0.00  0.00    +0.013 A 
BRANCH  18  19
ATOM     19  C   UNL     1      -3.394  17.784  23.231  0.00  0.00    +0.119 C 
BRANCH  19  20
ATOM     20  N   UNL     1      -2.968  18.069  21.829  0.00  0.00    -0.302 NA
ATOM     21  C   UNL     1      -3.086  19.557  21.484  0.00  0.00    +0.066 C 
ATOM     22  C   UNL     1      -2.615  19.841  20.020  0.00  0.00    -0.064 C 
ATOM     23  N   UNL     1      -3.437  18.993  19.049  0.00  0.00    +0.379 N 
ATOM     24  C   UNL     1      -3.037  19.301  17.668  0.00  0.00    -0.096 C 
ATOM     25  H   UNL     1      -4.506  19.288  19.165  0.00  0.00    -0.082 HD
ATOM     26  C   UNL     1      -3.328  17.513  19.386  0.00  0.00    -0.064 C 
ATOM     27  C   UNL     1      -3.771  17.245  20.852  0.00  0.00    +0.066 C 
ENDBRANCH  19  20
ENDBRANCH  18  19
ENDBRANCH  14  15
ENDBRANCH  12  13
TORSDOF 6
ENDMDL
MODEL 2
REMARK VINA RESULT:      -8.3     15.093     20.054
REMARK  Name = C:\Users\Docking\Desktop\test protocol\1iep_ligandH.pdb
REMARK  8 active torsions:
REMARK  status: ('A' for Active; 'I' for Inactive)
REMARK    1  A    between atoms: _5  and  _11
REMARK    2  A    between atoms: _19  and  _21
REMARK    3  A    between atoms: _22  and  _66
REMARK    4  A    between atoms: _27  and  _30
REMARK    5  A    between atoms: _32  and  _33
REMARK    6  A    between atoms: _38  and  _43
REMARK    7  A    between atoms: _43  and  _46
REMARK    8  A    between atoms: _53  and  _55
REMARK                            x       y       z     vdW  Elec       q    Type
REMARK                         _______ _______ _______ _____ _____    ______ ____
ROOT
ATOM     10  C   UNL     1      17.905  26.500  31.168  0.00  0.00    +0.038 A 
ATOM     11  C   UNL     1      17.670  26.297  32.552  0.00  0.00    +0.047 A 
ATOM     12  C   UNL     1      18.703  25.753  33.419  0.00  0.00    +0.035 A 
ATOM     32  C   UNL     1      19.966  25.429  32.843  0.00  0.00    +0.024 A 
ATOM     33  C   UNL     1      20.222  25.628  31.438  0.00  0.00    +0.007 A 
ATOM     34  C   UNL     1      19.205  26.162  30.578  0.00  0.00    -0.029 A 
ATOM     35  C   UNL     1      19.533  26.348  29.078  0.00  0.00    +0.045 C 
ENDROOT
BRANCH  10   9
ATOM      4  C   UNL     1      14.691  29.910  30.129  0.00  0.00    +0.077 A 
ATOM      5  C   UNL     1      15.074  30.700  31.264  0.00  0.00    +0.048 A 
ATOM      6  C   UNL     1      16.097  30.190  32.094  0.00  0.00    +0.116 A 
ATOM      7  N   UNL     1      16.687  28.979  31.801  0.00  0.00    -0.223 NA
ATOM      8  C   UNL     1      16.292  28.242  30.700  0.00  0.00    +0.220 A 
ATOM      9  N   UNL     1      16.877  27.025  30.382  0.00  0.00    -0.283 N 
ATOM     36  H   UNL     1      16.552  26.508  29.565  0.00  0.00    +0.155 HD
ATOM     37  N   UNL     1      15.316  28.707  29.892  0.00  0.00    -0.214 NA
BRANCH   4   3
ATOM      1  C   UNL     1      11.552  29.866  27.796  0.00  0.00    +0.020 A 
ATOM      2  C   UNL     1      12.555  29.424  28.737  0.00  0.00    +0.013 A 
ATOM      3  C   UNL     1      13.628  30.317  29.157  0.00  0.00    +0.019 A 
ATOM     38  C   UNL     1      13.658  31.661  28.600  0.00  0.00    +0.120 A 
ATOM     39  N   UNL     1      12.680  32.059  27.694  0.00  0.00    -0.263 NA
ATOM     40  C   UNL     1      11.643  31.208  27.282  0.00  0.00    +0.111 A 
ENDBRANCH   4   3
ENDBRANCH  10   9
BRANCH  12  13
ATOM     13  N   UNL     1      18.520  25.518  34.829  0.00  0.00    -0.281 N 
ATOM     14  C   UNL     1      18.205  26.441  35.813  0.00  0.00    +0.248 C 
ATOM     30  O   UNL     1      18.244  27.653  35.661  0.00  0.00    -0.270 OA
ATOM     31  H   UNL     1      18.636  24.554  35.141  0.00  0.00    +0.155 HD
BRANCH  14  15
ATOM     15  C   UNL     1      17.803  25.947  37.165  0.00  0.00    +0.037 A 
ATOM     16  C   UNL     1      17.212  26.848  38.158  0.00  0.00    +0.013 A 
ATOM     17  C   UNL     1      16.849  26.349  39.461  0.00  0.00    +0.005 A 
ATOM     18  C   UNL     1      17.076  24.941  39.778  0.00  0.00    -0.033 A 
ATOM     28  C   UNL     1      17.660  24.069  38.772  0.00  0.00    +0.005 A 
ATOM     29  C   UNL     1      18.017  24.554  37.495  0.00  0.00    +0.013 A 
BRANCH  18  19
ATOM     19  C   UNL     1      16.739  24.328  41.150  0.00  0.00    +0.119 C 
BRANCH  19  20
ATOM     20  N   UNL     1      15.595  23.369  41.208  0.00  0.00    -0.302 NA
ATOM     21  C   UNL     1      15.994  21.970  40.730  0.00  0.00    +0.066 C 
ATOM     22  C   UNL     1      14.792  20.974  40.818  0.00  0.00    -0.064 C 
ATOM     23  N   UNL     1      13.623  21.515  39.993  0.00  0.00    +0.379 N 
ATOM     24  C   UNL     1      12.512  20.554  40.027  0.00  0.00    -0.096 C 
ATOM     25  H   UNL     1      13.966  21.599  38.936  0.00  0.00    -0.082 HD
ATOM     26  C   UNL     1      13.222  22.907  40.460  0.00  0.00    -0.064 C 
ATOM     27  C   UNL     1      14.431  23.882  40.396  0.00  0.00    +0.066 C 
ENDBRANCH  19  20
ENDBRANCH  18  19
ENDBRANCH  14  15
ENDBRANCH  12  13
TORSDOF 6
ENDMDL
MODEL 3
REMARK VINA RESULT:      -7.9     15.101     21.066
REMARK  Name = C:\Users\Docking\Desktop\test protocol\1iep_ligandH.pdb
REMARK  8 active torsions:
REMARK  status: ('A' for Active; 'I' for Inactive)
REMARK    1  A    between atoms: _5  and  _11
REMARK    2  A    between atoms: _19  and  _21
REMARK    3  A    between atoms: _22  and  _66
REMARK    4  A    between atoms: _27  and  _30
REMARK    5  A    between atoms: _32  and  _33
REMARK    6  A    between atoms: _38  and  _43
REMARK    7  A    between atoms: _43  and  _46
REMARK    8  A    between atoms: _53  and  _55
REMARK                            x       y       z     vdW  Elec       q    Type
REMARK                         _______ _______ _______ _____ _____    ______ ____
ROOT
ATOM     10  C   UNL     1      18.135  26.669  30.716  0.00  0.00    +0.038 A 
ATOM     11  C   UNL     1      17.956  26.635  32.123  0.00  0.00    +0.047 A 
ATOM     12  C   UNL     1      18.779  25.783  32.966  0.00  0.00    +0.035 A 
ATOM     32  C   UNL     1      19.778  24.979  32.343  0.00  0.00    +0.024 A 
ATOM     33  C   UNL     1      19.972  24.999  30.915  0.00  0.00    +0.007 A 
ATOM     34  C   UNL     1      19.161  25.837  30.078  0.00  0.00    -0.029 A 
ATOM     35  C   UNL     1      19.410  25.814  28.552  0.00  0.00    +0.045 C 
ENDROOT
BRANCH  10   9
ATOM      4  C   UNL     1      14.158  29.286  30.106  0.00  0.00    +0.077 A 
ATOM      5  C   UNL     1      13.656  28.935  31.403  0.00  0.00    +0.048 A 
ATOM      6  C   UNL     1      14.449  28.072  32.193  0.00  0.00    +0.116 A 
ATOM      7  N   UNL     1      15.652  27.603  31.712  0.00  0.00    -0.223 NA
ATOM      8  C   UNL     1      16.106  27.960  30.456  0.00  0.00    +0.220 A 
ATOM      9  N   UNL     1      17.316  27.506  29.955  0.00  0.00    -0.283 N 
ATOM     36  H   UNL     1      17.612  27.786  29.020  0.00  0.00    +0.155 HD
ATOM     37  N   UNL     1      15.367  28.781  29.681  0.00  0.00    -0.214 NA
BRANCH   4   3
ATOM      1  C   UNL     1      13.083  32.415  28.018  0.00  0.00    +0.020 A 
ATOM      2  C   UNL     1      13.812  31.584  28.949  0.00  0.00    +0.013 A 
ATOM      3  C   UNL     1      13.438  30.191  29.154  0.00  0.00    +0.019 A 
ATOM     38  C   UNL     1      12.313  29.664  28.395  0.00  0.00    +0.120 A 
ATOM     39  N   UNL     1      11.630  30.488  27.507  0.00  0.00    -0.263 NA
ATOM     40  C   UNL     1      11.980  31.831  27.303  0.00  0.00    +0.111 A 
ENDBRANCH   4   3
ENDBRANCH  10   9
BRANCH  12  13
ATOM     13  N   UNL     1      18.638  25.701  34.399  0.00  0.00    -0.281 N 
ATOM     14  C   UNL     1      17.514  25.345  35.125  0.00  0.00    +0.248 C 
ATOM     30  O   UNL     1      16.390  25.247  34.655  0.00  0.00    -0.270 OA
ATOM     31  H   UNL     1      19.468  25.934  34.944  0.00  0.00    +0.155 HD
BRANCH  14  15
ATOM     15  C   UNL     1      17.655  25.070  36.587  0.00  0.00    +0.037 A 
ATOM     16  C   UNL     1      18.629  25.797  37.406  0.00  0.00    +0.013 A 
ATOM     17  C   UNL     1      18.757  25.501  38.811  0.00  0.00    +0.005 A 
ATOM     18  C   UNL     1      17.907  24.473  39.406  0.00  0.00    -0.033 A 
ATOM     28  C   UNL     1      16.946  23.770  38.572  0.00  0.00    +0.005 A 
ATOM     29  C   UNL     1      16.819  24.057  37.195  0.00  0.00    +0.013 A 
BRANCH  18  19
ATOM     19  C   UNL     1      17.990  24.076  40.892  0.00  0.00    +0.119 C 
BRANCH  19  20
ATOM     20  N   UNL     1      17.478  25.060  41.892  0.00  0.00    -0.302 NA
ATOM     21  C   UNL     1      18.440  25.236  43.070  0.00  0.00    +0.066 C 
ATOM     22  C   UNL     1      17.899  26.285  44.095  0.00  0.00    -0.064 C 
ATOM     23  N   UNL     1      16.517  25.850  44.585  0.00  0.00    +0.379 N 
ATOM     24  C   UNL     1      16.030  26.804  45.592  0.00  0.00    -0.096 C 
ATOM     25  H   UNL     1      16.631  24.860  45.084  0.00  0.00    -0.082 HD
ATOM     26  C   UNL     1      15.554  25.670  43.420  0.00  0.00    -0.064 C 
ATOM     27  C   UNL     1      16.115  24.647  42.392  0.00  0.00    +0.066 C 
ENDBRANCH  19  20
ENDBRANCH  18  19
ENDBRANCH  14  15
ENDBRANCH  12  13
TORSDOF 6
ENDMDL
