MODEL 1
REMARK VINA RESULT:      -6.7      0.000      0.000
REMARK  Name = C:\Users\Docking\Desktop\test protocol\1iep_ligandH.pdb
REMARK  8 active torsions:
REMARK  status: ('A' for Active; 'I' for Inactive)
REMARK    1  A    between atoms: _5  and  _11
REMARK    2  A    between atoms: _19  and  _21
REMARK    3  A    between atoms: _22  and  _66
REMARK    4  A    between atoms: _27  and  _30
REMARK    5  A    between atoms: _32  and  _33
REMARK    6  A    between atoms: _38  and  _43
REMARK    7  A    between atoms: _43  and  _46
REMARK    8  A    between atoms: _53  and  _55
REMARK                            x       y       z     vdW  Elec       q    Type
REMARK                         _______ _______ _______ _____ _____    ______ ____
ROOT
ATOM     10  C   UNL     1       3.393   9.048  23.246  0.00  0.00    +0.038 A 
ATOM     11  C   UNL     1       4.422   9.649  22.478  0.00  0.00    +0.047 A 
ATOM     12  C   UNL     1       5.275   8.852  21.609  0.00  0.00    +0.035 A 
ATOM     32  C   UNL     1       5.050   7.446  21.546  0.00  0.00    +0.024 A 
ATOM     33  C   UNL     1       4.009   6.819  22.322  0.00  0.00    +0.007 A 
ATOM     34  C   UNL     1       3.166   7.599  23.182  0.00  0.00    -0.029 A 
ATOM     35  C   UNL     1       2.069   6.873  23.995  0.00  0.00    +0.045 C 
ENDROOT
BRANCH  10   9
ATOM      4  C   UNL     1       2.318  11.011  27.493  0.00  0.00    +0.077 A 
ATOM      5  C   UNL     1       3.405  10.339  28.145  0.00  0.00    +0.048 A 
ATOM      6  C   UNL     1       4.213   9.492  27.353  0.00  0.00    +0.116 A 
ATOM      7  N   UNL     1       3.944   9.336  26.011  0.00  0.00    -0.223 NA
ATOM      8  C   UNL     1       2.887   9.997  25.413  0.00  0.00    +0.220 A 
ATOM      9  N   UNL     1       2.603   9.861  24.063  0.00  0.00    -0.283 N 
ATOM     36  H   UNL     1       1.810  10.360  23.662  0.00  0.00    +0.155 HD
ATOM     37  N   UNL     1       2.100  10.810  26.148  0.00  0.00    -0.214 NA
BRANCH   4   3
ATOM      1  C   UNL     1       0.867  13.780  29.843  0.00  0.00    +0.020 A 
ATOM      2  C   UNL     1       1.816  12.904  29.196  0.00  0.00    +0.013 A 
ATOM      3  C   UNL     1       1.378  11.941  28.193  0.00  0.00    +0.019 A 
ATOM     38  C   UNL     1      -0.039  11.891  27.865  0.00  0.00    +0.120 A 
ATOM     39  N   UNL     1      -0.930  12.746  28.505  0.00  0.00    -0.263 NA
ATOM     40  C   UNL     1      -0.520  13.675  29.473  0.00  0.00    +0.111 A 
ENDBRANCH   4   3
ENDBRANCH  10   9
BRANCH  12  13
ATOM     13  N   UNL     1       6.342   9.405  20.812  0.00  0.00    -0.281 N 
ATOM     14  C   UNL     1       6.676   9.094  19.504  0.00  0.00    +0.248 C 
ATOM     30  O   UNL     1       6.239   8.133  18.888  0.00  0.00    -0.270 OA
ATOM     31  H   UNL     1       6.920  10.111  21.267  0.00  0.00    +0.155 HD
BRANCH  14  15
ATOM     15  C   UNL     1       7.648   9.969  18.780  0.00  0.00    +0.037 A 
ATOM     16  C   UNL     1       7.191  11.077  17.937  0.00  0.00    +0.013 A 
ATOM     17  C   UNL     1       8.148  11.895  17.235  0.00  0.00    +0.005 A 
ATOM     18  C   UNL     1       9.574  11.608  17.376  0.00  0.00    -0.033 A 
ATOM     28  C   UNL     1      10.000  10.506  18.223  0.00  0.00    +0.005 A 
ATOM     29  C   UNL     1       9.064   9.702  18.911  0.00  0.00    +0.013 A 
BRANCH  18  19
ATOM     19  C   UNL     1      10.665  12.415  16.648  0.00  0.00    +0.119 C 
BRANCH  19  20
ATOM     20  N   UNL     1      10.212  13.469  15.692  0.00  0.00    -0.302 NA
ATOM     21  C   UNL     1      10.310  13.004  14.236  0.00  0.00    +0.066 C 
ATOM     22  C   UNL     1       9.811  14.110  13.250  0.00  0.00    -0.064 C 
ATOM     23  N   UNL     1      10.626  15.387  13.466  0.00  0.00    +0.379 N 
ATOM     24  C   UNL     1      10.199  16.411  12.502  0.00  0.00    -0.096 C 
ATOM     25  H   UNL     1      11.693  15.146  13.254  0.00  0.00    -0.082 HD
ATOM     26  C   UNL     1      10.537  15.855  14.912  0.00  0.00    -0.064 C 
ATOM     27  C   UNL     1      11.007  14.738  15.885  0.00  0.00    +0.066 C 
ENDBRANCH  19  20
ENDBRANCH  18  19
ENDBRANCH  14  15
ENDBRANCH  12  13
TORSDOF 6
ENDMDL
MODEL 2
REMARK VINA RESULT:      -6.5      8.064     11.695
REMARK  Name = C:\Users\Docking\Desktop\test protocol\1iep_ligandH.pdb
REMARK  8 active torsions:
REMARK  status: ('A' for Active; 'I' for Inactive)
REMARK    1  A    between atoms: _5  and  _11
REMARK    2  A    between atoms: _19  and  _21
REMARK    3  A    between atoms: _22  and  _66
REMARK    4  A    between atoms: _27  and  _30
REMARK    5  A    between atoms: _32  and  _33
REMARK    6  A    between atoms: _38  and  _43
REMARK    7  A    between atoms: _43  and  _46
REMARK    8  A    between atoms: _53  and  _55
REMARK                            x       y       z     vdW  Elec       q    Type
REMARK                         _______ _______ _______ _____ _____    ______ ____
ROOT
ATOM     10  C   UNL     1       2.261  11.027  26.344  0.00  0.00    +0.038 A 
ATOM     11  C   UNL     1       1.873   9.890  25.590  0.00  0.00    +0.047 A 
ATOM     12  C   UNL     1       2.149   8.543  26.064  0.00  0.00    +0.035 A 
ATOM     32  C   UNL     1       2.821   8.390  27.312  0.00  0.00    +0.024 A 
ATOM     33  C   UNL     1       3.224   9.534  28.091  0.00  0.00    +0.007 A 
ATOM     34  C   UNL     1       2.956  10.866  27.627  0.00  0.00    -0.029 A 
ATOM     35  C   UNL     1       3.417  12.056  28.500  0.00  0.00    +0.045 C 
ENDROOT
BRANCH  10   9
ATOM      4  C   UNL     1      -0.581  14.874  25.949  0.00  0.00    +0.077 A 
ATOM      5  C   UNL     1      -1.584  14.293  26.794  0.00  0.00    +0.048 A 
ATOM      6  C   UNL     1      -1.334  12.999  27.304  0.00  0.00    +0.116 A 
ATOM      7  N   UNL     1      -0.163  12.345  26.986  0.00  0.00    -0.223 NA
ATOM      8  C   UNL     1       0.783  12.934  26.167  0.00  0.00    +0.220 A 
ATOM      9  N   UNL     1       1.971  12.297  25.842  0.00  0.00    -0.283 N 
ATOM     36  H   UNL     1       2.640  12.762  25.228  0.00  0.00    +0.155 HD
ATOM     37  N   UNL     1       0.567  14.168  25.666  0.00  0.00    -0.214 NA
BRANCH   4   3
ATOM      1  C   UNL     1       0.226  18.191  24.039  0.00  0.00    +0.020 A 
ATOM      2  C   UNL     1       0.392  16.875  24.612  0.00  0.00    +0.013 A 
ATOM      3  C   UNL     1      -0.699  16.235  25.336  0.00  0.00    +0.019 A 
ATOM     38  C   UNL     1      -1.955  16.959  25.462  0.00  0.00    +0.120 A 
ATOM     39  N   UNL     1      -2.085  18.225  24.901  0.00  0.00    -0.263 NA
ATOM     40  C   UNL     1      -1.042  18.852  24.203  0.00  0.00    +0.111 A 
ENDBRANCH   4   3
ENDBRANCH  10   9
BRANCH  12  13
ATOM     13  N   UNL     1       1.786   7.351  25.338  0.00  0.00    -0.281 N 
ATOM     14  C   UNL     1       2.353   6.856  24.176  0.00  0.00    +0.248 C 
ATOM     30  O   UNL     1       3.124   7.480  23.462  0.00  0.00    -0.270 OA
ATOM     31  H   UNL     1       1.017   6.806  25.729  0.00  0.00    +0.155 HD
BRANCH  14  15
ATOM     15  C   UNL     1       2.003   5.471  23.734  0.00  0.00    +0.037 A 
ATOM     16  C   UNL     1       0.789   4.805  24.213  0.00  0.00    +0.013 A 
ATOM     17  C   UNL     1       0.483   3.463  23.785  0.00  0.00    +0.005 A 
ATOM     18  C   UNL     1       1.393   2.779  22.870  0.00  0.00    -0.033 A 
ATOM     28  C   UNL     1       2.588   3.465  22.407  0.00  0.00    +0.005 A 
ATOM     29  C   UNL     1       2.892   4.780  22.825  0.00  0.00    +0.013 A 
BRANCH  18  19
ATOM     19  C   UNL     1       1.158   1.339  22.378  0.00  0.00    +0.119 C 
BRANCH  19  20
ATOM     20  N   UNL     1       0.283   0.464  23.215  0.00  0.00    -0.302 NA
ATOM     21  C   UNL     1       1.054  -0.185  24.367  0.00  0.00    +0.066 C 
ATOM     22  C   UNL     1       0.119  -1.078  25.246  0.00  0.00    -0.064 C 
ATOM     23  N   UNL     1      -0.538  -2.143  24.366  0.00  0.00    +0.379 N 
ATOM     24  C   UNL     1      -1.373  -3.021  25.200  0.00  0.00    -0.096 C 
ATOM     25  H   UNL     1       0.274  -2.767  23.927  0.00  0.00    -0.082 HD
ATOM     26  C   UNL     1      -1.305  -1.506  23.216  0.00  0.00    -0.064 C 
ATOM     27  C   UNL     1      -0.373  -0.598  22.367  0.00  0.00    +0.066 C 
ENDBRANCH  19  20
ENDBRANCH  18  19
ENDBRANCH  14  15
ENDBRANCH  12  13
TORSDOF 6
ENDMDL
MODEL 3
REMARK VINA RESULT:      -6.5      8.131     10.695
REMARK  Name = C:\Users\Docking\Desktop\test protocol\1iep_ligandH.pdb
REMARK  8 active torsions:
REMARK  status: ('A' for Active; 'I' for Inactive)
REMARK    1  A    between atoms: _5  and  _11
REMARK    2  A    between atoms: _19  and  _21
REMARK    3  A    between atoms: _22  and  _66
REMARK    4  A    between atoms: _27  and  _30
REMARK    5  A    between atoms: _32  and  _33
REMARK    6  A    between atoms: _38  and  _43
REMARK    7  A    between atoms: _43  and  _46
REMARK    8  A    between atoms: _53  and  _55
REMARK                            x       y       z     vdW  Elec       q    Type
REMARK                         _______ _______ _______ _____ _____    ______ ____
ROOT
ATOM     10  C   UNL     1       2.216  10.973  26.306  0.00  0.00    +0.038 A 
ATOM     11  C   UNL     1       1.831   9.816  25.581  0.00  0.00    +0.047 A 
ATOM     12  C   UNL     1       2.165   8.483  26.058  0.00  0.00    +0.035 A 
ATOM     32  C   UNL     1       2.890   8.365  27.280  0.00  0.00    +0.024 A 
ATOM     33  C   UNL     1       3.290   9.530  28.029  0.00  0.00    +0.007 A 
ATOM     34  C   UNL     1       2.966  10.847  27.562  0.00  0.00    -0.029 A 
ATOM     35  C   UNL     1       3.426  12.061  28.403  0.00  0.00    +0.045 C 
ENDROOT
BRANCH  10   9
ATOM      4  C   UNL     1      -0.766  14.717  25.959  0.00  0.00    +0.077 A 
ATOM      5  C   UNL     1      -1.726  14.110  26.835  0.00  0.00    +0.048 A 
ATOM      6  C   UNL     1      -1.417  12.830  27.348  0.00  0.00    +0.116 A 
ATOM      7  N   UNL     1      -0.234  12.213  27.004  0.00  0.00    -0.223 NA
ATOM      8  C   UNL     1       0.669  12.826  26.155  0.00  0.00    +0.220 A 
ATOM      9  N   UNL     1       1.869  12.228  25.802  0.00  0.00    -0.283 N 
ATOM     36  H   UNL     1       2.505  12.710  25.167  0.00  0.00    +0.155 HD
ATOM     37  N   UNL     1       0.397  14.048  25.651  0.00  0.00    -0.214 NA
BRANCH   4   3
ATOM      1  C   UNL     1      -0.088  18.100  24.116  0.00  0.00    +0.020 A 
ATOM      2  C   UNL     1       0.140  16.799  24.700  0.00  0.00    +0.013 A 
ATOM      3  C   UNL     1      -0.947  16.068  25.339  0.00  0.00    +0.019 A 
ATOM     38  C   UNL     1      -2.264  16.687  25.369  0.00  0.00    +0.120 A 
ATOM     39  N   UNL     1      -2.453  17.942  24.800  0.00  0.00    -0.263 NA
ATOM     40  C   UNL     1      -1.414  18.655  24.184  0.00  0.00    +0.111 A 
ENDBRANCH   4   3
ENDBRANCH  10   9
BRANCH  12  13
ATOM     13  N   UNL     1       1.808   7.273  25.361  0.00  0.00    -0.281 N 
ATOM     14  C   UNL     1       2.274   6.828  24.134  0.00  0.00    +0.248 C 
ATOM     30  O   UNL     1       2.911   7.512  23.347  0.00  0.00    -0.270 OA
ATOM     31  H   UNL     1       1.130   6.671  25.828  0.00  0.00    +0.155 HD
BRANCH  14  15
ATOM     15  C   UNL     1       1.976   5.424  23.715  0.00  0.00    +0.037 A 
ATOM     16  C   UNL     1       2.877   4.690  22.823  0.00  0.00    +0.013 A 
ATOM     17  C   UNL     1       2.557   3.344  22.420  0.00  0.00    +0.005 A 
ATOM     18  C   UNL     1       1.330   2.722  22.911  0.00  0.00    -0.033 A 
ATOM     28  C   UNL     1       0.456   3.471  23.799  0.00  0.00    +0.005 A 
ATOM     29  C   UNL     1       0.766   4.791  24.195  0.00  0.00    +0.013 A 
BRANCH  18  19
ATOM     19  C   UNL     1       0.898   1.297  22.516  0.00  0.00    +0.119 C 
BRANCH  19  20
ATOM     20  N   UNL     1       0.600   1.047  21.074  0.00  0.00    -0.302 NA
ATOM     21  C   UNL     1      -0.456   2.014  20.530  0.00  0.00    +0.066 C 
ATOM     22  C   UNL     1      -0.740   1.753  19.015  0.00  0.00    -0.064 C 
ATOM     23  N   UNL     1      -1.184   0.302  18.824  0.00  0.00    +0.379 N 
ATOM     24  C   UNL     1      -1.507   0.070  17.409  0.00  0.00    -0.096 C 
ATOM     25  H   UNL     1      -2.119   0.155  19.413  0.00  0.00    -0.082 HD
ATOM     26  C   UNL     1      -0.140  -0.665  19.364  0.00  0.00    -0.064 C 
ATOM     27  C   UNL     1       0.156  -0.379  20.863  0.00  0.00    +0.066 C 
ENDBRANCH  19  20
ENDBRANCH  18  19
ENDBRANCH  14  15
ENDBRANCH  12  13
TORSDOF 6
ENDMDL
