MODEL 1
REMARK VINA RESULT:      -7.5      0.000      0.000
REMARK  Name = C:\Users\Docking\Desktop\test protocol\1iep_ligandH.pdb
REMARK  8 active torsions:
REMARK  status: ('A' for Active; 'I' for Inactive)
REMARK    1  A    between atoms: _5  and  _11
REMARK    2  A    between atoms: _19  and  _21
REMARK    3  A    between atoms: _22  and  _66
REMARK    4  A    between atoms: _27  and  _30
REMARK    5  A    between atoms: _32  and  _33
REMARK    6  A    between atoms: _38  and  _43
REMARK    7  A    between atoms: _43  and  _46
REMARK    8  A    between atoms: _53  and  _55
REMARK                            x       y       z     vdW  Elec       q    Type
REMARK                         _______ _______ _______ _____ _____    ______ ____
ROOT
ATOM     10  C   UNL     1      34.374  26.687  77.388  0.00  0.00    +0.038 A 
ATOM     11  C   UNL     1      33.537  27.528  78.165  0.00  0.00    +0.047 A 
ATOM     12  C   UNL     1      33.817  28.949  78.304  0.00  0.00    +0.035 A 
ATOM     32  C   UNL     1      34.957  29.481  77.634  0.00  0.00    +0.024 A 
ATOM     33  C   UNL     1      35.819  28.641  76.840  0.00  0.00    +0.007 A 
ATOM     34  C   UNL     1      35.550  27.238  76.703  0.00  0.00    -0.029 A 
ATOM     35  C   UNL     1      36.512  26.384  75.845  0.00  0.00    +0.045 C 
ENDROOT
BRANCH  10   9
ATOM      4  C   UNL     1      32.309  22.973  75.158  0.00  0.00    +0.077 A 
ATOM      5  C   UNL     1      31.792  23.811  74.114  0.00  0.00    +0.048 A 
ATOM      6  C   UNL     1      32.074  25.193  74.192  0.00  0.00    +0.116 A 
ATOM      7  N   UNL     1      32.819  25.689  75.240  0.00  0.00    -0.223 NA
ATOM      8  C   UNL     1      33.301  24.854  76.231  0.00  0.00    +0.220 A 
ATOM      9  N   UNL     1      34.059  25.330  77.290  0.00  0.00    -0.283 N 
ATOM     36  H   UNL     1      34.390  24.683  78.005  0.00  0.00    +0.155 HD
ATOM     37  N   UNL     1      33.044  23.530  76.180  0.00  0.00    -0.214 NA
BRANCH   4   3
ATOM      1  C   UNL     1      32.516  19.209  76.204  0.00  0.00    +0.020 A 
ATOM      2  C   UNL     1      32.754  20.634  76.193  0.00  0.00    +0.013 A 
ATOM      3  C   UNL     1      32.099  21.491  75.213  0.00  0.00    +0.019 A 
ATOM     38  C   UNL     1      31.200  20.870  74.252  0.00  0.00    +0.120 A 
ATOM     39  N   UNL     1      30.992  19.495  74.286  0.00  0.00    -0.263 NA
ATOM     40  C   UNL     1      31.619  18.660  75.223  0.00  0.00    +0.111 A 
ENDBRANCH   4   3
ENDBRANCH  10   9
BRANCH  12  13
ATOM     13  N   UNL     1      33.007  29.849  79.086  0.00  0.00    -0.281 N 
ATOM     14  C   UNL     1      33.431  30.804  79.996  0.00  0.00    +0.248 C 
ATOM     30  O   UNL     1      34.569  30.882  80.436  0.00  0.00    -0.270 OA
ATOM     31  H   UNL     1      31.998  29.774  78.953  0.00  0.00    +0.155 HD
BRANCH  14  15
ATOM     15  C   UNL     1      32.446  31.808  80.502  0.00  0.00    +0.037 A 
ATOM     16  C   UNL     1      32.754  32.662  81.651  0.00  0.00    +0.013 A 
ATOM     17  C   UNL     1      31.779  33.610  82.129  0.00  0.00    +0.005 A 
ATOM     18  C   UNL     1      30.487  33.710  81.455  0.00  0.00    -0.033 A 
ATOM     28  C   UNL     1      30.210  32.854  80.314  0.00  0.00    +0.005 A 
ATOM     29  C   UNL     1      31.162  31.923  79.843  0.00  0.00    +0.013 A 
BRANCH  18  19
ATOM     19  C   UNL     1      29.379  34.679  81.910  0.00  0.00    +0.119 C 
BRANCH  19  20
ATOM     20  N   UNL     1      28.617  34.317  83.142  0.00  0.00    -0.302 NA
ATOM     21  C   UNL     1      29.229  34.940  84.400  0.00  0.00    +0.066 C 
ATOM     22  C   UNL     1      28.407  34.569  85.677  0.00  0.00    -0.064 C 
ATOM     23  N   UNL     1      28.333  33.047  85.808  0.00  0.00    +0.379 N 
ATOM     24  C   UNL     1      27.610  32.696  87.039  0.00  0.00    -0.096 C 
ATOM     25  H   UNL     1      29.375  32.666  85.908  0.00  0.00    -0.082 HD
ATOM     26  C   UNL     1      27.728  32.419  84.561  0.00  0.00    -0.064 C 
ATOM     27  C   UNL     1      28.536  32.818  83.294  0.00  0.00    +0.066 C 
ENDBRANCH  19  20
ENDBRANCH  18  19
ENDBRANCH  14  15
ENDBRANCH  12  13
TORSDOF 6
ENDMDL
MODEL 2
REMARK VINA RESULT:      -7.4      8.670     15.803
REMARK  Name = C:\Users\Docking\Desktop\test protocol\1iep_ligandH.pdb
REMARK  8 active torsions:
REMARK  status: ('A' for Active; 'I' for Inactive)
REMARK    1  A    between atoms: _5  and  _11
REMARK    2  A    between atoms: _19  and  _21
REMARK    3  A    between atoms: _22  and  _66
REMARK    4  A    between atoms: _27  and  _30
REMARK    5  A    between atoms: _32  and  _33
REMARK    6  A    between atoms: _38  and  _43
REMARK    7  A    between atoms: _43  and  _46
REMARK    8  A    between atoms: _53  and  _55
REMARK                            x       y       z     vdW  Elec       q    Type
REMARK                         _______ _______ _______ _____ _____    ______ ____
ROOT
ATOM     10  C   UNL     1      31.413  12.375  69.101  0.00  0.00    +0.038 A 
ATOM     11  C   UNL     1      31.220  13.353  70.111  0.00  0.00    +0.047 A 
ATOM     12  C   UNL     1      31.497  14.758  69.860  0.00  0.00    +0.035 A 
ATOM     32  C   UNL     1      31.968  15.134  68.568  0.00  0.00    +0.024 A 
ATOM     33  C   UNL     1      32.170  14.154  67.531  0.00  0.00    +0.007 A 
ATOM     34  C   UNL     1      31.901  12.765  67.773  0.00  0.00    -0.029 A 
ATOM     35  C   UNL     1      32.142  11.757  66.625  0.00  0.00    +0.045 C 
ENDROOT
BRANCH  10   9
ATOM      4  C   UNL     1      32.345   8.256  71.382  0.00  0.00    +0.077 A 
ATOM      5  C   UNL     1      33.508   8.803  72.018  0.00  0.00    +0.048 A 
ATOM      6  C   UNL     1      33.837  10.146  71.727  0.00  0.00    +0.116 A 
ATOM      7  N   UNL     1      33.052  10.878  70.862  0.00  0.00    -0.223 NA
ATOM      8  C   UNL     1      31.938  10.320  70.263  0.00  0.00    +0.220 A 
ATOM      9  N   UNL     1      31.130  11.040  69.396  0.00  0.00    -0.283 N 
ATOM     36  H   UNL     1      30.321  10.589  68.970  0.00  0.00    +0.155 HD
ATOM     37  N   UNL     1      31.604   9.039  70.525  0.00  0.00    -0.214 NA
BRANCH   4   3
ATOM      1  C   UNL     1      32.203   4.353  71.593  0.00  0.00    +0.020 A 
ATOM      2  C   UNL     1      32.714   5.687  71.375  0.00  0.00    +0.013 A 
ATOM      3  C   UNL     1      31.867   6.853  71.592  0.00  0.00    +0.019 A 
ATOM     38  C   UNL     1      30.498   6.633  72.034  0.00  0.00    +0.120 A 
ATOM     39  N   UNL     1      30.033   5.337  72.234  0.00  0.00    -0.263 NA
ATOM     40  C   UNL     1      30.838   4.207  72.026  0.00  0.00    +0.111 A 
ENDBRANCH   4   3
ENDBRANCH  10   9
BRANCH  12  13
ATOM     13  N   UNL     1      31.328  15.794  70.849  0.00  0.00    -0.281 N 
ATOM     14  C   UNL     1      32.228  16.198  71.822  0.00  0.00    +0.248 C 
ATOM     30  O   UNL     1      33.237  15.581  72.129  0.00  0.00    -0.270 OA
ATOM     31  H   UNL     1      30.437  16.290  70.829  0.00  0.00    +0.155 HD
BRANCH  14  15
ATOM     15  C   UNL     1      31.960  17.461  72.574  0.00  0.00    +0.037 A 
ATOM     16  C   UNL     1      32.244  18.772  71.983  0.00  0.00    +0.013 A 
ATOM     17  C   UNL     1      31.992  19.975  72.736  0.00  0.00    +0.005 A 
ATOM     18  C   UNL     1      31.451  19.872  74.089  0.00  0.00    -0.033 A 
ATOM     28  C   UNL     1      31.173  18.560  74.649  0.00  0.00    +0.005 A 
ATOM     29  C   UNL     1      31.420  17.379  73.914  0.00  0.00    +0.013 A 
BRANCH  18  19
ATOM     19  C   UNL     1      31.171  21.102  74.973  0.00  0.00    +0.119 C 
BRANCH  19  20
ATOM     20  N   UNL     1      32.262  22.113  75.103  0.00  0.00    -0.302 NA
ATOM     21  C   UNL     1      33.126  21.871  76.344  0.00  0.00    +0.066 C 
ATOM     22  C   UNL     1      34.276  22.924  76.452  0.00  0.00    -0.064 C 
ATOM     23  N   UNL     1      33.675  24.330  76.477  0.00  0.00    +0.379 N 
ATOM     24  C   UNL     1      34.750  25.321  76.637  0.00  0.00    -0.096 C 
ATOM     25  H   UNL     1      33.015  24.400  77.373  0.00  0.00    -0.082 HD
ATOM     26  C   UNL     1      32.812  24.579  75.248  0.00  0.00    -0.064 C 
ATOM     27  C   UNL     1      31.690  23.509  75.134  0.00  0.00    +0.066 C 
ENDBRANCH  19  20
ENDBRANCH  18  19
ENDBRANCH  14  15
ENDBRANCH  12  13
TORSDOF 6
ENDMDL
MODEL 3
REMARK VINA RESULT:      -7.4     18.330     24.771
REMARK  Name = C:\Users\Docking\Desktop\test protocol\1iep_ligandH.pdb
REMARK  8 active torsions:
REMARK  status: ('A' for Active; 'I' for Inactive)
REMARK    1  A    between atoms: _5  and  _11
REMARK    2  A    between atoms: _19  and  _21
REMARK    3  A    between atoms: _22  and  _66
REMARK    4  A    between atoms: _27  and  _30
REMARK    5  A    between atoms: _32  and  _33
REMARK    6  A    between atoms: _38  and  _43
REMARK    7  A    between atoms: _43  and  _46
REMARK    8  A    between atoms: _53  and  _55
REMARK                            x       y       z     vdW  Elec       q    Type
REMARK                         _______ _______ _______ _____ _____    ______ ____
ROOT
ATOM     10  C   UNL     1      16.672  19.177  72.585  0.00  0.00    +0.038 A 
ATOM     11  C   UNL     1      17.010  18.245  71.571  0.00  0.00    +0.047 A 
ATOM     12  C   UNL     1      18.209  18.413  70.765  0.00  0.00    +0.035 A 
ATOM     32  C   UNL     1      19.044  19.540  71.021  0.00  0.00    +0.024 A 
ATOM     33  C   UNL     1      18.714  20.497  72.048  0.00  0.00    +0.007 A 
ATOM     34  C   UNL     1      17.531  20.339  72.844  0.00  0.00    -0.029 A 
ATOM     35  C   UNL     1      17.224  21.400  73.926  0.00  0.00    +0.045 C 
ENDROOT
BRANCH  10   9
ATOM      4  C   UNL     1      11.987  19.842  73.393  0.00  0.00    +0.077 A 
ATOM      5  C   UNL     1      11.852  20.701  72.252  0.00  0.00    +0.048 A 
ATOM      6  C   UNL     1      13.014  20.952  71.488  0.00  0.00    +0.116 A 
ATOM      7  N   UNL     1      14.215  20.381  71.847  0.00  0.00    -0.223 NA
ATOM      8  C   UNL     1      14.312  19.559  72.954  0.00  0.00    +0.220 A 
ATOM      9  N   UNL     1      15.508  18.968  73.329  0.00  0.00    -0.283 N 
ATOM     36  H   UNL     1      15.540  18.373  74.157  0.00  0.00    +0.155 HD
ATOM     37  N   UNL     1      13.217  19.304  73.701  0.00  0.00    -0.214 NA
BRANCH   4   3
ATOM      1  C   UNL     1       8.723  18.230  74.824  0.00  0.00    +0.020 A 
ATOM      2  C   UNL     1       9.798  18.547  73.913  0.00  0.00    +0.013 A 
ATOM      3  C   UNL     1      10.851  19.479  74.298  0.00  0.00    +0.019 A 
ATOM     38  C   UNL     1      10.786  20.076  75.623  0.00  0.00    +0.120 A 
ATOM     39  N   UNL     1       9.738  19.753  76.479  0.00  0.00    -0.263 NA
ATOM     40  C   UNL     1       8.718  18.859  76.119  0.00  0.00    +0.111 A 
ENDBRANCH   4   3
ENDBRANCH  10   9
BRANCH  12  13
ATOM     13  N   UNL     1      18.600  17.504  69.716  0.00  0.00    -0.281 N 
ATOM     14  C   UNL     1      18.878  16.151  69.822  0.00  0.00    +0.248 C 
ATOM     30  O   UNL     1      19.042  15.559  70.878  0.00  0.00    -0.270 OA
ATOM     31  H   UNL     1      18.680  17.906  68.782  0.00  0.00    +0.155 HD
BRANCH  14  15
ATOM     15  C   UNL     1      19.008  15.341  68.572  0.00  0.00    +0.037 A 
ATOM     16  C   UNL     1      20.291  14.755  68.176  0.00  0.00    +0.013 A 
ATOM     17  C   UNL     1      20.392  13.992  66.957  0.00  0.00    +0.005 A 
ATOM     18  C   UNL     1      19.205  13.810  66.126  0.00  0.00    -0.033 A 
ATOM     28  C   UNL     1      17.943  14.397  66.545  0.00  0.00    +0.005 A 
ATOM     29  C   UNL     1      17.841  15.147  67.739  0.00  0.00    +0.013 A 
BRANCH  18  19
ATOM     19  C   UNL     1      19.225  13.029  64.798  0.00  0.00    +0.119 C 
BRANCH  19  20
ATOM     20  N   UNL     1      17.955  12.368  64.374  0.00  0.00    -0.302 NA
ATOM     21  C   UNL     1      17.941  10.876  64.719  0.00  0.00    +0.066 C 
ATOM     22  C   UNL     1      16.596  10.205  64.289  0.00  0.00    -0.064 C 
ATOM     23  N   UNL     1      16.380  10.416  62.790  0.00  0.00    +0.379 N 
ATOM     24  C   UNL     1      15.145   9.737  62.371  0.00  0.00    -0.096 C 
ATOM     25  H   UNL     1      17.231   9.933  62.255  0.00  0.00    -0.082 HD
ATOM     26  C   UNL     1      16.396  11.897  62.438  0.00  0.00    -0.064 C 
ATOM     27  C   UNL     1      17.724  12.560  62.896  0.00  0.00    +0.066 C 
ENDBRANCH  19  20
ENDBRANCH  18  19
ENDBRANCH  14  15
ENDBRANCH  12  13
TORSDOF 6
ENDMDL
