MODEL 1
REMARK VINA RESULT:      -9.0      0.000      0.000
REMARK  Name = C:\Users\Docking\Desktop\test protocol\1iep_ligandH.pdb
REMARK  8 active torsions:
REMARK  status: ('A' for Active; 'I' for Inactive)
REMARK    1  A    between atoms: _5  and  _11
REMARK    2  A    between atoms: _19  and  _21
REMARK    3  A    between atoms: _22  and  _66
REMARK    4  A    between atoms: _27  and  _30
REMARK    5  A    between atoms: _32  and  _33
REMARK    6  A    between atoms: _38  and  _43
REMARK    7  A    between atoms: _43  and  _46
REMARK    8  A    between atoms: _53  and  _55
REMARK                            x       y       z     vdW  Elec       q    Type
REMARK                         _______ _______ _______ _____ _____    ______ ____
ROOT
ATOM     10  C   UNL     1       7.802  13.596  58.044  0.00  0.00    +0.038 A 
ATOM     11  C   UNL     1       8.467  12.876  57.018  0.00  0.00    +0.047 A 
ATOM     12  C   UNL     1       7.721  12.109  56.033  0.00  0.00    +0.035 A 
ATOM     32  C   UNL     1       6.298  12.098  56.121  0.00  0.00    +0.024 A 
ATOM     33  C   UNL     1       5.607  12.822  57.158  0.00  0.00    +0.007 A 
ATOM     34  C   UNL     1       6.337  13.579  58.134  0.00  0.00    -0.029 A 
ATOM     35  C   UNL     1       5.544  14.332  59.228  0.00  0.00    +0.045 C 
ENDROOT
BRANCH  10   9
ATOM      4  C   UNL     1      10.537  17.350  59.255  0.00  0.00    +0.077 A 
ATOM      5  C   UNL     1      10.455  17.910  57.936  0.00  0.00    +0.048 A 
ATOM      6  C   UNL     1       9.705  17.197  56.974  0.00  0.00    +0.116 A 
ATOM      7  N   UNL     1       9.087  16.014  57.316  0.00  0.00    -0.223 NA
ATOM      8  C   UNL     1       9.188  15.500  58.596  0.00  0.00    +0.220 A 
ATOM      9  N   UNL     1       8.568  14.316  58.963  0.00  0.00    -0.283 N 
ATOM     36  H   UNL     1       8.672  13.967  59.916  0.00  0.00    +0.155 HD
ATOM     37  N   UNL     1       9.899  16.161  59.532  0.00  0.00    -0.214 NA
BRANCH   4   3
ATOM      1  C   UNL     1      12.068  19.993  61.698  0.00  0.00    +0.020 A 
ATOM      2  C   UNL     1      11.327  19.428  60.594  0.00  0.00    +0.013 A 
ATOM      3  C   UNL     1      11.289  17.987  60.381  0.00  0.00    +0.019 A 
ATOM     38  C   UNL     1      12.017  17.138  61.312  0.00  0.00    +0.120 A 
ATOM     39  N   UNL     1      12.723  17.710  62.366  0.00  0.00    -0.263 NA
ATOM     40  C   UNL     1      12.768  19.096  62.579  0.00  0.00    +0.111 A 
ENDBRANCH   4   3
ENDBRANCH  10   9
BRANCH  12  13
ATOM     13  N   UNL     1       8.341  11.352  54.974  0.00  0.00    -0.281 N 
ATOM     14  C   UNL     1       7.751  10.857  53.822  0.00  0.00    +0.248 C 
ATOM     30  O   UNL     1       6.545  10.806  53.631  0.00  0.00    -0.270 OA
ATOM     31  H   UNL     1       9.336  11.158  55.086  0.00  0.00    +0.155 HD
BRANCH  14  15
ATOM     15  C   UNL     1       8.626  10.329  52.732  0.00  0.00    +0.037 A 
ATOM     16  C   UNL     1       8.078   9.984  51.418  0.00  0.00    +0.013 A 
ATOM     17  C   UNL     1       8.942   9.460  50.389  0.00  0.00    +0.005 A 
ATOM     18  C   UNL     1      10.364   9.279  50.671  0.00  0.00    -0.033 A 
ATOM     28  C   UNL     1      10.881   9.634  51.982  0.00  0.00    +0.005 A 
ATOM     29  C   UNL     1      10.038  10.147  52.993  0.00  0.00    +0.013 A 
BRANCH  18  19
ATOM     19  C   UNL     1      11.355   8.707  49.640  0.00  0.00    +0.119 C 
BRANCH  19  20
ATOM     20  N   UNL     1      12.792   9.081  49.793  0.00  0.00    -0.302 NA
ATOM     21  C   UNL     1      13.114  10.417  49.117  0.00  0.00    +0.066 C 
ATOM     22  C   UNL     1      14.617  10.803  49.306  0.00  0.00    -0.064 C 
ATOM     23  N   UNL     1      15.501   9.687  48.748  0.00  0.00    +0.379 N 
ATOM     24  C   UNL     1      16.915  10.073  48.872  0.00  0.00    -0.096 C 
ATOM     25  H   UNL     1      15.272   9.586  47.662  0.00  0.00    -0.082 HD
ATOM     26  C   UNL     1      15.187   8.355  49.413  0.00  0.00    -0.064 C 
ATOM     27  C   UNL     1      13.684   7.994  49.244  0.00  0.00    +0.066 C 
ENDBRANCH  19  20
ENDBRANCH  18  19
ENDBRANCH  14  15
ENDBRANCH  12  13
TORSDOF 6
ENDMDL
MODEL 2
REMARK VINA RESULT:      -8.7      4.946     12.179
REMARK  Name = C:\Users\Docking\Desktop\test protocol\1iep_ligandH.pdb
REMARK  8 active torsions:
REMARK  status: ('A' for Active; 'I' for Inactive)
REMARK    1  A    between atoms: _5  and  _11
REMARK    2  A    between atoms: _19  and  _21
REMARK    3  A    between atoms: _22  and  _66
REMARK    4  A    between atoms: _27  and  _30
REMARK    5  A    between atoms: _32  and  _33
REMARK    6  A    between atoms: _38  and  _43
REMARK    7  A    between atoms: _43  and  _46
REMARK    8  A    between atoms: _53  and  _55
REMARK                            x       y       z     vdW  Elec       q    Type
REMARK                         _______ _______ _______ _____ _____    ______ ____
ROOT
ATOM     10  C   UNL     1      10.827  16.084  58.433  0.00  0.00    +0.038 A 
ATOM     11  C   UNL     1      11.583  15.699  59.570  0.00  0.00    +0.047 A 
ATOM     12  C   UNL     1      11.937  16.664  60.600  0.00  0.00    +0.035 A 
ATOM     32  C   UNL     1      11.502  18.012  60.441  0.00  0.00    +0.024 A 
ATOM     33  C   UNL     1      10.734  18.420  59.292  0.00  0.00    +0.007 A 
ATOM     34  C   UNL     1      10.384  17.474  58.271  0.00  0.00    -0.029 A 
ATOM     35  C   UNL     1       9.564  17.969  57.057  0.00  0.00    +0.045 C 
ENDROOT
BRANCH  10   9
ATOM      4  C   UNL     1       7.917  12.749  56.576  0.00  0.00    +0.077 A 
ATOM      5  C   UNL     1       6.948  12.931  57.617  0.00  0.00    +0.048 A 
ATOM      6  C   UNL     1       7.239  13.887  58.616  0.00  0.00    +0.116 A 
ATOM      7  N   UNL     1       8.416  14.603  58.567  0.00  0.00    -0.223 NA
ATOM      8  C   UNL     1       9.330  14.402  57.549  0.00  0.00    +0.220 A 
ATOM      9  N   UNL     1      10.516  15.117  57.475  0.00  0.00    -0.283 N 
ATOM     36  H   UNL     1      11.168  14.934  56.712  0.00  0.00    +0.155 HD
ATOM     37  N   UNL     1       9.076  13.494  56.584  0.00  0.00    -0.214 NA
BRANCH   4   3
ATOM      1  C   UNL     1       8.643  10.076  53.814  0.00  0.00    +0.020 A 
ATOM      2  C   UNL     1       8.857  11.000  54.904  0.00  0.00    +0.013 A 
ATOM      3  C   UNL     1       7.752  11.779  55.448  0.00  0.00    +0.019 A 
ATOM     38  C   UNL     1       6.432  11.597  54.862  0.00  0.00    +0.120 A 
ATOM     39  N   UNL     1       6.257  10.701  53.812  0.00  0.00    -0.263 NA
ATOM     40  C   UNL     1       7.313   9.948  53.279  0.00  0.00    +0.111 A 
ENDBRANCH   4   3
ENDBRANCH  10   9
BRANCH  12  13
ATOM     13  N   UNL     1      12.710  16.333  61.772  0.00  0.00    -0.281 N 
ATOM     14  C   UNL     1      12.297  15.635  62.895  0.00  0.00    +0.248 C 
ATOM     30  O   UNL     1      11.132  15.373  63.156  0.00  0.00    -0.270 OA
ATOM     31  H   UNL     1      13.678  16.652  61.773  0.00  0.00    +0.155 HD
BRANCH  14  15
ATOM     15  C   UNL     1      13.324  15.175  63.878  0.00  0.00    +0.037 A 
ATOM     16  C   UNL     1      14.112  13.962  63.642  0.00  0.00    +0.013 A 
ATOM     17  C   UNL     1      15.085  13.531  64.614  0.00  0.00    +0.005 A 
ATOM     18  C   UNL     1      15.277  14.316  65.831  0.00  0.00    -0.033 A 
ATOM     28  C   UNL     1      14.486  15.518  66.037  0.00  0.00    +0.005 A 
ATOM     29  C   UNL     1      13.531  15.943  65.087  0.00  0.00    +0.013 A 
BRANCH  18  19
ATOM     19  C   UNL     1      16.278  13.919  66.933  0.00  0.00    +0.119 C 
BRANCH  19  20
ATOM     20  N   UNL     1      17.729  14.127  66.645  0.00  0.00    -0.302 NA
ATOM     21  C   UNL     1      17.970  15.356  65.765  0.00  0.00    +0.066 C 
ATOM     22  C   UNL     1      19.494  15.572  65.493  0.00  0.00    -0.064 C 
ATOM     23  N   UNL     1      20.075  14.316  64.840  0.00  0.00    +0.379 N 
ATOM     24  C   UNL     1      21.495  14.537  64.530  0.00  0.00    -0.096 C 
ATOM     25  H   UNL     1      19.539  14.157  63.876  0.00  0.00    -0.082 HD
ATOM     26  C   UNL     1      19.837  13.088  65.708  0.00  0.00    -0.064 C 
ATOM     27  C   UNL     1      18.322  12.900  65.997  0.00  0.00    +0.066 C 
ENDBRANCH  19  20
ENDBRANCH  18  19
ENDBRANCH  14  15
ENDBRANCH  12  13
TORSDOF 6
ENDMDL
MODEL 3
REMARK VINA RESULT:      -8.2      3.111      5.936
REMARK  Name = C:\Users\Docking\Desktop\test protocol\1iep_ligandH.pdb
REMARK  8 active torsions:
REMARK  status: ('A' for Active; 'I' for Inactive)
REMARK    1  A    between atoms: _5  and  _11
REMARK    2  A    between atoms: _19  and  _21
REMARK    3  A    between atoms: _22  and  _66
REMARK    4  A    between atoms: _27  and  _30
REMARK    5  A    between atoms: _32  and  _33
REMARK    6  A    between atoms: _38  and  _43
REMARK    7  A    between atoms: _43  and  _46
REMARK    8  A    between atoms: _53  and  _55
REMARK                            x       y       z     vdW  Elec       q    Type
REMARK                         _______ _______ _______ _____ _____    ______ ____
ROOT
ATOM     10  C   UNL     1      11.799  16.592  60.161  0.00  0.00    +0.038 A 
ATOM     11  C   UNL     1      11.393  15.487  59.370  0.00  0.00    +0.047 A 
ATOM     12  C   UNL     1      10.483  15.658  58.248  0.00  0.00    +0.035 A 
ATOM     32  C   UNL     1      10.007  16.970  57.958  0.00  0.00    +0.024 A 
ATOM     33  C   UNL     1      10.409  18.105  58.752  0.00  0.00    +0.007 A 
ATOM     34  C   UNL     1      11.304  17.941  59.862  0.00  0.00    -0.029 A 
ATOM     35  C   UNL     1      11.696  19.192  60.682  0.00  0.00    +0.045 C 
ENDROOT
BRANCH  10   9
ATOM      4  C   UNL     1      12.717  16.024  64.838  0.00  0.00    +0.077 A 
ATOM      5  C   UNL     1      11.340  16.212  65.191  0.00  0.00    +0.048 A 
ATOM      6  C   UNL     1      10.428  16.459  64.141  0.00  0.00    +0.116 A 
ATOM      7  N   UNL     1      10.872  16.513  62.837  0.00  0.00    -0.223 NA
ATOM      8  C   UNL     1      12.207  16.329  62.531  0.00  0.00    +0.220 A 
ATOM      9  N   UNL     1      12.675  16.370  61.226  0.00  0.00    -0.283 N 
ATOM     36  H   UNL     1      13.669  16.237  61.042  0.00  0.00    +0.155 HD
ATOM     37  N   UNL     1      13.098  16.093  63.516  0.00  0.00    -0.214 NA
BRANCH   4   3
ATOM      1  C   UNL     1      14.918  16.090  68.071  0.00  0.00    +0.020 A 
ATOM      2  C   UNL     1      13.850  16.389  67.144  0.00  0.00    +0.013 A 
ATOM      3  C   UNL     1      13.800  15.751  65.835  0.00  0.00    +0.019 A 
ATOM     38  C   UNL     1      14.853  14.808  65.491  0.00  0.00    +0.120 A 
ATOM     39  N   UNL     1      15.870  14.541  66.403  0.00  0.00    -0.263 NA
ATOM     40  C   UNL     1      15.929  15.150  67.665  0.00  0.00    +0.111 A 
ENDBRANCH   4   3
ENDBRANCH  10   9
BRANCH  12  13
ATOM     13  N   UNL     1      10.029  14.572  57.415  0.00  0.00    -0.281 N 
ATOM     14  C   UNL     1       8.956  13.724  57.631  0.00  0.00    +0.248 C 
ATOM     30  O   UNL     1       8.347  13.635  58.687  0.00  0.00    -0.270 OA
ATOM     31  H   UNL     1      10.565  14.409  56.563  0.00  0.00    +0.155 HD
BRANCH  14  15
ATOM     15  C   UNL     1       8.501  12.837  56.517  0.00  0.00    +0.037 A 
ATOM     16  C   UNL     1       7.084  12.726  56.164  0.00  0.00    +0.013 A 
ATOM     17  C   UNL     1       6.671  11.849  55.097  0.00  0.00    +0.005 A 
ATOM     18  C   UNL     1       7.678  11.077  54.374  0.00  0.00    -0.033 A 
ATOM     28  C   UNL     1       9.078  11.210  54.742  0.00  0.00    +0.005 A 
ATOM     29  C   UNL     1       9.487  12.067  55.788  0.00  0.00    +0.013 A 
BRANCH  18  19
ATOM     19  C   UNL     1       7.326  10.102  53.235  0.00  0.00    +0.119 C 
BRANCH  19  20
ATOM     20  N   UNL     1       8.223  10.092  52.041  0.00  0.00    -0.302 NA
ATOM     21  C   UNL     1       7.466   9.741  50.757  0.00  0.00    +0.066 C 
ATOM     22  C   UNL     1       8.415   9.758  49.514  0.00  0.00    -0.064 C 
ATOM     23  N   UNL     1       9.571   8.783  49.745  0.00  0.00    +0.379 N 
ATOM     24  C   UNL     1      10.433   8.753  48.555  0.00  0.00    -0.096 C 
ATOM     25  H   UNL     1       9.134   7.765  49.872  0.00  0.00    -0.082 HD
ATOM     26  C   UNL     1      10.327   9.123  51.022  0.00  0.00    -0.064 C 
ATOM     27  C   UNL     1       9.369   9.132  52.246  0.00  0.00    +0.066 C 
ENDBRANCH  19  20
ENDBRANCH  18  19
ENDBRANCH  14  15
ENDBRANCH  12  13
TORSDOF 6
ENDMDL
