MODEL 1
REMARK VINA RESULT:      -8.1      0.000      0.000
REMARK  Name = C:\Users\Docking\Desktop\test protocol\1iep_ligandH.pdb
REMARK  8 active torsions:
REMARK  status: ('A' for Active; 'I' for Inactive)
REMARK    1  A    between atoms: _5  and  _11
REMARK    2  A    between atoms: _19  and  _21
REMARK    3  A    between atoms: _22  and  _66
REMARK    4  A    between atoms: _27  and  _30
REMARK    5  A    between atoms: _32  and  _33
REMARK    6  A    between atoms: _38  and  _43
REMARK    7  A    between atoms: _43  and  _46
REMARK    8  A    between atoms: _53  and  _55
REMARK                            x       y       z     vdW  Elec       q    Type
REMARK                         _______ _______ _______ _____ _____    ______ ____
ROOT
ATOM     10  C   UNL     1      39.516  42.127  21.013  0.00  0.00    +0.038 A 
ATOM     11  C   UNL     1      40.448  42.145  22.082  0.00  0.00    +0.047 A 
ATOM     12  C   UNL     1      40.435  41.116  23.109  0.00  0.00    +0.035 A 
ATOM     32  C   UNL     1      39.460  40.080  23.015  0.00  0.00    +0.024 A 
ATOM     33  C   UNL     1      38.504  40.047  21.936  0.00  0.00    +0.007 A 
ATOM     34  C   UNL     1      38.511  41.062  20.921  0.00  0.00    -0.029 A 
ATOM     35  C   UNL     1      37.458  40.980  19.791  0.00  0.00    +0.045 C 
ENDROOT
BRANCH  10   9
ATOM      4  C   UNL     1      38.101  46.354  19.231  0.00  0.00    +0.077 A 
ATOM      5  C   UNL     1      37.147  46.545  20.285  0.00  0.00    +0.048 A 
ATOM      6  C   UNL     1      37.046  45.530  21.262  0.00  0.00    +0.116 A 
ATOM      7  N   UNL     1      37.845  44.410  21.181  0.00  0.00    -0.223 NA
ATOM      8  C   UNL     1      38.754  44.255  20.151  0.00  0.00    +0.220 A 
ATOM      9  N   UNL     1      39.574  43.141  20.054  0.00  0.00    -0.283 N 
ATOM     36  H   UNL     1      40.226  43.061  19.275  0.00  0.00    +0.155 HD
ATOM     37  N   UNL     1      38.869  45.211  19.205  0.00  0.00    -0.214 NA
BRANCH   4   3
ATOM      1  C   UNL     1      37.718  49.405  16.814  0.00  0.00    +0.020 A 
ATOM      2  C   UNL     1      37.455  48.483  17.895  0.00  0.00    +0.013 A 
ATOM      3  C   UNL     1      38.327  47.339  18.127  0.00  0.00    +0.019 A 
ATOM     38  C   UNL     1      39.467  47.156  17.240  0.00  0.00    +0.120 A 
ATOM     39  N   UNL     1      39.694  48.059  16.207  0.00  0.00    -0.263 NA
ATOM     40  C   UNL     1      38.860  49.163  15.973  0.00  0.00    +0.111 A 
ENDBRANCH   4   3
ENDBRANCH  10   9
BRANCH  12  13
ATOM     13  N   UNL     1      41.351  41.086  24.223  0.00  0.00    -0.281 N 
ATOM     14  C   UNL     1      42.724  41.264  24.200  0.00  0.00    +0.248 C 
ATOM     30  O   UNL     1      43.405  41.264  23.185  0.00  0.00    -0.270 OA
ATOM     31  H   UNL     1      40.936  40.913  25.138  0.00  0.00    +0.155 HD
BRANCH  14  15
ATOM     15  C   UNL     1      43.449  41.456  25.493  0.00  0.00    +0.037 A 
ATOM     16  C   UNL     1      44.294  42.630  25.724  0.00  0.00    +0.013 A 
ATOM     17  C   UNL     1      44.995  42.782  26.974  0.00  0.00    +0.005 A 
ATOM     18  C   UNL     1      44.853  41.757  28.004  0.00  0.00    -0.033 A 
ATOM     28  C   UNL     1      44.004  40.604  27.751  0.00  0.00    +0.005 A 
ATOM     29  C   UNL     1      43.316  40.452  26.527  0.00  0.00    +0.013 A 
BRANCH  18  19
ATOM     19  C   UNL     1      45.581  41.826  29.360  0.00  0.00    +0.119 C 
BRANCH  19  20
ATOM     20  N   UNL     1      47.030  41.465  29.377  0.00  0.00    -0.302 NA
ATOM     21  C   UNL     1      47.360  40.364  28.365  0.00  0.00    +0.066 C 
ATOM     22  C   UNL     1      48.884  40.015  28.381  0.00  0.00    -0.064 C 
ATOM     23  N   UNL     1      49.293  39.593  29.793  0.00  0.00    +0.379 N 
ATOM     24  C   UNL     1      50.712  39.209  29.798  0.00  0.00    -0.096 C 
ATOM     25  H   UNL     1      48.697  38.691  30.062  0.00  0.00    -0.082 HD
ATOM     26  C   UNL     1      48.966  40.681  30.806  0.00  0.00    -0.064 C 
ATOM     27  C   UNL     1      47.455  41.042  30.761  0.00  0.00    +0.066 C 
ENDBRANCH  19  20
ENDBRANCH  18  19
ENDBRANCH  14  15
ENDBRANCH  12  13
TORSDOF 6
ENDMDL
MODEL 2
REMARK VINA RESULT:      -7.6     16.363     20.298
REMARK  Name = C:\Users\Docking\Desktop\test protocol\1iep_ligandH.pdb
REMARK  8 active torsions:
REMARK  status: ('A' for Active; 'I' for Inactive)
REMARK    1  A    between atoms: _5  and  _11
REMARK    2  A    between atoms: _19  and  _21
REMARK    3  A    between atoms: _22  and  _66
REMARK    4  A    between atoms: _27  and  _30
REMARK    5  A    between atoms: _32  and  _33
REMARK    6  A    between atoms: _38  and  _43
REMARK    7  A    between atoms: _43  and  _46
REMARK    8  A    between atoms: _53  and  _55
REMARK                            x       y       z     vdW  Elec       q    Type
REMARK                         _______ _______ _______ _____ _____    ______ ____
ROOT
ATOM     10  C   UNL     1      36.583  56.315  10.541  0.00  0.00    +0.038 A 
ATOM     11  C   UNL     1      36.238  56.784  11.835  0.00  0.00    +0.047 A 
ATOM     12  C   UNL     1      35.030  57.564  12.055  0.00  0.00    +0.035 A 
ATOM     32  C   UNL     1      34.194  57.846  10.936  0.00  0.00    +0.024 A 
ATOM     33  C   UNL     1      34.530  57.378   9.614  0.00  0.00    +0.007 A 
ATOM     34  C   UNL     1      35.721  56.610   9.390  0.00  0.00    -0.029 A 
ATOM     35  C   UNL     1      36.035  56.140   7.950  0.00  0.00    +0.045 C 
ENDROOT
BRANCH  10   9
ATOM      4  C   UNL     1      38.995  52.166  10.568  0.00  0.00    +0.077 A 
ATOM      5  C   UNL     1      37.829  51.422  10.948  0.00  0.00    +0.048 A 
ATOM      6  C   UNL     1      36.630  52.146  11.133  0.00  0.00    +0.116 A 
ATOM      7  N   UNL     1      36.610  53.512  10.949  0.00  0.00    -0.223 NA
ATOM      8  C   UNL     1      37.753  54.199  10.585  0.00  0.00    +0.220 A 
ATOM      9  N   UNL     1      37.754  55.571  10.387  0.00  0.00    -0.283 N 
ATOM     36  H   UNL     1      38.620  56.042  10.126  0.00  0.00    +0.155 HD
ATOM     37  N   UNL     1      38.911  53.531  10.403  0.00  0.00    -0.214 NA
BRANCH   4   3
ATOM      1  C   UNL     1      42.642  50.847  11.082  0.00  0.00    +0.020 A 
ATOM      2  C   UNL     1      41.364  51.460  11.362  0.00  0.00    +0.013 A 
ATOM      3  C   UNL     1      40.336  51.543  10.331  0.00  0.00    +0.019 A 
ATOM     38  C   UNL     1      40.636  50.992   9.018  0.00  0.00    +0.120 A 
ATOM     39  N   UNL     1      41.876  50.410   8.777  0.00  0.00    -0.263 NA
ATOM     40  C   UNL     1      42.873  50.326   9.760  0.00  0.00    +0.111 A 
ENDBRANCH   4   3
ENDBRANCH  10   9
BRANCH  12  13
ATOM     13  N   UNL     1      34.633  58.074  13.344  0.00  0.00    -0.281 N 
ATOM     14  C   UNL     1      34.010  57.391  14.375  0.00  0.00    +0.248 C 
ATOM     30  O   UNL     1      33.504  56.284  14.264  0.00  0.00    -0.270 OA
ATOM     31  H   UNL     1      34.836  59.059  13.518  0.00  0.00    +0.155 HD
BRANCH  14  15
ATOM     15  C   UNL     1      33.923  58.036  15.721  0.00  0.00    +0.037 A 
ATOM     16  C   UNL     1      33.087  57.469  16.782  0.00  0.00    +0.013 A 
ATOM     17  C   UNL     1      33.009  58.121  18.066  0.00  0.00    +0.005 A 
ATOM     18  C   UNL     1      33.770  59.347  18.295  0.00  0.00    -0.033 A 
ATOM     28  C   UNL     1      34.596  59.884  17.226  0.00  0.00    +0.005 A 
ATOM     29  C   UNL     1      34.674  59.248  15.966  0.00  0.00    +0.013 A 
BRANCH  18  19
ATOM     19  C   UNL     1      33.729  60.120  19.626  0.00  0.00    +0.119 C 
BRANCH  19  20
ATOM     20  N   UNL     1      33.203  61.517  19.589  0.00  0.00    -0.302 NA
ATOM     21  C   UNL     1      34.310  62.541  19.323  0.00  0.00    +0.066 C 
ATOM     22  C   UNL     1      33.738  63.995  19.265  0.00  0.00    -0.064 C 
ATOM     23  N   UNL     1      33.014  64.308  20.576  0.00  0.00    +0.379 N 
ATOM     24  C   UNL     1      32.526  65.695  20.547  0.00  0.00    -0.096 C 
ATOM     25  H   UNL     1      33.760  64.229  21.401  0.00  0.00    -0.082 HD
ATOM     26  C   UNL     1      31.914  63.293  20.849  0.00  0.00    -0.064 C 
ATOM     27  C   UNL     1      32.488  61.849  20.875  0.00  0.00    +0.066 C 
ENDBRANCH  19  20
ENDBRANCH  18  19
ENDBRANCH  14  15
ENDBRANCH  12  13
TORSDOF 6
ENDMDL
MODEL 3
REMARK VINA RESULT:      -7.4      6.412     13.657
REMARK  Name = C:\Users\Docking\Desktop\test protocol\1iep_ligandH.pdb
REMARK  8 active torsions:
REMARK  status: ('A' for Active; 'I' for Inactive)
REMARK    1  A    between atoms: _5  and  _11
REMARK    2  A    between atoms: _19  and  _21
REMARK    3  A    between atoms: _22  and  _66
REMARK    4  A    between atoms: _27  and  _30
REMARK    5  A    between atoms: _32  and  _33
REMARK    6  A    between atoms: _38  and  _43
REMARK    7  A    between atoms: _43  and  _46
REMARK    8  A    between atoms: _53  and  _55
REMARK                            x       y       z     vdW  Elec       q    Type
REMARK                         _______ _______ _______ _____ _____    ______ ____
ROOT
ATOM     10  C   UNL     1      40.270  43.857  19.656  0.00  0.00    +0.038 A 
ATOM     11  C   UNL     1      40.270  44.542  18.413  0.00  0.00    +0.047 A 
ATOM     12  C   UNL     1      41.504  45.050  17.834  0.00  0.00    +0.035 A 
ATOM     32  C   UNL     1      42.721  44.841  18.545  0.00  0.00    +0.024 A 
ATOM     33  C   UNL     1      42.739  44.148  19.810  0.00  0.00    +0.007 A 
ATOM     34  C   UNL     1      41.525  43.647  20.388  0.00  0.00    -0.029 A 
ATOM     35  C   UNL     1      41.604  42.918  21.749  0.00  0.00    +0.045 C 
ENDROOT
BRANCH  10   9
ATOM      4  C   UNL     1      35.890  44.576  21.481  0.00  0.00    +0.077 A 
ATOM      5  C   UNL     1      36.042  46.002  21.439  0.00  0.00    +0.048 A 
ATOM      6  C   UNL     1      37.266  46.510  20.948  0.00  0.00    +0.116 A 
ATOM      7  N   UNL     1      38.256  45.647  20.532  0.00  0.00    -0.223 NA
ATOM      8  C   UNL     1      38.078  44.277  20.587  0.00  0.00    +0.220 A 
ATOM      9  N   UNL     1      39.057  43.391  20.166  0.00  0.00    -0.283 N 
ATOM     36  H   UNL     1      38.890  42.387  20.230  0.00  0.00    +0.155 HD
ATOM     37  N   UNL     1      36.919  43.767  21.053  0.00  0.00    -0.214 NA
BRANCH   4   3
ATOM      1  C   UNL     1      32.696  43.660  23.546  0.00  0.00    +0.020 A 
ATOM      2  C   UNL     1      33.883  44.362  23.113  0.00  0.00    +0.013 A 
ATOM      3  C   UNL     1      34.654  43.888  21.971  0.00  0.00    +0.019 A 
ATOM     38  C   UNL     1      34.193  42.692  21.282  0.00  0.00    +0.120 A 
ATOM     39  N   UNL     1      33.048  42.036  21.722  0.00  0.00    -0.263 NA
ATOM     40  C   UNL     1      32.299  42.482  22.821  0.00  0.00    +0.111 A 
ENDBRANCH   4   3
ENDBRANCH  10   9
BRANCH  12  13
ATOM     13  N   UNL     1      41.564  45.759  16.580  0.00  0.00    -0.281 N 
ATOM     14  C   UNL     1      41.014  46.992  16.271  0.00  0.00    +0.248 C 
ATOM     30  O   UNL     1      40.200  47.579  16.969  0.00  0.00    -0.270 OA
ATOM     31  H   UNL     1      42.074  45.295  15.828  0.00  0.00    +0.155 HD
BRANCH  14  15
ATOM     15  C   UNL     1      41.414  47.664  14.998  0.00  0.00    +0.037 A 
ATOM     16  C   UNL     1      40.478  48.515  14.260  0.00  0.00    +0.013 A 
ATOM     17  C   UNL     1      40.884  49.137  13.025  0.00  0.00    +0.005 A 
ATOM     18  C   UNL     1      42.237  48.911  12.521  0.00  0.00    -0.033 A 
ATOM     28  C   UNL     1      43.148  48.067  13.276  0.00  0.00    +0.005 A 
ATOM     29  C   UNL     1      42.752  47.454  14.486  0.00  0.00    +0.013 A 
BRANCH  18  19
ATOM     19  C   UNL     1      42.750  49.518  11.201  0.00  0.00    +0.119 C 
BRANCH  19  20
ATOM     20  N   UNL     1      41.948  50.626  10.601  0.00  0.00    -0.302 NA
ATOM     21  C   UNL     1      42.155  50.729   9.087  0.00  0.00    +0.066 C 
ATOM     22  C   UNL     1      41.292  51.878   8.472  0.00  0.00    -0.064 C 
ATOM     23  N   UNL     1      41.643  53.200   9.158  0.00  0.00    +0.379 N 
ATOM     24  C   UNL     1      40.875  54.292   8.542  0.00  0.00    -0.096 C 
ATOM     25  H   UNL     1      42.724  53.400   8.973  0.00  0.00    -0.082 HD
ATOM     26  C   UNL     1      41.443  53.105  10.664  0.00  0.00    -0.064 C 
ATOM     27  C   UNL     1      42.282  51.941  11.261  0.00  0.00    +0.066 C 
ENDBRANCH  19  20
ENDBRANCH  18  19
ENDBRANCH  14  15
ENDBRANCH  12  13
TORSDOF 6
ENDMDL
