MODEL 1
REMARK VINA RESULT:      -7.7      0.000      0.000
REMARK  Name = C:\Users\Docking\Desktop\test protocol\1iep_ligandH.pdb
REMARK  8 active torsions:
REMARK  status: ('A' for Active; 'I' for Inactive)
REMARK    1  A    between atoms: _5  and  _11
REMARK    2  A    between atoms: _19  and  _21
REMARK    3  A    between atoms: _22  and  _66
REMARK    4  A    between atoms: _27  and  _30
REMARK    5  A    between atoms: _32  and  _33
REMARK    6  A    between atoms: _38  and  _43
REMARK    7  A    between atoms: _43  and  _46
REMARK    8  A    between atoms: _53  and  _55
REMARK                            x       y       z     vdW  Elec       q    Type
REMARK                         _______ _______ _______ _____ _____    ______ ____
ROOT
ATOM     10  C   UNL     1      -3.640  16.200  23.140  0.00  0.00    +0.038 A 
ATOM     11  C   UNL     1      -2.860  17.205  22.515  0.00  0.00    +0.047 A 
ATOM     12  C   UNL     1      -2.808  17.325  21.066  0.00  0.00    +0.035 A 
ATOM     32  C   UNL     1      -3.567  16.405  20.285  0.00  0.00    +0.024 A 
ATOM     33  C   UNL     1      -4.365  15.377  20.904  0.00  0.00    +0.007 A 
ATOM     34  C   UNL     1      -4.418  15.252  22.333  0.00  0.00    -0.029 A 
ATOM     35  C   UNL     1      -5.285  14.127  22.943  0.00  0.00    +0.045 C 
ENDROOT
BRANCH  10   9
ATOM      4  C   UNL     1      -2.104  14.366  27.302  0.00  0.00    +0.077 A 
ATOM      5  C   UNL     1      -1.221  13.450  26.640  0.00  0.00    +0.048 A 
ATOM      6  C   UNL     1      -1.197  13.478  25.227  0.00  0.00    +0.116 A 
ATOM      7  N   UNL     1      -2.001  14.360  24.538  0.00  0.00    -0.223 NA
ATOM      8  C   UNL     1      -2.842  15.229  25.208  0.00  0.00    +0.220 A 
ATOM      9  N   UNL     1      -3.653  16.131  24.535  0.00  0.00    -0.283 N 
ATOM     36  H   UNL     1      -4.266  16.750  25.065  0.00  0.00    +0.155 HD
ATOM     37  N   UNL     1      -2.885  15.222  26.556  0.00  0.00    -0.214 NA
BRANCH   4   3
ATOM      1  C   UNL     1      -1.302  14.836  31.101  0.00  0.00    +0.020 A 
ATOM      2  C   UNL     1      -1.117  14.757  29.670  0.00  0.00    +0.013 A 
ATOM      3  C   UNL     1      -2.240  14.460  28.790  0.00  0.00    +0.019 A 
ATOM     38  C   UNL     1      -3.547  14.248  29.393  0.00  0.00    +0.120 A 
ATOM     39  N   UNL     1      -3.694  14.329  30.774  0.00  0.00    -0.263 NA
ATOM     40  C   UNL     1      -2.621  14.612  31.632  0.00  0.00    +0.111 A 
ENDBRANCH   4   3
ENDBRANCH  10   9
BRANCH  12  13
ATOM     13  N   UNL     1      -2.027  18.320  20.374  0.00  0.00    -0.281 N 
ATOM     14  C   UNL     1      -0.881  18.130  19.620  0.00  0.00    +0.248 C 
ATOM     30  O   UNL     1      -0.229  17.096  19.602  0.00  0.00    -0.270 OA
ATOM     31  H   UNL     1      -2.360  19.282  20.450  0.00  0.00    +0.155 HD
BRANCH  14  15
ATOM     15  C   UNL     1      -0.378  19.255  18.774  0.00  0.00    +0.037 A 
ATOM     16  C   UNL     1      -0.157  20.589  19.338  0.00  0.00    +0.013 A 
ATOM     17  C   UNL     1       0.313  21.661  18.497  0.00  0.00    +0.005 A 
ATOM     18  C   UNL     1       0.566  21.402  17.081  0.00  0.00    -0.033 A 
ATOM     28  C   UNL     1       0.343  20.068  16.549  0.00  0.00    +0.005 A 
ATOM     29  C   UNL     1      -0.118  19.015  17.371  0.00  0.00    +0.013 A 
BRANCH  18  19
ATOM     19  C   UNL     1       1.048  22.492  16.105  0.00  0.00    +0.119 C 
BRANCH  19  20
ATOM     20  N   UNL     1       2.494  22.861  16.152  0.00  0.00    -0.302 NA
ATOM     21  C   UNL     1       2.857  23.598  17.445  0.00  0.00    +0.066 C 
ATOM     22  C   UNL     1       4.378  23.957  17.488  0.00  0.00    -0.064 C 
ATOM     23  N   UNL     1       4.734  24.803  16.264  0.00  0.00    +0.379 N 
ATOM     24  C   UNL     1       6.150  25.191  16.331  0.00  0.00    -0.096 C 
ATOM     25  H   UNL     1       4.125  25.735  16.309  0.00  0.00    -0.082 HD
ATOM     26  C   UNL     1       4.374  24.078  14.974  0.00  0.00    -0.064 C 
ATOM     27  C   UNL     1       2.867  23.700  14.955  0.00  0.00    +0.066 C 
ENDBRANCH  19  20
ENDBRANCH  18  19
ENDBRANCH  14  15
ENDBRANCH  12  13
TORSDOF 6
ENDMDL
MODEL 2
REMARK VINA RESULT:      -7.6      3.150     12.124
REMARK  Name = C:\Users\Docking\Desktop\test protocol\1iep_ligandH.pdb
REMARK  8 active torsions:
REMARK  status: ('A' for Active; 'I' for Inactive)
REMARK    1  A    between atoms: _5  and  _11
REMARK    2  A    between atoms: _19  and  _21
REMARK    3  A    between atoms: _22  and  _66
REMARK    4  A    between atoms: _27  and  _30
REMARK    5  A    between atoms: _32  and  _33
REMARK    6  A    between atoms: _38  and  _43
REMARK    7  A    between atoms: _43  and  _46
REMARK    8  A    between atoms: _53  and  _55
REMARK                            x       y       z     vdW  Elec       q    Type
REMARK                         _______ _______ _______ _____ _____    ______ ____
ROOT
ATOM     10  C   UNL     1      -3.620  15.366  22.669  0.00  0.00    +0.038 A 
ATOM     11  C   UNL     1      -3.236  15.488  24.029  0.00  0.00    +0.047 A 
ATOM     12  C   UNL     1      -3.606  14.479  25.009  0.00  0.00    +0.035 A 
ATOM     32  C   UNL     1      -4.366  13.356  24.568  0.00  0.00    +0.024 A 
ATOM     33  C   UNL     1      -4.766  13.217  23.190  0.00  0.00    +0.007 A 
ATOM     34  C   UNL     1      -4.406  14.210  22.219  0.00  0.00    -0.029 A 
ATOM     35  C   UNL     1      -4.867  14.013  20.757  0.00  0.00    +0.045 C 
ENDROOT
BRANCH  10   9
ATOM      4  C   UNL     1      -0.484  17.339  19.617  0.00  0.00    +0.077 A 
ATOM      5  C   UNL     1       0.484  16.307  19.853  0.00  0.00    +0.048 A 
ATOM      6  C   UNL     1       0.139  15.291  20.772  0.00  0.00    +0.116 A 
ATOM      7  N   UNL     1      -1.086  15.315  21.403  0.00  0.00    -0.223 NA
ATOM      8  C   UNL     1      -1.996  16.325  21.154  0.00  0.00    +0.220 A 
ATOM      9  N   UNL     1      -3.237  16.365  21.771  0.00  0.00    -0.283 N 
ATOM     36  H   UNL     1      -3.878  17.131  21.566  0.00  0.00    +0.155 HD
ATOM     37  N   UNL     1      -1.690  17.308  20.282  0.00  0.00    -0.214 NA
BRANCH   4   3
ATOM      1  C   UNL     1      -0.006  20.934  18.152  0.00  0.00    +0.020 A 
ATOM      2  C   UNL     1      -0.217  19.870  19.106  0.00  0.00    +0.013 A 
ATOM      3  C   UNL     1      -0.268  18.479  18.672  0.00  0.00    +0.019 A 
ATOM     38  C   UNL     1      -0.099  18.198  17.254  0.00  0.00    +0.120 A 
ATOM     39  N   UNL     1       0.102  19.243  16.359  0.00  0.00    -0.263 NA
ATOM     40  C   UNL     1       0.151  20.585  16.765  0.00  0.00    +0.111 A 
ENDBRANCH   4   3
ENDBRANCH  10   9
BRANCH  12  13
ATOM     13  N   UNL     1      -3.252  14.553  26.404  0.00  0.00    -0.281 N 
ATOM     14  C   UNL     1      -2.118  14.053  27.023  0.00  0.00    +0.248 C 
ATOM     30  O   UNL     1      -1.333  13.274  26.502  0.00  0.00    -0.270 OA
ATOM     31  H   UNL     1      -3.918  15.033  27.010  0.00  0.00    +0.155 HD
BRANCH  14  15
ATOM     15  C   UNL     1      -1.820  14.466  28.428  0.00  0.00    +0.037 A 
ATOM     16  C   UNL     1      -2.802  15.203  29.228  0.00  0.00    +0.013 A 
ATOM     17  C   UNL     1      -2.482  15.604  30.575  0.00  0.00    +0.005 A 
ATOM     18  C   UNL     1      -1.174  15.267  31.132  0.00  0.00    -0.033 A 
ATOM     28  C   UNL     1      -0.221  14.530  30.318  0.00  0.00    +0.005 A 
ATOM     29  C   UNL     1      -0.530  14.136  28.997  0.00  0.00    +0.013 A 
BRANCH  18  19
ATOM     19  C   UNL     1      -0.740  15.673  32.552  0.00  0.00    +0.119 C 
BRANCH  19  20
ATOM     20  N   UNL     1       0.698  16.023  32.754  0.00  0.00    -0.302 NA
ATOM     21  C   UNL     1       1.053  16.159  34.238  0.00  0.00    +0.066 C 
ATOM     22  C   UNL     1       2.566  16.503  34.431  0.00  0.00    -0.064 C 
ATOM     23  N   UNL     1       2.894  17.792  33.675  0.00  0.00    +0.379 N 
ATOM     24  C   UNL     1       4.301  18.150  33.902  0.00  0.00    -0.096 C 
ATOM     25  H   UNL     1       2.264  18.606  34.105  0.00  0.00    -0.082 HD
ATOM     26  C   UNL     1       2.541  17.666  32.200  0.00  0.00    -0.064 C 
ATOM     27  C   UNL     1       1.042  17.295  32.019  0.00  0.00    +0.066 C 
ENDBRANCH  19  20
ENDBRANCH  18  19
ENDBRANCH  14  15
ENDBRANCH  12  13
TORSDOF 6
ENDMDL
MODEL 3
REMARK VINA RESULT:      -7.6     23.008     25.315
REMARK  Name = C:\Users\Docking\Desktop\test protocol\1iep_ligandH.pdb
REMARK  8 active torsions:
REMARK  status: ('A' for Active; 'I' for Inactive)
REMARK    1  A    between atoms: _5  and  _11
REMARK    2  A    between atoms: _19  and  _21
REMARK    3  A    between atoms: _22  and  _66
REMARK    4  A    between atoms: _27  and  _30
REMARK    5  A    between atoms: _32  and  _33
REMARK    6  A    between atoms: _38  and  _43
REMARK    7  A    between atoms: _43  and  _46
REMARK    8  A    between atoms: _53  and  _55
REMARK                            x       y       z     vdW  Elec       q    Type
REMARK                         _______ _______ _______ _____ _____    ______ ____
ROOT
ATOM     10  C   UNL     1      -6.516  41.139  12.779  0.00  0.00    +0.038 A 
ATOM     11  C   UNL     1      -5.334  41.482  13.484  0.00  0.00    +0.047 A 
ATOM     12  C   UNL     1      -4.062  41.628  12.795  0.00  0.00    +0.035 A 
ATOM     32  C   UNL     1      -4.030  41.421  11.385  0.00  0.00    +0.024 A 
ATOM     33  C   UNL     1      -5.221  41.072  10.652  0.00  0.00    +0.007 A 
ATOM     34  C   UNL     1      -6.479  40.923  11.327  0.00  0.00    -0.029 A 
ATOM     35  C   UNL     1      -7.723  40.541  10.492  0.00  0.00    +0.045 C 
ENDROOT
BRANCH  10   9
ATOM      4  C   UNL     1      -9.518  38.681  15.604  0.00  0.00    +0.077 A 
ATOM      5  C   UNL     1      -8.644  37.543  15.642  0.00  0.00    +0.048 A 
ATOM      6  C   UNL     1      -7.436  37.629  14.916  0.00  0.00    +0.116 A 
ATOM      7  N   UNL     1      -7.133  38.771  14.208  0.00  0.00    -0.223 NA
ATOM      8  C   UNL     1      -7.998  39.850  14.190  0.00  0.00    +0.220 A 
ATOM      9  N   UNL     1      -7.711  41.012  13.491  0.00  0.00    -0.283 N 
ATOM     36  H   UNL     1      -8.379  41.783  13.498  0.00  0.00    +0.155 HD
ATOM     37  N   UNL     1      -9.160  39.793  14.875  0.00  0.00    -0.214 NA
BRANCH   4   3
ATOM      1  C   UNL     1     -12.339  38.209  18.273  0.00  0.00    +0.020 A 
ATOM      2  C   UNL     1     -11.053  38.118  17.620  0.00  0.00    +0.013 A 
ATOM      3  C   UNL     1     -10.829  38.744  16.324  0.00  0.00    +0.019 A 
ATOM     38  C   UNL     1     -11.936  39.462  15.710  0.00  0.00    +0.120 A 
ATOM     39  N   UNL     1     -13.164  39.532  16.361  0.00  0.00    -0.263 NA
ATOM     40  C   UNL     1     -13.391  38.932  17.608  0.00  0.00    +0.111 A 
ENDBRANCH   4   3
ENDBRANCH  10   9
BRANCH  12  13
ATOM     13  N   UNL     1      -2.828  41.966  13.459  0.00  0.00    -0.281 N 
ATOM     14  C   UNL     1      -2.223  43.209  13.553  0.00  0.00    +0.248 C 
ATOM     30  O   UNL     1      -2.546  44.186  12.893  0.00  0.00    -0.270 OA
ATOM     31  H   UNL     1      -2.341  41.195  13.917  0.00  0.00    +0.155 HD
BRANCH  14  15
ATOM     15  C   UNL     1      -1.087  43.390  14.506  0.00  0.00    +0.037 A 
ATOM     16  C   UNL     1      -0.384  44.670  14.617  0.00  0.00    +0.013 A 
ATOM     17  C   UNL     1       0.720  44.813  15.533  0.00  0.00    +0.005 A 
ATOM     18  C   UNL     1       1.127  43.670  16.347  0.00  0.00    -0.033 A 
ATOM     28  C   UNL     1       0.409  42.412  16.221  0.00  0.00    +0.005 A 
ATOM     29  C   UNL     1      -0.673  42.269  15.324  0.00  0.00    +0.013 A 
BRANCH  18  19
ATOM     19  C   UNL     1       2.307  43.725  17.335  0.00  0.00    +0.119 C 
BRANCH  19  20
ATOM     20  N   UNL     1       3.587  43.086  16.907  0.00  0.00    -0.302 NA
ATOM     21  C   UNL     1       3.736  43.062  15.384  0.00  0.00    +0.066 C 
ATOM     22  C   UNL     1       5.091  42.411  14.954  0.00  0.00    -0.064 C 
ATOM     23  N   UNL     1       5.179  40.996  15.530  0.00  0.00    +0.379 N 
ATOM     24  C   UNL     1       6.426  40.360  15.080  0.00  0.00    -0.096 C 
ATOM     25  H   UNL     1       4.329  40.408  15.112  0.00  0.00    -0.082 HD
ATOM     26  C   UNL     1       5.029  41.011  17.044  0.00  0.00    -0.064 C 
ATOM     27  C   UNL     1       3.693  41.686  17.461  0.00  0.00    +0.066 C 
ENDBRANCH  19  20
ENDBRANCH  18  19
ENDBRANCH  14  15
ENDBRANCH  12  13
TORSDOF 6
ENDMDL
