MODEL 1
REMARK VINA RESULT:      -6.0      0.000      0.000
REMARK  Name = C:\Users\Docking\Desktop\test protocol\1iep_ligandH.pdb
REMARK  8 active torsions:
REMARK  status: ('A' for Active; 'I' for Inactive)
REMARK    1  A    between atoms: _5  and  _11
REMARK    2  A    between atoms: _19  and  _21
REMARK    3  A    between atoms: _22  and  _66
REMARK    4  A    between atoms: _27  and  _30
REMARK    5  A    between atoms: _32  and  _33
REMARK    6  A    between atoms: _38  and  _43
REMARK    7  A    between atoms: _43  and  _46
REMARK    8  A    between atoms: _53  and  _55
REMARK                            x       y       z     vdW  Elec       q    Type
REMARK                         _______ _______ _______ _____ _____    ______ ____
ROOT
ATOM     10  C   UNL     1      26.189  11.136   8.863  0.00  0.00    +0.038 A 
ATOM     11  C   UNL     1      26.336  10.227   9.941  0.00  0.00    +0.047 A 
ATOM     12  C   UNL     1      26.778   8.859   9.718  0.00  0.00    +0.035 A 
ATOM     32  C   UNL     1      27.063   8.451   8.383  0.00  0.00    +0.024 A 
ATOM     33  C   UNL     1      26.918   9.361   7.274  0.00  0.00    +0.007 A 
ATOM     34  C   UNL     1      26.481  10.711   7.488  0.00  0.00    -0.029 A 
ATOM     35  C   UNL     1      26.336  11.642   6.261  0.00  0.00    +0.045 C 
ENDROOT
BRANCH  10   9
ATOM      4  C   UNL     1      27.045  15.729   9.962  0.00  0.00    +0.077 A 
ATOM      5  C   UNL     1      28.462  15.511  10.027  0.00  0.00    +0.048 A 
ATOM      6  C   UNL     1      28.929  14.201   9.778  0.00  0.00    +0.116 A 
ATOM      7  N   UNL     1      28.037  13.192   9.486  0.00  0.00    -0.223 NA
ATOM      8  C   UNL     1      26.677  13.436   9.433  0.00  0.00    +0.220 A 
ATOM      9  N   UNL     1      25.762  12.438   9.134  0.00  0.00    -0.283 N 
ATOM     36  H   UNL     1      24.766  12.656   9.113  0.00  0.00    +0.155 HD
ATOM     37  N   UNL     1      26.205  14.678   9.669  0.00  0.00    -0.214 NA
BRANCH   4   3
ATOM      1  C   UNL     1      26.198  19.264  11.406  0.00  0.00    +0.020 A 
ATOM      2  C   UNL     1      26.857  17.992  11.220  0.00  0.00    +0.013 A 
ATOM      3  C   UNL     1      26.399  17.059  10.198  0.00  0.00    +0.019 A 
ATOM     38  C   UNL     1      25.264  17.446   9.375  0.00  0.00    +0.120 A 
ATOM     39  N   UNL     1      24.648  18.677   9.578  0.00  0.00    -0.263 NA
ATOM     40  C   UNL     1      25.078  19.583  10.559  0.00  0.00    +0.111 A 
ENDBRANCH   4   3
ENDBRANCH  10   9
BRANCH  12  13
ATOM     13  N   UNL     1      26.938   7.889  10.773  0.00  0.00    -0.281 N 
ATOM     14  C   UNL     1      26.050   6.899  11.161  0.00  0.00    +0.248 C 
ATOM     30  O   UNL     1      24.886   6.832  10.796  0.00  0.00    -0.270 OA
ATOM     31  H   UNL     1      27.811   7.939  11.298  0.00  0.00    +0.155 HD
BRANCH  14  15
ATOM     15  C   UNL     1      26.520   5.836  12.101  0.00  0.00    +0.037 A 
ATOM     16  C   UNL     1      26.054   5.789  13.489  0.00  0.00    +0.013 A 
ATOM     17  C   UNL     1      26.536   4.764  14.380  0.00  0.00    +0.005 A 
ATOM     18  C   UNL     1      27.491   3.775  13.884  0.00  0.00    -0.033 A 
ATOM     28  C   UNL     1      27.933   3.842  12.501  0.00  0.00    +0.005 A 
ATOM     29  C   UNL     1      27.463   4.846  11.625  0.00  0.00    +0.013 A 
BRANCH  18  19
ATOM     19  C   UNL     1      28.075   2.658  14.769  0.00  0.00    +0.119 C 
BRANCH  19  20
ATOM     20  N   UNL     1      29.511   2.304  14.565  0.00  0.00    -0.302 NA
ATOM     21  C   UNL     1      29.827   0.885  15.046  0.00  0.00    +0.066 C 
ATOM     22  C   UNL     1      31.328   0.523  14.804  0.00  0.00    -0.064 C 
ATOM     23  N   UNL     1      32.217   1.546  15.513  0.00  0.00    +0.379 N 
ATOM     24  C   UNL     1      33.629   1.175  15.336  0.00  0.00    -0.096 C 
ATOM     25  H   UNL     1      31.988   1.495  16.603  0.00  0.00    -0.082 HD
ATOM     26  C   UNL     1      31.908   2.960  15.042  0.00  0.00    -0.064 C 
ATOM     27  C   UNL     1      30.407   3.299  15.260  0.00  0.00    +0.066 C 
ENDBRANCH  19  20
ENDBRANCH  18  19
ENDBRANCH  14  15
ENDBRANCH  12  13
TORSDOF 6
ENDMDL
MODEL 2
REMARK VINA RESULT:      -6.0      5.097      6.451
REMARK  Name = C:\Users\Docking\Desktop\test protocol\1iep_ligandH.pdb
REMARK  8 active torsions:
REMARK  status: ('A' for Active; 'I' for Inactive)
REMARK    1  A    between atoms: _5  and  _11
REMARK    2  A    between atoms: _19  and  _21
REMARK    3  A    between atoms: _22  and  _66
REMARK    4  A    between atoms: _27  and  _30
REMARK    5  A    between atoms: _32  and  _33
REMARK    6  A    between atoms: _38  and  _43
REMARK    7  A    between atoms: _43  and  _46
REMARK    8  A    between atoms: _53  and  _55
REMARK                            x       y       z     vdW  Elec       q    Type
REMARK                         _______ _______ _______ _____ _____    ______ ____
ROOT
ATOM     10  C   UNL     1      28.047  12.901   8.648  0.00  0.00    +0.038 A 
ATOM     11  C   UNL     1      27.175  12.347   9.619  0.00  0.00    +0.047 A 
ATOM     12  C   UNL     1      26.735  10.963   9.533  0.00  0.00    +0.035 A 
ATOM     32  C   UNL     1      27.206  10.171   8.445  0.00  0.00    +0.024 A 
ATOM     33  C   UNL     1      28.093  10.719   7.449  0.00  0.00    +0.007 A 
ATOM     34  C   UNL     1      28.528  12.084   7.527  0.00  0.00    -0.029 A 
ATOM     35  C   UNL     1      29.473  12.620   6.427  0.00  0.00    +0.045 C 
ENDROOT
BRANCH  10   9
ATOM      4  C   UNL     1      30.358  16.429  10.940  0.00  0.00    +0.077 A 
ATOM      5  C   UNL     1      30.804  15.544  11.977  0.00  0.00    +0.048 A 
ATOM      6  C   UNL     1      30.410  14.189  11.887  0.00  0.00    +0.116 A 
ATOM      7  N   UNL     1      29.630  13.764  10.834  0.00  0.00    -0.223 NA
ATOM      8  C   UNL     1      29.216  14.644   9.852  0.00  0.00    +0.220 A 
ATOM      9  N   UNL     1      28.438  14.236   8.779  0.00  0.00    -0.283 N 
ATOM     36  H   UNL     1      28.147  14.918   8.079  0.00  0.00    +0.155 HD
ATOM     37  N   UNL     1      29.577  15.943   9.915  0.00  0.00    -0.214 NA
BRANCH   4   3
ATOM      1  C   UNL     1      31.792  19.896   9.833  0.00  0.00    +0.020 A 
ATOM      2  C   UNL     1      31.497  18.482   9.831  0.00  0.00    +0.013 A 
ATOM      3  C   UNL     1      30.694  17.887  10.893  0.00  0.00    +0.019 A 
ATOM     38  C   UNL     1      30.201  18.759  11.949  0.00  0.00    +0.120 A 
ATOM     39  N   UNL     1      30.502  20.117  11.924  0.00  0.00    -0.263 NA
ATOM     40  C   UNL     1      31.275  20.700  10.909  0.00  0.00    +0.111 A 
ENDBRANCH   4   3
ENDBRANCH  10   9
BRANCH  12  13
ATOM     13  N   UNL     1      25.844  10.347  10.484  0.00  0.00    -0.281 N 
ATOM     14  C   UNL     1      26.139   9.365  11.416  0.00  0.00    +0.248 C 
ATOM     30  O   UNL     1      27.171   8.711  11.427  0.00  0.00    -0.270 OA
ATOM     31  H   UNL     1      24.878  10.676  10.470  0.00  0.00    +0.155 HD
BRANCH  14  15
ATOM     15  C   UNL     1      25.136   9.055  12.480  0.00  0.00    +0.037 A 
ATOM     16  C   UNL     1      24.243  10.089  13.007  0.00  0.00    +0.013 A 
ATOM     17  C   UNL     1      23.297   9.767  14.046  0.00  0.00    +0.005 A 
ATOM     18  C   UNL     1      23.238   8.401  14.562  0.00  0.00    -0.033 A 
ATOM     28  C   UNL     1      24.132   7.393  14.017  0.00  0.00    +0.005 A 
ATOM     29  C   UNL     1      25.062   7.706  13.000  0.00  0.00    +0.013 A 
BRANCH  18  19
ATOM     19  C   UNL     1      22.274   7.972  15.684  0.00  0.00    +0.119 C 
BRANCH  19  20
ATOM     20  N   UNL     1      22.601   8.415  17.073  0.00  0.00    -0.302 NA
ATOM     21  C   UNL     1      22.936   7.234  17.988  0.00  0.00    +0.066 C 
ATOM     22  C   UNL     1      23.297   7.717  19.431  0.00  0.00    -0.064 C 
ATOM     23  N   UNL     1      22.133   8.530  20.000  0.00  0.00    +0.379 N 
ATOM     24  C   UNL     1      22.446   8.936  21.378  0.00  0.00    -0.096 C 
ATOM     25  H   UNL     1      21.241   7.862  20.038  0.00  0.00    -0.082 HD
ATOM     26  C   UNL     1      21.791   9.705  19.094  0.00  0.00    -0.064 C 
ATOM     27  C   UNL     1      21.463   9.216  17.656  0.00  0.00    +0.066 C 
ENDBRANCH  19  20
ENDBRANCH  18  19
ENDBRANCH  14  15
ENDBRANCH  12  13
TORSDOF 6
ENDMDL
MODEL 3
REMARK VINA RESULT:      -5.9      2.692      3.436
REMARK  Name = C:\Users\Docking\Desktop\test protocol\1iep_ligandH.pdb
REMARK  8 active torsions:
REMARK  status: ('A' for Active; 'I' for Inactive)
REMARK    1  A    between atoms: _5  and  _11
REMARK    2  A    between atoms: _19  and  _21
REMARK    3  A    between atoms: _22  and  _66
REMARK    4  A    between atoms: _27  and  _30
REMARK    5  A    between atoms: _32  and  _33
REMARK    6  A    between atoms: _38  and  _43
REMARK    7  A    between atoms: _43  and  _46
REMARK    8  A    between atoms: _53  and  _55
REMARK                            x       y       z     vdW  Elec       q    Type
REMARK                         _______ _______ _______ _____ _____    ______ ____
ROOT
ATOM     10  C   UNL     1      27.626  12.566   8.536  0.00  0.00    +0.038 A 
ATOM     11  C   UNL     1      27.212  11.533   9.415  0.00  0.00    +0.047 A 
ATOM     12  C   UNL     1      27.333  10.133   9.040  0.00  0.00    +0.035 A 
ATOM     32  C   UNL     1      27.882   9.820   7.763  0.00  0.00    +0.024 A 
ATOM     33  C   UNL     1      28.307  10.858   6.856  0.00  0.00    +0.007 A 
ATOM     34  C   UNL     1      28.188  12.241   7.219  0.00  0.00    -0.029 A 
ATOM     35  C   UNL     1      28.653  13.311   6.204  0.00  0.00    +0.045 C 
ENDROOT
BRANCH  10   9
ATOM      4  C   UNL     1      29.063  16.388  11.059  0.00  0.00    +0.077 A 
ATOM      5  C   UNL     1      30.167  15.671  11.628  0.00  0.00    +0.048 A 
ATOM      6  C   UNL     1      30.327  14.319  11.251  0.00  0.00    +0.116 A 
ATOM      7  N   UNL     1      29.441  13.737  10.369  0.00  0.00    -0.223 NA
ATOM      8  C   UNL     1      28.385  14.456   9.841  0.00  0.00    +0.220 A 
ATOM      9  N   UNL     1      27.487  13.894   8.947  0.00  0.00    -0.283 N 
ATOM     36  H   UNL     1      26.717  14.456   8.585  0.00  0.00    +0.155 HD
ATOM     37  N   UNL     1      28.211  15.749  10.186  0.00  0.00    -0.214 NA
BRANCH   4   3
ATOM      1  C   UNL     1      27.223  19.681  12.095  0.00  0.00    +0.020 A 
ATOM      2  C   UNL     1      27.460  18.282  11.821  0.00  0.00    +0.013 A 
ATOM      3  C   UNL     1      28.764  17.824  11.358  0.00  0.00    +0.019 A 
ATOM     38  C   UNL     1      29.815  18.814  11.183  0.00  0.00    +0.120 A 
ATOM     39  N   UNL     1      29.558  20.155  11.454  0.00  0.00    -0.263 NA
ATOM     40  C   UNL     1      28.307  20.608  11.898  0.00  0.00    +0.111 A 
ENDBRANCH   4   3
ENDBRANCH  10   9
BRANCH  12  13
ATOM     13  N   UNL     1      26.922   9.041   9.888  0.00  0.00    -0.281 N 
ATOM     14  C   UNL     1      25.644   8.542  10.075  0.00  0.00    +0.248 C 
ATOM     30  O   UNL     1      24.623   9.100   9.701  0.00  0.00    -0.270 OA
ATOM     31  H   UNL     1      27.665   8.581  10.415  0.00  0.00    +0.155 HD
BRANCH  14  15
ATOM     15  C   UNL     1      25.474   7.242  10.793  0.00  0.00    +0.037 A 
ATOM     16  C   UNL     1      24.234   6.469  10.682  0.00  0.00    +0.013 A 
ATOM     17  C   UNL     1      24.090   5.227  11.399  0.00  0.00    +0.005 A 
ATOM     18  C   UNL     1      25.190   4.749  12.233  0.00  0.00    -0.033 A 
ATOM     28  C   UNL     1      26.411   5.534  12.321  0.00  0.00    +0.005 A 
ATOM     29  C   UNL     1      26.556   6.752  11.620  0.00  0.00    +0.013 A 
BRANCH  18  19
ATOM     19  C   UNL     1      25.116   3.446  13.049  0.00  0.00    +0.119 C 
BRANCH  19  20
ATOM     20  N   UNL     1      25.859   2.264  12.519  0.00  0.00    -0.302 NA
ATOM     21  C   UNL     1      27.248   2.129  13.148  0.00  0.00    +0.066 C 
ATOM     22  C   UNL     1      28.003   0.875  12.599  0.00  0.00    -0.064 C 
ATOM     23  N   UNL     1      28.104   0.970  11.075  0.00  0.00    +0.379 N 
ATOM     24  C   UNL     1      28.863  -0.179  10.561  0.00  0.00    -0.096 C 
ATOM     25  H   UNL     1      28.680   1.893  10.832  0.00  0.00    -0.082 HD
ATOM     26  C   UNL     1      26.726   1.106  10.443  0.00  0.00    -0.064 C 
ATOM     27  C   UNL     1      25.974   2.339  11.017  0.00  0.00    +0.066 C 
ENDBRANCH  19  20
ENDBRANCH  18  19
ENDBRANCH  14  15
ENDBRANCH  12  13
TORSDOF 6
ENDMDL
