MODEL 1
REMARK VINA RESULT:      -6.2      0.000      0.000
REMARK  Name = C:\Users\Docking\Desktop\test protocol\1iep_ligandH.pdb
REMARK  8 active torsions:
REMARK  status: ('A' for Active; 'I' for Inactive)
REMARK    1  A    between atoms: _5  and  _11
REMARK    2  A    between atoms: _19  and  _21
REMARK    3  A    between atoms: _22  and  _66
REMARK    4  A    between atoms: _27  and  _30
REMARK    5  A    between atoms: _32  and  _33
REMARK    6  A    between atoms: _38  and  _43
REMARK    7  A    between atoms: _43  and  _46
REMARK    8  A    between atoms: _53  and  _55
REMARK                            x       y       z     vdW  Elec       q    Type
REMARK                         _______ _______ _______ _____ _____    ______ ____
ROOT
ATOM     10  C   UNL     1       0.357  12.845  27.285  0.00  0.00    +0.038 A 
ATOM     11  C   UNL     1       1.225  12.314  26.296  0.00  0.00    +0.047 A 
ATOM     12  C   UNL     1       1.682  10.935  26.360  0.00  0.00    +0.035 A 
ATOM     32  C   UNL     1       1.233  10.123  27.442  0.00  0.00    +0.024 A 
ATOM     33  C   UNL     1       0.352  10.647  28.456  0.00  0.00    +0.007 A 
ATOM     34  C   UNL     1      -0.100  12.008  28.400  0.00  0.00    -0.029 A 
ATOM     35  C   UNL     1      -1.039  12.519  29.518  0.00  0.00    +0.045 C 
ENDROOT
BRANCH  10   9
ATOM      4  C   UNL     1      -1.996  16.380  25.047  0.00  0.00    +0.077 A 
ATOM      5  C   UNL     1      -2.427  15.507  23.994  0.00  0.00    +0.048 A 
ATOM      6  C   UNL     1      -2.015  14.157  24.061  0.00  0.00    +0.116 A 
ATOM      7  N   UNL     1      -1.232  13.723  25.109  0.00  0.00    -0.223 NA
ATOM      8  C   UNL     1      -0.832  14.592  26.107  0.00  0.00    +0.220 A 
ATOM      9  N   UNL     1      -0.051  14.177  27.174  0.00  0.00    -0.283 N 
ATOM     36  H   UNL     1       0.229  14.850  27.887  0.00  0.00    +0.155 HD
ATOM     37  N   UNL     1      -1.211  15.887  26.065  0.00  0.00    -0.214 NA
BRANCH   4   3
ATOM      1  C   UNL     1      -2.309  20.191  24.223  0.00  0.00    +0.020 A 
ATOM      2  C   UNL     1      -1.938  18.800  24.108  0.00  0.00    +0.013 A 
ATOM      3  C   UNL     1      -2.351  17.833  25.118  0.00  0.00    +0.019 A 
ATOM     38  C   UNL     1      -3.146  18.310  26.239  0.00  0.00    +0.120 A 
ATOM     39  N   UNL     1      -3.486  19.657  26.325  0.00  0.00    -0.263 NA
ATOM     40  C   UNL     1      -3.093  20.597  25.360  0.00  0.00    +0.111 A 
ENDBRANCH   4   3
ENDBRANCH  10   9
BRANCH  12  13
ATOM     13  N   UNL     1       2.569  10.342  25.390  0.00  0.00    -0.281 N 
ATOM     14  C   UNL     1       2.267   9.394  24.426  0.00  0.00    +0.248 C 
ATOM     30  O   UNL     1       1.228   8.751  24.391  0.00  0.00    -0.270 OA
ATOM     31  H   UNL     1       3.538  10.660  25.417  0.00  0.00    +0.155 HD
BRANCH  14  15
ATOM     15  C   UNL     1       3.269   9.109  23.354  0.00  0.00    +0.037 A 
ATOM     16  C   UNL     1       4.168  10.154  22.857  0.00  0.00    +0.013 A 
ATOM     17  C   UNL     1       5.114   9.857  21.811  0.00  0.00    +0.005 A 
ATOM     18  C   UNL     1       5.166   8.506  21.255  0.00  0.00    -0.033 A 
ATOM     28  C   UNL     1       4.266   7.488  21.771  0.00  0.00    +0.005 A 
ATOM     29  C   UNL     1       3.337   7.776  22.796  0.00  0.00    +0.013 A 
BRANCH  18  19
ATOM     19  C   UNL     1       6.129   8.105  20.122  0.00  0.00    +0.119 C 
BRANCH  19  20
ATOM     20  N   UNL     1       5.977   8.809  18.814  0.00  0.00    -0.302 NA
ATOM     21  C   UNL     1       5.498   7.867  17.706  0.00  0.00    +0.066 C 
ATOM     22  C   UNL     1       5.323   8.626  16.350  0.00  0.00    -0.064 C 
ATOM     23  N   UNL     1       6.648   9.286  15.964  0.00  0.00    +0.379 N 
ATOM     24  C   UNL     1       6.503   9.952  14.661  0.00  0.00    -0.096 C 
ATOM     25  H   UNL     1       7.407   8.478  15.849  0.00  0.00    -0.082 HD
ATOM     26  C   UNL     1       7.133  10.223  17.062  0.00  0.00    -0.064 C 
ATOM     27  C   UNL     1       7.275   9.466  18.412  0.00  0.00    +0.066 C 
ENDBRANCH  19  20
ENDBRANCH  18  19
ENDBRANCH  14  15
ENDBRANCH  12  13
TORSDOF 6
ENDMDL
MODEL 2
REMARK VINA RESULT:      -6.2      5.019      6.474
REMARK  Name = C:\Users\Docking\Desktop\test protocol\1iep_ligandH.pdb
REMARK  8 active torsions:
REMARK  status: ('A' for Active; 'I' for Inactive)
REMARK    1  A    between atoms: _5  and  _11
REMARK    2  A    between atoms: _19  and  _21
REMARK    3  A    between atoms: _22  and  _66
REMARK    4  A    between atoms: _27  and  _30
REMARK    5  A    between atoms: _32  and  _33
REMARK    6  A    between atoms: _38  and  _43
REMARK    7  A    between atoms: _43  and  _46
REMARK    8  A    between atoms: _53  and  _55
REMARK                            x       y       z     vdW  Elec       q    Type
REMARK                         _______ _______ _______ _____ _____    ______ ____
ROOT
ATOM     10  C   UNL     1       2.038  11.194  27.185  0.00  0.00    +0.038 A 
ATOM     11  C   UNL     1       1.892  10.276  26.113  0.00  0.00    +0.047 A 
ATOM     12  C   UNL     1       1.441   8.913  26.345  0.00  0.00    +0.035 A 
ATOM     32  C   UNL     1       1.145   8.518  27.683  0.00  0.00    +0.024 A 
ATOM     33  C   UNL     1       1.289   9.437  28.784  0.00  0.00    +0.007 A 
ATOM     34  C   UNL     1       1.736  10.782  28.561  0.00  0.00    -0.029 A 
ATOM     35  C   UNL     1       1.879  11.723  29.781  0.00  0.00    +0.045 C 
ENDROOT
BRANCH  10   9
ATOM      4  C   UNL     1       1.224  15.758  25.943  0.00  0.00    +0.077 A 
ATOM      5  C   UNL     1      -0.187  15.533  25.816  0.00  0.00    +0.048 A 
ATOM      6  C   UNL     1      -0.662  14.228  26.072  0.00  0.00    +0.116 A 
ATOM      7  N   UNL     1       0.218  13.228  26.428  0.00  0.00    -0.223 NA
ATOM      8  C   UNL     1       1.573  13.478  26.540  0.00  0.00    +0.220 A 
ATOM      9  N   UNL     1       2.475  12.490  26.905  0.00  0.00    -0.283 N 
ATOM     36  H   UNL     1       3.468  12.713  26.969  0.00  0.00    +0.155 HD
ATOM     37  N   UNL     1       2.052  14.717  26.299  0.00  0.00    -0.214 NA
BRANCH   4   3
ATOM      1  C   UNL     1       2.091  19.289  24.502  0.00  0.00    +0.020 A 
ATOM      2  C   UNL     1       1.426  18.021  24.687  0.00  0.00    +0.013 A 
ATOM      3  C   UNL     1       1.878  17.084  25.709  0.00  0.00    +0.019 A 
ATOM     38  C   UNL     1       3.015  17.465  26.533  0.00  0.00    +0.120 A 
ATOM     39  N   UNL     1       3.637  18.693  26.330  0.00  0.00    -0.263 NA
ATOM     40  C   UNL     1       3.212  19.602  25.350  0.00  0.00    +0.111 A 
ENDBRANCH   4   3
ENDBRANCH  10   9
BRANCH  12  13
ATOM     13  N   UNL     1       1.282   7.935  25.298  0.00  0.00    -0.281 N 
ATOM     14  C   UNL     1       2.271   7.218  24.645  0.00  0.00    +0.248 C 
ATOM     30  O   UNL     1       3.465   7.466  24.715  0.00  0.00    -0.270 OA
ATOM     31  H   UNL     1       0.324   7.750  25.002  0.00  0.00    +0.155 HD
BRANCH  14  15
ATOM     15  C   UNL     1       1.874   6.068  23.776  0.00  0.00    +0.037 A 
ATOM     16  C   UNL     1       2.484   5.864  22.460  0.00  0.00    +0.013 A 
ATOM     17  C   UNL     1       2.071   4.756  21.635  0.00  0.00    +0.005 A 
ATOM     18  C   UNL     1       1.043   3.842  22.126  0.00  0.00    -0.033 A 
ATOM     28  C   UNL     1       0.459   4.065  23.438  0.00  0.00    +0.005 A 
ATOM     29  C   UNL     1       0.860   5.150  24.249  0.00  0.00    +0.013 A 
BRANCH  18  19
ATOM     19  C   UNL     1       0.527   2.646  21.305  0.00  0.00    +0.119 C 
BRANCH  19  20
ATOM     20  N   UNL     1      -0.948   2.407  21.299  0.00  0.00    -0.302 NA
ATOM     21  C   UNL     1      -1.296   0.977  20.873  0.00  0.00    +0.066 C 
ATOM     22  C   UNL     1      -2.841   0.738  20.894  0.00  0.00    -0.064 C 
ATOM     23  N   UNL     1      -3.524   1.757  19.980  0.00  0.00    +0.379 N 
ATOM     24  C   UNL     1      -4.971   1.497  19.952  0.00  0.00    -0.096 C 
ATOM     25  H   UNL     1      -3.132   1.602  18.948  0.00  0.00    -0.082 HD
ATOM     26  C   UNL     1      -3.181   3.181  20.395  0.00  0.00    -0.064 C 
ATOM     27  C   UNL     1      -1.642   3.399  20.400  0.00  0.00    +0.066 C 
ENDBRANCH  19  20
ENDBRANCH  18  19
ENDBRANCH  14  15
ENDBRANCH  12  13
TORSDOF 6
ENDMDL
MODEL 3
REMARK VINA RESULT:      -6.1      8.930     11.935
REMARK  Name = C:\Users\Docking\Desktop\test protocol\1iep_ligandH.pdb
REMARK  8 active torsions:
REMARK  status: ('A' for Active; 'I' for Inactive)
REMARK    1  A    between atoms: _5  and  _11
REMARK    2  A    between atoms: _19  and  _21
REMARK    3  A    between atoms: _22  and  _66
REMARK    4  A    between atoms: _27  and  _30
REMARK    5  A    between atoms: _32  and  _33
REMARK    6  A    between atoms: _38  and  _43
REMARK    7  A    between atoms: _43  and  _46
REMARK    8  A    between atoms: _53  and  _55
REMARK                            x       y       z     vdW  Elec       q    Type
REMARK                         _______ _______ _______ _____ _____    ______ ____
ROOT
ATOM     10  C   UNL     1      -4.472   3.426  18.070  0.00  0.00    +0.038 A 
ATOM     11  C   UNL     1      -3.421   3.852  18.922  0.00  0.00    +0.047 A 
ATOM     12  C   UNL     1      -3.096   3.125  20.139  0.00  0.00    +0.035 A 
ATOM     32  C   UNL     1      -3.862   1.965  20.458  0.00  0.00    +0.024 A 
ATOM     33  C   UNL     1      -4.934   1.518  19.604  0.00  0.00    +0.007 A 
ATOM     34  C   UNL     1      -5.260   2.233  18.403  0.00  0.00    -0.029 A 
ATOM     35  C   UNL     1      -6.425   1.712  17.529  0.00  0.00    +0.045 C 
ENDROOT
BRANCH  10   9
ATOM      4  C   UNL     1      -6.405   7.187  15.800  0.00  0.00    +0.077 A 
ATOM      5  C   UNL     1      -6.949   7.717  17.017  0.00  0.00    +0.048 A 
ATOM      6  C   UNL     1      -6.715   6.987  18.204  0.00  0.00    +0.116 A 
ATOM      7  N   UNL     1      -5.989   5.817  18.166  0.00  0.00    -0.223 NA
ATOM      8  C   UNL     1      -5.480   5.333  16.975  0.00  0.00    +0.220 A 
ATOM      9  N   UNL     1      -4.740   4.162  16.914  0.00  0.00    -0.283 N 
ATOM     36  H   UNL     1      -4.387   3.834  16.015  0.00  0.00    +0.155 HD
ATOM     37  N   UNL     1      -5.690   6.010  15.827  0.00  0.00    -0.214 NA
BRANCH   4   3
ATOM      1  C   UNL     1      -5.903   9.534  12.712  0.00  0.00    +0.020 A 
ATOM      2  C   UNL     1      -5.708   8.934  14.011  0.00  0.00    +0.013 A 
ATOM      3  C   UNL     1      -6.564   7.845  14.465  0.00  0.00    +0.019 A 
ATOM     38  C   UNL     1      -7.615   7.382  13.572  0.00  0.00    +0.120 A 
ATOM     39  N   UNL     1      -7.781   7.981  12.327  0.00  0.00    -0.263 NA
ATOM     40  C   UNL     1      -6.965   9.031  11.880  0.00  0.00    +0.111 A 
ENDBRANCH   4   3
ENDBRANCH  10   9
BRANCH  12  13
ATOM     13  N   UNL     1      -2.046   3.515  21.046  0.00  0.00    -0.281 N 
ATOM     14  C   UNL     1      -0.726   3.093  21.053  0.00  0.00    +0.248 C 
ATOM     30  O   UNL     1      -0.299   2.148  20.406  0.00  0.00    -0.270 OA
ATOM     31  H   UNL     1      -2.306   4.183  21.772  0.00  0.00    +0.155 HD
BRANCH  14  15
ATOM     15  C   UNL     1       0.259   3.817  21.913  0.00  0.00    +0.037 A 
ATOM     16  C   UNL     1       0.105   3.865  23.369  0.00  0.00    +0.013 A 
ATOM     17  C   UNL     1       1.060   4.585  24.174  0.00  0.00    +0.005 A 
ATOM     18  C   UNL     1       2.179   5.261  23.524  0.00  0.00    -0.033 A 
ATOM     28  C   UNL     1       2.311   5.193  22.078  0.00  0.00    +0.005 A 
ATOM     29  C   UNL     1       1.376   4.489  21.286  0.00  0.00    +0.013 A 
BRANCH  18  19
ATOM     19  C   UNL     1       3.234   6.070  24.302  0.00  0.00    +0.119 C 
BRANCH  19  20
ATOM     20  N   UNL     1       2.753   7.249  25.081  0.00  0.00    -0.302 NA
ATOM     21  C   UNL     1       1.894   8.189  24.230  0.00  0.00    +0.066 C 
ATOM     22  C   UNL     1       1.381   9.405  25.067  0.00  0.00    -0.064 C 
ATOM     23  N   UNL     1       2.576  10.153  25.660  0.00  0.00    +0.379 N 
ATOM     24  C   UNL     1       2.100  11.331  26.400  0.00  0.00    -0.096 C 
ATOM     25  H   UNL     1       3.202  10.516  24.812  0.00  0.00    -0.082 HD
ATOM     26  C   UNL     1       3.438   9.226  26.506  0.00  0.00    -0.064 C 
ATOM     27  C   UNL     1       3.918   8.005  25.673  0.00  0.00    +0.066 C 
ENDBRANCH  19  20
ENDBRANCH  18  19
ENDBRANCH  14  15
ENDBRANCH  12  13
TORSDOF 6
ENDMDL
