MODEL 1
REMARK VINA RESULT:      -8.9      0.000      0.000
REMARK  Name = C:\Users\Docking\Desktop\test protocol\1iep_ligandH.pdb
REMARK  8 active torsions:
REMARK  status: ('A' for Active; 'I' for Inactive)
REMARK    1  A    between atoms: _5  and  _11
REMARK    2  A    between atoms: _19  and  _21
REMARK    3  A    between atoms: _22  and  _66
REMARK    4  A    between atoms: _27  and  _30
REMARK    5  A    between atoms: _32  and  _33
REMARK    6  A    between atoms: _38  and  _43
REMARK    7  A    between atoms: _43  and  _46
REMARK    8  A    between atoms: _53  and  _55
REMARK                            x       y       z     vdW  Elec       q    Type
REMARK                         _______ _______ _______ _____ _____    ______ ____
ROOT
ATOM     10  C   UNL     1      60.278  43.689  37.507  0.00  0.00    +0.038 A 
ATOM     11  C   UNL     1      60.601  42.961  38.681  0.00  0.00    +0.047 A 
ATOM     12  C   UNL     1      61.513  41.828  38.636  0.00  0.00    +0.035 A 
ATOM     32  C   UNL     1      62.079  41.466  37.379  0.00  0.00    +0.024 A 
ATOM     33  C   UNL     1      61.760  42.194  36.176  0.00  0.00    +0.007 A 
ATOM     34  C   UNL     1      60.860  43.311  36.214  0.00  0.00    -0.029 A 
ATOM     35  C   UNL     1      60.549  44.051  34.892  0.00  0.00    +0.045 C 
ENDROOT
BRANCH  10   9
ATOM      4  C   UNL     1      59.351  48.396  37.664  0.00  0.00    +0.077 A 
ATOM      5  C   UNL     1      60.742  48.733  37.564  0.00  0.00    +0.048 A 
ATOM      6  C   UNL     1      61.664  47.666  37.482  0.00  0.00    +0.116 A 
ATOM      7  N   UNL     1      61.217  46.362  37.498  0.00  0.00    -0.223 NA
ATOM      8  C   UNL     1      59.869  46.072  37.597  0.00  0.00    +0.220 A 
ATOM      9  N   UNL     1      59.397  44.768  37.608  0.00  0.00    -0.283 N 
ATOM     36  H   UNL     1      58.395  44.596  37.690  0.00  0.00    +0.155 HD
ATOM     37  N   UNL     1      58.969  47.073  37.679  0.00  0.00    -0.214 NA
BRANCH   4   3
ATOM      1  C   UNL     1      57.169  51.593  37.104  0.00  0.00    +0.020 A 
ATOM      2  C   UNL     1      58.252  50.645  36.979  0.00  0.00    +0.013 A 
ATOM      3  C   UNL     1      58.256  49.412  37.756  0.00  0.00    +0.019 A 
ATOM     38  C   UNL     1      57.140  49.167  38.658  0.00  0.00    +0.120 A 
ATOM     39  N   UNL     1      56.112  50.099  38.759  0.00  0.00    -0.263 NA
ATOM     40  C   UNL     1      56.098  51.290  38.017  0.00  0.00    +0.111 A 
ENDBRANCH   4   3
ENDBRANCH  10   9
BRANCH  12  13
ATOM     13  N   UNL     1      61.872  41.046  39.793  0.00  0.00    -0.281 N 
ATOM     14  C   UNL     1      61.026  40.431  40.701  0.00  0.00    +0.248 C 
ATOM     30  O   UNL     1      59.825  40.640  40.778  0.00  0.00    -0.270 OA
ATOM     31  H   UNL     1      62.871  40.933  39.963  0.00  0.00    +0.155 HD
BRANCH  14  15
ATOM     15  C   UNL     1      61.601  39.454  41.675  0.00  0.00    +0.037 A 
ATOM     16  C   UNL     1      61.133  39.400  43.063  0.00  0.00    +0.013 A 
ATOM     17  C   UNL     1      61.716  38.459  43.986  0.00  0.00    +0.005 A 
ATOM     18  C   UNL     1      62.773  37.563  43.524  0.00  0.00    -0.033 A 
ATOM     28  C   UNL     1      63.214  37.634  42.141  0.00  0.00    +0.005 A 
ATOM     29  C   UNL     1      62.646  38.556  41.233  0.00  0.00    +0.013 A 
BRANCH  18  19
ATOM     19  C   UNL     1      63.467  36.542  44.445  0.00  0.00    +0.119 C 
BRANCH  19  20
ATOM     20  N   UNL     1      64.655  35.823  43.897  0.00  0.00    -0.302 NA
ATOM     21  C   UNL     1      64.666  34.344  44.295  0.00  0.00    +0.066 C 
ATOM     22  C   UNL     1      65.904  33.602  43.694  0.00  0.00    -0.064 C 
ATOM     23  N   UNL     1      67.186  34.297  44.157  0.00  0.00    +0.379 N 
ATOM     24  C   UNL     1      68.353  33.567  43.642  0.00  0.00    -0.096 C 
ATOM     25  H   UNL     1      67.217  34.242  45.270  0.00  0.00    -0.082 HD
ATOM     26  C   UNL     1      67.182  35.769  43.768  0.00  0.00    -0.064 C 
ATOM     27  C   UNL     1      65.932  36.490  44.346  0.00  0.00    +0.066 C 
ENDBRANCH  19  20
ENDBRANCH  18  19
ENDBRANCH  14  15
ENDBRANCH  12  13
TORSDOF 6
ENDMDL
MODEL 2
REMARK VINA RESULT:      -8.6      7.545     11.675
REMARK  Name = C:\Users\Docking\Desktop\test protocol\1iep_ligandH.pdb
REMARK  8 active torsions:
REMARK  status: ('A' for Active; 'I' for Inactive)
REMARK    1  A    between atoms: _5  and  _11
REMARK    2  A    between atoms: _19  and  _21
REMARK    3  A    between atoms: _22  and  _66
REMARK    4  A    between atoms: _27  and  _30
REMARK    5  A    between atoms: _32  and  _33
REMARK    6  A    between atoms: _38  and  _43
REMARK    7  A    between atoms: _43  and  _46
REMARK    8  A    between atoms: _53  and  _55
REMARK                            x       y       z     vdW  Elec       q    Type
REMARK                         _______ _______ _______ _____ _____    ______ ____
ROOT
ATOM     10  C   UNL     1      59.104  42.202  39.951  0.00  0.00    +0.038 A 
ATOM     11  C   UNL     1      58.012  41.445  40.444  0.00  0.00    +0.047 A 
ATOM     12  C   UNL     1      56.837  42.095  41.006  0.00  0.00    +0.035 A 
ATOM     32  C   UNL     1      56.809  43.519  41.046  0.00  0.00    +0.024 A 
ATOM     33  C   UNL     1      57.911  44.305  40.549  0.00  0.00    +0.007 A 
ATOM     34  C   UNL     1      59.073  43.669  39.997  0.00  0.00    -0.029 A 
ATOM     35  C   UNL     1      60.228  44.562  39.486  0.00  0.00    +0.045 C 
ENDROOT
BRANCH  10   9
ATOM      4  C   UNL     1      62.703  39.047  40.307  0.00  0.00    +0.077 A 
ATOM      5  C   UNL     1      62.377  38.739  41.670  0.00  0.00    +0.048 A 
ATOM      6  C   UNL     1      61.280  39.420  42.244  0.00  0.00    +0.116 A 
ATOM      7  N   UNL     1      60.569  40.338  41.501  0.00  0.00    -0.223 NA
ATOM      8  C   UNL     1      60.912  40.613  40.190  0.00  0.00    +0.220 A 
ATOM      9  N   UNL     1      60.206  41.526  39.422  0.00  0.00    -0.283 N 
ATOM     36  H   UNL     1      60.495  41.707  38.461  0.00  0.00    +0.155 HD
ATOM     37  N   UNL     1      61.956  39.977  39.619  0.00  0.00    -0.214 NA
BRANCH   4   3
ATOM      1  C   UNL     1      64.946  37.618  37.439  0.00  0.00    +0.020 A 
ATOM      2  C   UNL     1      63.830  38.241  38.112  0.00  0.00    +0.013 A 
ATOM      3  C   UNL     1      63.832  38.408  39.560  0.00  0.00    +0.019 A 
ATOM     38  C   UNL     1      64.989  37.931  40.303  0.00  0.00    +0.120 A 
ATOM     39  N   UNL     1      66.049  37.334  39.627  0.00  0.00    -0.263 NA
ATOM     40  C   UNL     1      66.057  37.166  38.235  0.00  0.00    +0.111 A 
ENDBRANCH   4   3
ENDBRANCH  10   9
BRANCH  12  13
ATOM     13  N   UNL     1      55.701  41.378  41.529  0.00  0.00    -0.281 N 
ATOM     14  C   UNL     1      55.155  40.192  41.066  0.00  0.00    +0.248 C 
ATOM     30  O   UNL     1      55.433  39.676  39.993  0.00  0.00    -0.270 OA
ATOM     31  H   UNL     1      55.244  41.795  42.340  0.00  0.00    +0.155 HD
BRANCH  14  15
ATOM     15  C   UNL     1      54.144  39.485  41.909  0.00  0.00    +0.037 A 
ATOM     16  C   UNL     1      54.215  39.523  43.372  0.00  0.00    +0.013 A 
ATOM     17  C   UNL     1      53.237  38.817  44.162  0.00  0.00    +0.005 A 
ATOM     18  C   UNL     1      52.178  38.068  43.489  0.00  0.00    -0.033 A 
ATOM     28  C   UNL     1      52.129  38.052  42.037  0.00  0.00    +0.005 A 
ATOM     29  C   UNL     1      53.086  38.741  41.259  0.00  0.00    +0.013 A 
BRANCH  18  19
ATOM     19  C   UNL     1      51.105  37.269  44.252  0.00  0.00    +0.119 C 
BRANCH  19  20
ATOM     20  N   UNL     1      50.064  36.573  43.438  0.00  0.00    -0.302 NA
ATOM     21  C   UNL     1      48.701  37.264  43.536  0.00  0.00    +0.066 C 
ATOM     22  C   UNL     1      47.629  36.536  42.661  0.00  0.00    -0.064 C 
ATOM     23  N   UNL     1      47.528  35.073  43.096  0.00  0.00    +0.379 N 
ATOM     24  C   UNL     1      46.480  34.400  42.315  0.00  0.00    -0.096 C 
ATOM     25  H   UNL     1      47.213  35.060  44.166  0.00  0.00    -0.082 HD
ATOM     26  C   UNL     1      48.879  34.379  43.004  0.00  0.00    -0.064 C 
ATOM     27  C   UNL     1      49.944  35.128  43.854  0.00  0.00    +0.066 C 
ENDBRANCH  19  20
ENDBRANCH  18  19
ENDBRANCH  14  15
ENDBRANCH  12  13
TORSDOF 6
ENDMDL
MODEL 3
REMARK VINA RESULT:      -8.5      8.136     12.633
REMARK  Name = C:\Users\Docking\Desktop\test protocol\1iep_ligandH.pdb
REMARK  8 active torsions:
REMARK  status: ('A' for Active; 'I' for Inactive)
REMARK    1  A    between atoms: _5  and  _11
REMARK    2  A    between atoms: _19  and  _21
REMARK    3  A    between atoms: _22  and  _66
REMARK    4  A    between atoms: _27  and  _30
REMARK    5  A    between atoms: _32  and  _33
REMARK    6  A    between atoms: _38  and  _43
REMARK    7  A    between atoms: _43  and  _46
REMARK    8  A    between atoms: _53  and  _55
REMARK                            x       y       z     vdW  Elec       q    Type
REMARK                         _______ _______ _______ _____ _____    ______ ____
ROOT
ATOM     10  C   UNL     1      58.753  42.112  40.133  0.00  0.00    +0.038 A 
ATOM     11  C   UNL     1      57.527  41.412  40.270  0.00  0.00    +0.047 A 
ATOM     12  C   UNL     1      56.355  42.053  40.844  0.00  0.00    +0.035 A 
ATOM     32  C   UNL     1      56.466  43.410  41.267  0.00  0.00    +0.024 A 
ATOM     33  C   UNL     1      57.705  44.136  41.136  0.00  0.00    +0.007 A 
ATOM     34  C   UNL     1      58.865  43.508  40.573  0.00  0.00    -0.029 A 
ATOM     35  C   UNL     1      60.169  44.332  40.463  0.00  0.00    +0.045 C 
ENDROOT
BRANCH  10   9
ATOM      4  C   UNL     1      62.487  39.111  40.434  0.00  0.00    +0.077 A 
ATOM      5  C   UNL     1      62.255  38.867  41.829  0.00  0.00    +0.048 A 
ATOM      6  C   UNL     1      61.168  39.540  42.433  0.00  0.00    +0.116 A 
ATOM      7  N   UNL     1      60.380  40.389  41.687  0.00  0.00    -0.223 NA
ATOM      8  C   UNL     1      60.632  40.603  40.345  0.00  0.00    +0.220 A 
ATOM      9  N   UNL     1      59.847  41.447  39.574  0.00  0.00    -0.283 N 
ATOM     36  H   UNL     1      60.071  41.584  38.589  0.00  0.00    +0.155 HD
ATOM     37  N   UNL     1      61.664  39.974  39.745  0.00  0.00    -0.214 NA
BRANCH   4   3
ATOM      1  C   UNL     1      64.700  37.790  37.491  0.00  0.00    +0.020 A 
ATOM      2  C   UNL     1      63.607  38.419  38.197  0.00  0.00    +0.013 A 
ATOM      3  C   UNL     1      63.594  38.472  39.654  0.00  0.00    +0.019 A 
ATOM     38  C   UNL     1      64.710  37.877  40.372  0.00  0.00    +0.120 A 
ATOM     39  N   UNL     1      65.748  37.277  39.665  0.00  0.00    -0.263 NA
ATOM     40  C   UNL     1      65.772  37.218  38.264  0.00  0.00    +0.111 A 
ENDBRANCH   4   3
ENDBRANCH  10   9
BRANCH  12  13
ATOM     13  N   UNL     1      55.085  41.391  41.015  0.00  0.00    -0.281 N 
ATOM     14  C   UNL     1      54.782  40.339  41.864  0.00  0.00    +0.248 C 
ATOM     30  O   UNL     1      55.613  39.663  42.452  0.00  0.00    -0.270 OA
ATOM     31  H   UNL     1      54.318  41.740  40.442  0.00  0.00    +0.155 HD
BRANCH  14  15
ATOM     15  C   UNL     1      53.348  39.975  42.078  0.00  0.00    +0.037 A 
ATOM     16  C   UNL     1      52.907  38.578  42.053  0.00  0.00    +0.013 A 
ATOM     17  C   UNL     1      51.515  38.255  42.246  0.00  0.00    +0.005 A 
ATOM     18  C   UNL     1      50.554  39.334  42.466  0.00  0.00    -0.033 A 
ATOM     28  C   UNL     1      51.020  40.710  42.491  0.00  0.00    +0.005 A 
ATOM     29  C   UNL     1      52.383  41.030  42.301  0.00  0.00    +0.013 A 
BRANCH  18  19
ATOM     19  C   UNL     1      49.047  39.084  42.660  0.00  0.00    +0.119 C 
BRANCH  19  20
ATOM     20  N   UNL     1      48.268  38.639  41.465  0.00  0.00    -0.302 NA
ATOM     21  C   UNL     1      47.362  39.748  40.925  0.00  0.00    +0.066 C 
ATOM     22  C   UNL     1      46.572  39.273  39.662  0.00  0.00    -0.064 C 
ATOM     23  N   UNL     1      45.754  38.029  40.014  0.00  0.00    +0.379 N 
ATOM     24  C   UNL     1      44.966  37.613  38.845  0.00  0.00    -0.096 C 
ATOM     25  H   UNL     1      45.040  38.311  40.821  0.00  0.00    -0.082 HD
ATOM     26  C   UNL     1      46.648  36.922  40.554  0.00  0.00    -0.064 C 
ATOM     27  C   UNL     1      47.450  37.413  41.791  0.00  0.00    +0.066 C 
ENDBRANCH  19  20
ENDBRANCH  18  19
ENDBRANCH  14  15
ENDBRANCH  12  13
TORSDOF 6
ENDMDL
