MODEL 1
REMARK VINA RESULT:      -4.3      0.000      0.000
REMARK  Name = C:\Users\Docking\Desktop\test protocol\1iep_ligandH.pdb
REMARK  8 active torsions:
REMARK  status: ('A' for Active; 'I' for Inactive)
REMARK    1  A    between atoms: _5  and  _11
REMARK    2  A    between atoms: _19  and  _21
REMARK    3  A    between atoms: _22  and  _66
REMARK    4  A    between atoms: _27  and  _30
REMARK    5  A    between atoms: _32  and  _33
REMARK    6  A    between atoms: _38  and  _43
REMARK    7  A    between atoms: _43  and  _46
REMARK    8  A    between atoms: _53  and  _55
REMARK                            x       y       z     vdW  Elec       q    Type
REMARK                         _______ _______ _______ _____ _____    ______ ____
ROOT
ATOM     10  C   UNL     1       9.326  19.585   9.943  0.00  0.00    +0.038 A 
ATOM     11  C   UNL     1      10.078  19.457   8.747  0.00  0.00    +0.047 A 
ATOM     12  C   UNL     1       9.451  19.028   7.507  0.00  0.00    +0.035 A 
ATOM     32  C   UNL     1       8.055  18.739   7.520  0.00  0.00    +0.024 A 
ATOM     33  C   UNL     1       7.276  18.862   8.727  0.00  0.00    +0.007 A 
ATOM     34  C   UNL     1       7.890  19.283   9.954  0.00  0.00    -0.029 A 
ATOM     35  C   UNL     1       7.008  19.391  11.220  0.00  0.00    +0.045 C 
ENDROOT
BRANCH  10   9
ATOM      4  C   UNL     1      11.979  18.719  13.849  0.00  0.00    +0.077 A 
ATOM      5  C   UNL     1      12.047  17.315  13.563  0.00  0.00    +0.048 A 
ATOM      6  C   UNL     1      11.380  16.854  12.406  0.00  0.00    +0.116 A 
ATOM      7  N   UNL     1      10.699  17.742  11.601  0.00  0.00    -0.223 NA
ATOM      8  C   UNL     1      10.652  19.089  11.906  0.00  0.00    +0.220 A 
ATOM      9  N   UNL     1       9.979  20.001  11.106  0.00  0.00    -0.283 N 
ATOM     36  H   UNL     1       9.962  20.986  11.369  0.00  0.00    +0.155 HD
ATOM     37  N   UNL     1      11.279  19.554  13.006  0.00  0.00    -0.214 NA
BRANCH   4   3
ATOM      1  C   UNL     1      13.119  19.521  17.503  0.00  0.00    +0.020 A 
ATOM      2  C   UNL     1      12.462  18.868  16.395  0.00  0.00    +0.013 A 
ATOM      3  C   UNL     1      12.635  19.358  15.033  0.00  0.00    +0.019 A 
ATOM     38  C   UNL     1      13.487  20.519  14.826  0.00  0.00    +0.120 A 
ATOM     39  N   UNL     1      14.106  21.129  15.913  0.00  0.00    -0.263 NA
ATOM     40  C   UNL     1      13.945  20.667  17.228  0.00  0.00    +0.111 A 
ENDBRANCH   4   3
ENDBRANCH  10   9
BRANCH  12  13
ATOM     13  N   UNL     1      10.164  18.873   6.263  0.00  0.00    -0.281 N 
ATOM     14  C   UNL     1      10.019  19.612   5.100  0.00  0.00    +0.248 C 
ATOM     30  O   UNL     1       9.098  20.385   4.883  0.00  0.00    -0.270 OA
ATOM     31  H   UNL     1      10.861  18.129   6.237  0.00  0.00    +0.155 HD
BRANCH  14  15
ATOM     15  C   UNL     1      11.037  19.460   4.017  0.00  0.00    +0.037 A 
ATOM     16  C   UNL     1      12.412  19.052   4.317  0.00  0.00    +0.013 A 
ATOM     17  C   UNL     1      13.378  18.929   3.254  0.00  0.00    +0.005 A 
ATOM     18  C   UNL     1      12.972  19.213   1.880  0.00  0.00    -0.033 A 
ATOM     28  C   UNL     1      11.600  19.611   1.610  0.00  0.00    +0.005 A 
ATOM     29  C   UNL     1      10.650  19.733   2.649  0.00  0.00    +0.013 A 
BRANCH  18  19
ATOM     19  C   UNL     1      13.941  19.128   0.687  0.00  0.00    +0.119 C 
BRANCH  19  20
ATOM     20  N   UNL     1      14.942  20.226   0.539  0.00  0.00    -0.302 NA
ATOM     21  C   UNL     1      14.427  21.553   1.104  0.00  0.00    +0.066 C 
ATOM     22  C   UNL     1      15.495  22.685   0.963  0.00  0.00    -0.064 C 
ATOM     23  N   UNL     1      15.881  22.837  -0.510  0.00  0.00    +0.379 N 
ATOM     24  C   UNL     1      16.842  23.940  -0.654  0.00  0.00    -0.096 C 
ATOM     25  H   UNL     1      14.960  23.115  -1.073  0.00  0.00    -0.082 HD
ATOM     26  C   UNL     1      16.392  21.522  -1.081  0.00  0.00    -0.064 C 
ATOM     27  C   UNL     1      15.334  20.396  -0.908  0.00  0.00    +0.066 C 
ENDBRANCH  19  20
ENDBRANCH  18  19
ENDBRANCH  14  15
ENDBRANCH  12  13
TORSDOF 6
ENDMDL
MODEL 2
REMARK VINA RESULT:      -4.2      2.233      2.909
REMARK  Name = C:\Users\Docking\Desktop\test protocol\1iep_ligandH.pdb
REMARK  8 active torsions:
REMARK  status: ('A' for Active; 'I' for Inactive)
REMARK    1  A    between atoms: _5  and  _11
REMARK    2  A    between atoms: _19  and  _21
REMARK    3  A    between atoms: _22  and  _66
REMARK    4  A    between atoms: _27  and  _30
REMARK    5  A    between atoms: _32  and  _33
REMARK    6  A    between atoms: _38  and  _43
REMARK    7  A    between atoms: _43  and  _46
REMARK    8  A    between atoms: _53  and  _55
REMARK                            x       y       z     vdW  Elec       q    Type
REMARK                         _______ _______ _______ _____ _____    ______ ____
ROOT
ATOM     10  C   UNL     1       9.467  19.590  10.243  0.00  0.00    +0.038 A 
ATOM     11  C   UNL     1      10.252  19.642   9.063  0.00  0.00    +0.047 A 
ATOM     12  C   UNL     1       9.674  19.348   7.761  0.00  0.00    +0.035 A 
ATOM     32  C   UNL     1       8.291  19.006   7.698  0.00  0.00    +0.024 A 
ATOM     33  C   UNL     1       7.479  18.948   8.888  0.00  0.00    +0.007 A 
ATOM     34  C   UNL     1       8.045  19.235  10.175  0.00  0.00    -0.029 A 
ATOM     35  C   UNL     1       7.128  19.150  11.418  0.00  0.00    +0.045 C 
ENDROOT
BRANCH  10   9
ATOM      4  C   UNL     1      11.785  18.283  14.238  0.00  0.00    +0.077 A 
ATOM      5  C   UNL     1      11.762  16.897  13.868  0.00  0.00    +0.048 A 
ATOM      6  C   UNL     1      11.137  16.562  12.646  0.00  0.00    +0.116 A 
ATOM      7  N   UNL     1      10.581  17.547  11.860  0.00  0.00    -0.223 NA
ATOM      8  C   UNL     1      10.620  18.874  12.246  0.00  0.00    +0.220 A 
ATOM      9  N   UNL     1      10.074  19.883  11.467  0.00  0.00    -0.283 N 
ATOM     36  H   UNL     1      10.116  20.849  11.791  0.00  0.00    +0.155 HD
ATOM     37  N   UNL     1      11.209  19.220  13.409  0.00  0.00    -0.214 NA
BRANCH   4   3
ATOM      1  C   UNL     1      12.853  18.689  17.979  0.00  0.00    +0.020 A 
ATOM      2  C   UNL     1      12.225  18.154  16.793  0.00  0.00    +0.013 A 
ATOM      3  C   UNL     1      12.411  18.795  15.497  0.00  0.00    +0.019 A 
ATOM     38  C   UNL     1      13.246  19.986  15.436  0.00  0.00    +0.120 A 
ATOM     39  N   UNL     1      13.836  20.480  16.595  0.00  0.00    -0.263 NA
ATOM     40  C   UNL     1      13.663  19.871  17.848  0.00  0.00    +0.111 A 
ENDBRANCH   4   3
ENDBRANCH  10   9
BRANCH  12  13
ATOM     13  N   UNL     1      10.423  19.377   6.530  0.00  0.00    -0.281 N 
ATOM     14  C   UNL     1      11.164  18.355   5.960  0.00  0.00    +0.248 C 
ATOM     30  O   UNL     1      11.472  17.321   6.534  0.00  0.00    -0.270 OA
ATOM     31  H   UNL     1      10.404  20.257   6.016  0.00  0.00    +0.155 HD
BRANCH  14  15
ATOM     15  C   UNL     1      11.646  18.510   4.554  0.00  0.00    +0.037 A 
ATOM     16  C   UNL     1      12.377  19.706   4.128  0.00  0.00    +0.013 A 
ATOM     17  C   UNL     1      12.816  19.838   2.761  0.00  0.00    +0.005 A 
ATOM     18  C   UNL     1      12.525  18.768   1.810  0.00  0.00    -0.033 A 
ATOM     28  C   UNL     1      11.803  17.590   2.260  0.00  0.00    +0.005 A 
ATOM     29  C   UNL     1      11.370  17.458   3.598  0.00  0.00    +0.013 A 
BRANCH  18  19
ATOM     19  C   UNL     1      12.937  18.833   0.327  0.00  0.00    +0.119 C 
BRANCH  19  20
ATOM     20  N   UNL     1      11.842  18.949  -0.682  0.00  0.00    -0.302 NA
ATOM     21  C   UNL     1      12.386  19.148  -2.100  0.00  0.00    +0.066 C 
ATOM     22  C   UNL     1      11.227  19.245  -3.145  0.00  0.00    -0.064 C 
ATOM     23  N   UNL     1      10.289  20.390  -2.759  0.00  0.00    +0.379 N 
ATOM     24  C   UNL     1       9.232  20.521  -3.772  0.00  0.00    -0.096 C 
ATOM     25  H   UNL     1      10.885  21.332  -2.768  0.00  0.00    -0.082 HD
ATOM     26  C   UNL     1       9.746  20.201  -1.350  0.00  0.00    -0.064 C 
ATOM     27  C   UNL     1      10.906  20.077  -0.322  0.00  0.00    +0.066 C 
ENDBRANCH  19  20
ENDBRANCH  18  19
ENDBRANCH  14  15
ENDBRANCH  12  13
TORSDOF 6
ENDMDL
MODEL 3
REMARK VINA RESULT:      -4.2      2.146      2.798
REMARK  Name = C:\Users\Docking\Desktop\test protocol\1iep_ligandH.pdb
REMARK  8 active torsions:
REMARK  status: ('A' for Active; 'I' for Inactive)
REMARK    1  A    between atoms: _5  and  _11
REMARK    2  A    between atoms: _19  and  _21
REMARK    3  A    between atoms: _22  and  _66
REMARK    4  A    between atoms: _27  and  _30
REMARK    5  A    between atoms: _32  and  _33
REMARK    6  A    between atoms: _38  and  _43
REMARK    7  A    between atoms: _43  and  _46
REMARK    8  A    between atoms: _53  and  _55
REMARK                            x       y       z     vdW  Elec       q    Type
REMARK                         _______ _______ _______ _____ _____    ______ ____
ROOT
ATOM     10  C   UNL     1      10.204  19.305  11.650  0.00  0.00    +0.038 A 
ATOM     11  C   UNL     1      11.087  19.819  10.666  0.00  0.00    +0.047 A 
ATOM     12  C   UNL     1      10.744  19.780   9.253  0.00  0.00    +0.035 A 
ATOM     32  C   UNL     1       9.491  19.213   8.877  0.00  0.00    +0.024 A 
ATOM     33  C   UNL     1       8.582  18.685   9.864  0.00  0.00    +0.007 A 
ATOM     34  C   UNL     1       8.917  18.718  11.259  0.00  0.00    -0.029 A 
ATOM     35  C   UNL     1       7.906  18.132  12.273  0.00  0.00    +0.045 C 
ENDROOT
BRANCH  10   9
ATOM      4  C   UNL     1      12.392  17.494  15.519  0.00  0.00    +0.077 A 
ATOM      5  C   UNL     1      12.787  16.309  14.814  0.00  0.00    +0.048 A 
ATOM      6  C   UNL     1      12.402  16.201  13.459  0.00  0.00    +0.116 A 
ATOM      7  N   UNL     1      11.675  17.210  12.863  0.00  0.00    -0.223 NA
ATOM      8  C   UNL     1      11.308  18.339  13.573  0.00  0.00    +0.220 A 
ATOM      9  N   UNL     1      10.584  19.368  12.992  0.00  0.00    -0.283 N 
ATOM     36  H   UNL     1      10.327  20.181  13.551  0.00  0.00    +0.155 HD
ATOM     37  N   UNL     1      11.663  18.465  14.868  0.00  0.00    -0.214 NA
BRANCH   4   3
ATOM      1  C   UNL     1      12.141  17.838  19.407  0.00  0.00    +0.020 A 
ATOM      2  C   UNL     1      11.768  17.572  18.038  0.00  0.00    +0.013 A 
ATOM      3  C   UNL     1      12.726  17.756  16.955  0.00  0.00    +0.019 A 
ATOM     38  C   UNL     1      14.065  18.213  17.295  0.00  0.00    +0.120 A 
ATOM     39  N   UNL     1      14.396  18.463  18.623  0.00  0.00    -0.263 NA
ATOM     40  C   UNL     1      13.482  18.291  19.673  0.00  0.00    +0.111 A 
ENDBRANCH   4   3
ENDBRANCH  10   9
BRANCH  12  13
ATOM     13  N   UNL     1      11.604  20.279   8.208  0.00  0.00    -0.281 N 
ATOM     14  C   UNL     1      12.620  19.607   7.548  0.00  0.00    +0.248 C 
ATOM     30  O   UNL     1      13.087  18.536   7.906  0.00  0.00    -0.270 OA
ATOM     31  H   UNL     1      11.444  21.244   7.920  0.00  0.00    +0.155 HD
BRANCH  14  15
ATOM     15  C   UNL     1      13.212  20.221   6.321  0.00  0.00    +0.037 A 
ATOM     16  C   UNL     1      14.515  20.890   6.359  0.00  0.00    +0.013 A 
ATOM     17  C   UNL     1      15.056  21.488   5.164  0.00  0.00    +0.005 A 
ATOM     18  C   UNL     1      14.293  21.418   3.920  0.00  0.00    -0.033 A 
ATOM     28  C   UNL     1      13.006  20.744   3.909  0.00  0.00    +0.005 A 
ATOM     29  C   UNL     1      12.472  20.157   5.078  0.00  0.00    +0.013 A 
BRANCH  18  19
ATOM     19  C   UNL     1      14.783  22.047   2.602  0.00  0.00    +0.119 C 
BRANCH  19  20
ATOM     20  N   UNL     1      15.203  21.115   1.514  0.00  0.00    -0.302 NA
ATOM     21  C   UNL     1      16.506  21.561   0.845  0.00  0.00    +0.066 C 
ATOM     22  C   UNL     1      16.942  20.562  -0.276  0.00  0.00    -0.064 C 
ATOM     23  N   UNL     1      15.820  20.436  -1.308  0.00  0.00    +0.379 N 
ATOM     24  C   UNL     1      16.249  19.542  -2.393  0.00  0.00    -0.096 C 
ATOM     25  H   UNL     1      15.651  21.446  -1.748  0.00  0.00    -0.082 HD
ATOM     26  C   UNL     1      14.519  19.995  -0.651  0.00  0.00    -0.064 C 
ATOM     27  C   UNL     1      14.111  20.979   0.481  0.00  0.00    +0.066 C 
ENDBRANCH  19  20
ENDBRANCH  18  19
ENDBRANCH  14  15
ENDBRANCH  12  13
TORSDOF 6
ENDMDL
