MODEL 1
REMARK VINA RESULT:      -4.3      0.000      0.000
REMARK  Name = C:\Users\Docking\Desktop\test protocol\1iep_ligandH.pdb
REMARK  8 active torsions:
REMARK  status: ('A' for Active; 'I' for Inactive)
REMARK    1  A    between atoms: _5  and  _11
REMARK    2  A    between atoms: _19  and  _21
REMARK    3  A    between atoms: _22  and  _66
REMARK    4  A    between atoms: _27  and  _30
REMARK    5  A    between atoms: _32  and  _33
REMARK    6  A    between atoms: _38  and  _43
REMARK    7  A    between atoms: _43  and  _46
REMARK    8  A    between atoms: _53  and  _55
REMARK                            x       y       z     vdW  Elec       q    Type
REMARK                         _______ _______ _______ _____ _____    ______ ____
ROOT
ATOM     10  C   UNL     1      13.163  20.904  12.711  0.00  0.00    +0.038 A 
ATOM     11  C   UNL     1      12.471  20.635  11.502  0.00  0.00    +0.047 A 
ATOM     12  C   UNL     1      13.049  20.978  10.212  0.00  0.00    +0.035 A 
ATOM     32  C   UNL     1      14.335  21.592  10.190  0.00  0.00    +0.024 A 
ATOM     33  C   UNL     1      15.052  21.873  11.409  0.00  0.00    +0.007 A 
ATOM     34  C   UNL     1      14.486  21.539  12.685  0.00  0.00    -0.029 A 
ATOM     35  C   UNL     1      15.296  21.870  13.960  0.00  0.00    +0.045 C 
ENDROOT
BRANCH  10   9
ATOM      4  C   UNL     1      12.366  17.826  16.307  0.00  0.00    +0.077 A 
ATOM      5  C   UNL     1      13.199  16.821  15.710  0.00  0.00    +0.048 A 
ATOM      6  C   UNL     1      13.808  17.134  14.474  0.00  0.00    +0.116 A 
ATOM      7  N   UNL     1      13.594  18.363  13.888  0.00  0.00    -0.223 NA
ATOM      8  C   UNL     1      12.784  19.308  14.489  0.00  0.00    +0.220 A 
ATOM      9  N   UNL     1      12.561  20.553  13.921  0.00  0.00    -0.283 N 
ATOM     36  H   UNL     1      11.950  21.220  14.393  0.00  0.00    +0.155 HD
ATOM     37  N   UNL     1      12.189  19.033  15.669  0.00  0.00    -0.214 NA
BRANCH   4   3
ATOM      1  C   UNL     1      10.050  16.439  19.137  0.00  0.00    +0.020 A 
ATOM      2  C   UNL     1      10.708  16.567  17.858  0.00  0.00    +0.013 A 
ATOM      3  C   UNL     1      11.656  17.647  17.613  0.00  0.00    +0.019 A 
ATOM     38  C   UNL     1      11.919  18.586  18.693  0.00  0.00    +0.120 A 
ATOM     39  N   UNL     1      11.269  18.438  19.914  0.00  0.00    -0.263 NA
ATOM     40  C   UNL     1      10.353  17.404  20.160  0.00  0.00    +0.111 A 
ENDBRANCH   4   3
ENDBRANCH  10   9
BRANCH  12  13
ATOM     13  N   UNL     1      12.391  20.737   8.952  0.00  0.00    -0.281 N 
ATOM     14  C   UNL     1      12.458  19.603   8.160  0.00  0.00    +0.248 C 
ATOM     30  O   UNL     1      13.269  18.701   8.311  0.00  0.00    -0.270 OA
ATOM     31  H   UNL     1      11.803  21.494   8.602  0.00  0.00    +0.155 HD
BRANCH  14  15
ATOM     15  C   UNL     1      11.494  19.456   7.027  0.00  0.00    +0.037 A 
ATOM     16  C   UNL     1      10.079  19.162   7.266  0.00  0.00    +0.013 A 
ATOM     17  C   UNL     1       9.174  19.008   6.154  0.00  0.00    +0.005 A 
ATOM     18  C   UNL     1       9.683  19.150   4.792  0.00  0.00    -0.033 A 
ATOM     28  C   UNL     1      11.090  19.447   4.584  0.00  0.00    +0.005 A 
ATOM     29  C   UNL     1      11.980  19.597   5.671  0.00  0.00    +0.013 A 
BRANCH  18  19
ATOM     19  C   UNL     1       8.794  18.981   3.546  0.00  0.00    +0.119 C 
BRANCH  19  20
ATOM     20  N   UNL     1       8.196  20.218   2.960  0.00  0.00    -0.302 NA
ATOM     21  C   UNL     1       9.175  20.945   2.033  0.00  0.00    +0.066 C 
ATOM     22  C   UNL     1       8.527  22.224   1.411  0.00  0.00    -0.064 C 
ATOM     23  N   UNL     1       8.053  23.150   2.533  0.00  0.00    +0.379 N 
ATOM     24  C   UNL     1       7.495  24.380   1.952  0.00  0.00    -0.096 C 
ATOM     25  H   UNL     1       8.947  23.435   3.135  0.00  0.00    -0.082 HD
ATOM     26  C   UNL     1       7.082  22.434   3.461  0.00  0.00    -0.064 C 
ATOM     27  C   UNL     1       7.726  21.148   4.050  0.00  0.00    +0.066 C 
ENDBRANCH  19  20
ENDBRANCH  18  19
ENDBRANCH  14  15
ENDBRANCH  12  13
TORSDOF 6
ENDMDL
MODEL 2
REMARK VINA RESULT:      -4.1      4.108      5.641
REMARK  Name = C:\Users\Docking\Desktop\test protocol\1iep_ligandH.pdb
REMARK  8 active torsions:
REMARK  status: ('A' for Active; 'I' for Inactive)
REMARK    1  A    between atoms: _5  and  _11
REMARK    2  A    between atoms: _19  and  _21
REMARK    3  A    between atoms: _22  and  _66
REMARK    4  A    between atoms: _27  and  _30
REMARK    5  A    between atoms: _32  and  _33
REMARK    6  A    between atoms: _38  and  _43
REMARK    7  A    between atoms: _43  and  _46
REMARK    8  A    between atoms: _53  and  _55
REMARK                            x       y       z     vdW  Elec       q    Type
REMARK                         _______ _______ _______ _____ _____    ______ ____
ROOT
ATOM     10  C   UNL     1       9.412  19.611  10.003  0.00  0.00    +0.038 A 
ATOM     11  C   UNL     1      10.206  19.555   8.829  0.00  0.00    +0.047 A 
ATOM     12  C   UNL     1       9.631  19.168   7.550  0.00  0.00    +0.035 A 
ATOM     32  C   UNL     1       8.242  18.848   7.502  0.00  0.00    +0.024 A 
ATOM     33  C   UNL     1       7.421  18.899   8.686  0.00  0.00    +0.007 A 
ATOM     34  C   UNL     1       7.984  19.277   9.951  0.00  0.00    -0.029 A 
ATOM     35  C   UNL     1       7.057  19.308  11.189  0.00  0.00    +0.045 C 
ENDROOT
BRANCH  10   9
ATOM      4  C   UNL     1      11.888  18.613  13.992  0.00  0.00    +0.077 A 
ATOM      5  C   UNL     1      11.962  17.218  13.668  0.00  0.00    +0.048 A 
ATOM      6  C   UNL     1      11.343  16.796  12.470  0.00  0.00    +0.116 A 
ATOM      7  N   UNL     1      10.702  17.711  11.663  0.00  0.00    -0.223 NA
ATOM      8  C   UNL     1      10.648  19.049  12.005  0.00  0.00    +0.220 A 
ATOM      9  N   UNL     1      10.016  19.988  11.204  0.00  0.00    -0.283 N 
ATOM     36  H   UNL     1       9.992  20.965  11.496  0.00  0.00    +0.155 HD
ATOM     37  N   UNL     1      11.230  19.477  13.145  0.00  0.00    -0.214 NA
BRANCH   4   3
ATOM      1  C   UNL     1      12.881  19.293  17.714  0.00  0.00    +0.020 A 
ATOM      2  C   UNL     1      12.270  18.677  16.558  0.00  0.00    +0.013 A 
ATOM      3  C   UNL     1      12.496  19.213  15.222  0.00  0.00    +0.019 A 
ATOM     38  C   UNL     1      13.352  20.382  15.087  0.00  0.00    +0.120 A 
ATOM     39  N   UNL     1      13.925  20.955  16.218  0.00  0.00    -0.263 NA
ATOM     40  C   UNL     1      13.714  20.449  17.510  0.00  0.00    +0.111 A 
ENDBRANCH   4   3
ENDBRANCH  10   9
BRANCH  12  13
ATOM     13  N   UNL     1      10.388  19.086   6.326  0.00  0.00    -0.281 N 
ATOM     14  C   UNL     1      10.231  19.839   5.174  0.00  0.00    +0.248 C 
ATOM     30  O   UNL     1       9.270  20.558   4.944  0.00  0.00    -0.270 OA
ATOM     31  H   UNL     1      11.131  18.387   6.306  0.00  0.00    +0.155 HD
BRANCH  14  15
ATOM     15  C   UNL     1      11.288  19.775   4.119  0.00  0.00    +0.037 A 
ATOM     16  C   UNL     1      10.954  19.922   2.700  0.00  0.00    +0.013 A 
ATOM     17  C   UNL     1      11.991  19.838   1.701  0.00  0.00    +0.005 A 
ATOM     18  C   UNL     1      13.371  19.607   2.119  0.00  0.00    -0.033 A 
ATOM     28  C   UNL     1      13.675  19.470   3.534  0.00  0.00    +0.005 A 
ATOM     29  C   UNL     1      12.662  19.550   4.516  0.00  0.00    +0.013 A 
BRANCH  18  19
ATOM     19  C   UNL     1      14.538  19.483   1.121  0.00  0.00    +0.119 C 
BRANCH  19  20
ATOM     20  N   UNL     1      15.335  20.715   0.845  0.00  0.00    -0.302 NA
ATOM     21  C   UNL     1      14.583  21.988   1.241  0.00  0.00    +0.066 C 
ATOM     22  C   UNL     1      15.441  23.265   0.966  0.00  0.00    -0.064 C 
ATOM     23  N   UNL     1      15.832  23.305  -0.512  0.00  0.00    +0.379 N 
ATOM     24  C   UNL     1      16.590  24.535  -0.786  0.00  0.00    -0.096 C 
ATOM     25  H   UNL     1      14.892  23.347  -1.109  0.00  0.00    -0.082 HD
ATOM     26  C   UNL     1      16.579  22.042  -0.915  0.00  0.00    -0.064 C 
ATOM     27  C   UNL     1      15.729  20.777  -0.611  0.00  0.00    +0.066 C 
ENDBRANCH  19  20
ENDBRANCH  18  19
ENDBRANCH  14  15
ENDBRANCH  12  13
TORSDOF 6
ENDMDL
MODEL 3
REMARK VINA RESULT:      -4.1      3.777      5.020
REMARK  Name = C:\Users\Docking\Desktop\test protocol\1iep_ligandH.pdb
REMARK  8 active torsions:
REMARK  status: ('A' for Active; 'I' for Inactive)
REMARK    1  A    between atoms: _5  and  _11
REMARK    2  A    between atoms: _19  and  _21
REMARK    3  A    between atoms: _22  and  _66
REMARK    4  A    between atoms: _27  and  _30
REMARK    5  A    between atoms: _32  and  _33
REMARK    6  A    between atoms: _38  and  _43
REMARK    7  A    between atoms: _43  and  _46
REMARK    8  A    between atoms: _53  and  _55
REMARK                            x       y       z     vdW  Elec       q    Type
REMARK                         _______ _______ _______ _____ _____    ______ ____
ROOT
ATOM     10  C   UNL     1      10.355  19.371  12.017  0.00  0.00    +0.038 A 
ATOM     11  C   UNL     1      11.214  19.906  11.023  0.00  0.00    +0.047 A 
ATOM     12  C   UNL     1      10.881  19.812   9.611  0.00  0.00    +0.035 A 
ATOM     32  C   UNL     1       9.663  19.168   9.245  0.00  0.00    +0.024 A 
ATOM     33  C   UNL     1       8.779  18.618  10.242  0.00  0.00    +0.007 A 
ATOM     34  C   UNL     1       9.103  18.706  11.637  0.00  0.00    -0.029 A 
ATOM     35  C   UNL     1       8.120  18.093  12.662  0.00  0.00    +0.045 C 
ENDROOT
BRANCH  10   9
ATOM      4  C   UNL     1      12.649  17.802  15.930  0.00  0.00    +0.077 A 
ATOM      5  C   UNL     1      13.131  16.634  15.252  0.00  0.00    +0.048 A 
ATOM      6  C   UNL     1      12.760  16.470  13.898  0.00  0.00    +0.116 A 
ATOM      7  N   UNL     1      11.966  17.412  13.279  0.00  0.00    -0.223 NA
ATOM      8  C   UNL     1      11.517  18.526  13.963  0.00  0.00    +0.220 A 
ATOM      9  N   UNL     1      10.724  19.490  13.359  0.00  0.00    -0.283 N 
ATOM     36  H   UNL     1      10.407  20.294  13.900  0.00  0.00    +0.155 HD
ATOM     37  N   UNL     1      11.856  18.705  15.257  0.00  0.00    -0.214 NA
BRANCH   4   3
ATOM      1  C   UNL     1      13.997  17.577  19.596  0.00  0.00    +0.020 A 
ATOM      2  C   UNL     1      13.726  17.225  18.221  0.00  0.00    +0.013 A 
ATOM      3  C   UNL     1      12.958  18.117  17.361  0.00  0.00    +0.019 A 
ATOM     38  C   UNL     1      12.475  19.368  17.927  0.00  0.00    +0.120 A 
ATOM     39  N   UNL     1      12.750  19.679  19.255  0.00  0.00    -0.263 NA
ATOM     40  C   UNL     1      13.487  18.828  20.093  0.00  0.00    +0.111 A 
ENDBRANCH   4   3
ENDBRANCH  10   9
BRANCH  12  13
ATOM     13  N   UNL     1      11.718  20.329   8.557  0.00  0.00    -0.281 N 
ATOM     14  C   UNL     1      12.850  19.750   8.006  0.00  0.00    +0.248 C 
ATOM     30  O   UNL     1      13.440  18.794   8.486  0.00  0.00    -0.270 OA
ATOM     31  H   UNL     1      11.443  21.232   8.169  0.00  0.00    +0.155 HD
BRANCH  14  15
ATOM     15  C   UNL     1      13.417  20.326   6.749  0.00  0.00    +0.037 A 
ATOM     16  C   UNL     1      14.616  21.168   6.771  0.00  0.00    +0.013 A 
ATOM     17  C   UNL     1      15.132  21.724   5.546  0.00  0.00    +0.005 A 
ATOM     18  C   UNL     1      14.449  21.439   4.286  0.00  0.00    -0.033 A 
ATOM     28  C   UNL     1      13.265  20.596   4.292  0.00  0.00    +0.005 A 
ATOM     29  C   UNL     1      12.755  20.050   5.491  0.00  0.00    +0.013 A 
BRANCH  18  19
ATOM     19  C   UNL     1      14.917  22.008   2.934  0.00  0.00    +0.119 C 
BRANCH  19  20
ATOM     20  N   UNL     1      15.243  21.027   1.856  0.00  0.00    -0.302 NA
ATOM     21  C   UNL     1      16.626  21.280   1.248  0.00  0.00    +0.066 C 
ATOM     22  C   UNL     1      16.960  20.232   0.137  0.00  0.00    -0.064 C 
ATOM     23  N   UNL     1      15.877  20.274  -0.943  0.00  0.00    +0.379 N 
ATOM     24  C   UNL     1      16.219  19.331  -2.017  0.00  0.00    -0.096 C 
ATOM     25  H   UNL     1      15.877  21.300  -1.380  0.00  0.00    -0.082 HD
ATOM     26  C   UNL     1      14.499  20.026  -0.347  0.00  0.00    -0.064 C 
ATOM     27  C   UNL     1      14.189  21.056   0.776  0.00  0.00    +0.066 C 
ENDBRANCH  19  20
ENDBRANCH  18  19
ENDBRANCH  14  15
ENDBRANCH  12  13
TORSDOF 6
ENDMDL
