MODEL 1
REMARK VINA RESULT:      -7.4      0.000      0.000
REMARK  Name = C:\Users\Docking\Desktop\test protocol\1iep_ligandH.pdb
REMARK  8 active torsions:
REMARK  status: ('A' for Active; 'I' for Inactive)
REMARK    1  A    between atoms: _5  and  _11
REMARK    2  A    between atoms: _19  and  _21
REMARK    3  A    between atoms: _22  and  _66
REMARK    4  A    between atoms: _27  and  _30
REMARK    5  A    between atoms: _32  and  _33
REMARK    6  A    between atoms: _38  and  _43
REMARK    7  A    between atoms: _43  and  _46
REMARK    8  A    between atoms: _53  and  _55
REMARK                            x       y       z     vdW  Elec       q    Type
REMARK                         _______ _______ _______ _____ _____    ______ ____
ROOT
ATOM     10  C   UNL     1       9.462  18.459   0.734  0.00  0.00    +0.038 A 
ATOM     11  C   UNL     1       8.144  18.252   0.253  0.00  0.00    +0.047 A 
ATOM     12  C   UNL     1       7.017  18.987   0.806  0.00  0.00    +0.035 A 
ATOM     32  C   UNL     1       7.269  19.927   1.847  0.00  0.00    +0.024 A 
ATOM     33  C   UNL     1       8.602  20.150   2.348  0.00  0.00    +0.007 A 
ATOM     34  C   UNL     1       9.718  19.426   1.808  0.00  0.00    -0.029 A 
ATOM     35  C   UNL     1      11.124  19.701   2.389  0.00  0.00    +0.045 C 
ENDROOT
BRANCH  10   9
ATOM      4  C   UNL     1      13.058  17.950  -2.404  0.00  0.00    +0.077 A 
ATOM      5  C   UNL     1      12.818  19.242  -2.979  0.00  0.00    +0.048 A 
ATOM      6  C   UNL     1      11.755  20.003  -2.444  0.00  0.00    +0.116 A 
ATOM      7  N   UNL     1      10.995  19.500  -1.410  0.00  0.00    -0.223 NA
ATOM      8  C   UNL     1      11.253  18.249  -0.879  0.00  0.00    +0.220 A 
ATOM      9  N   UNL     1      10.507  17.727   0.166  0.00  0.00    -0.283 N 
ATOM     36  H   UNL     1      10.724  16.797   0.525  0.00  0.00    +0.155 HD
ATOM     37  N   UNL     1      12.262  17.502  -1.374  0.00  0.00    -0.214 NA
BRANCH   4   3
ATOM      1  C   UNL     1      15.051  15.190  -4.331  0.00  0.00    +0.020 A 
ATOM      2  C   UNL     1      13.966  16.057  -3.930  0.00  0.00    +0.013 A 
ATOM      3  C   UNL     1      14.147  17.029  -2.859  0.00  0.00    +0.019 A 
ATOM     38  C   UNL     1      15.448  17.100  -2.210  0.00  0.00    +0.120 A 
ATOM     39  N   UNL     1      16.473  16.252  -2.618  0.00  0.00    -0.263 NA
ATOM     40  C   UNL     1      16.310  15.312  -3.646  0.00  0.00    +0.111 A 
ENDBRANCH   4   3
ENDBRANCH  10   9
BRANCH  12  13
ATOM     13  N   UNL     1       5.656  18.813   0.364  0.00  0.00    -0.281 N 
ATOM     14  C   UNL     1       4.602  18.238   1.056  0.00  0.00    +0.248 C 
ATOM     30  O   UNL     1       4.723  17.591   2.085  0.00  0.00    -0.270 OA
ATOM     31  H   UNL     1       5.443  19.154  -0.574  0.00  0.00    +0.155 HD
BRANCH  14  15
ATOM     15  C   UNL     1       3.216  18.393   0.519  0.00  0.00    +0.037 A 
ATOM     16  C   UNL     1       2.972  18.579  -0.913  0.00  0.00    +0.013 A 
ATOM     17  C   UNL     1       1.626  18.744  -1.402  0.00  0.00    +0.005 A 
ATOM     18  C   UNL     1       0.512  18.721  -0.456  0.00  0.00    -0.033 A 
ATOM     28  C   UNL     1       0.783  18.530   0.959  0.00  0.00    +0.005 A 
ATOM     29  C   UNL     1       2.101  18.370   1.442  0.00  0.00    +0.013 A 
BRANCH  18  19
ATOM     19  C   UNL     1      -0.954  18.910  -0.887  0.00  0.00    +0.119 C 
BRANCH  19  20
ATOM     20  N   UNL     1      -1.871  17.742  -0.723  0.00  0.00    -0.302 NA
ATOM     21  C   UNL     1      -1.223  16.434  -1.189  0.00  0.00    +0.066 C 
ATOM     22  C   UNL     1      -2.187  15.220  -0.990  0.00  0.00    -0.064 C 
ATOM     23  N   UNL     1      -3.491  15.478  -1.747  0.00  0.00    +0.379 N 
ATOM     24  C   UNL     1      -4.377  14.312  -1.609  0.00  0.00    -0.096 C 
ATOM     25  H   UNL     1      -3.239  15.586  -2.827  0.00  0.00    -0.082 HD
ATOM     26  C   UNL     1      -4.140  16.777  -1.292  0.00  0.00    -0.064 C 
ATOM     27  C   UNL     1      -3.163  17.973  -1.466  0.00  0.00    +0.066 C 
ENDBRANCH  19  20
ENDBRANCH  18  19
ENDBRANCH  14  15
ENDBRANCH  12  13
TORSDOF 6
ENDMDL
MODEL 2
REMARK VINA RESULT:      -7.3     28.184     30.785
REMARK  Name = C:\Users\Docking\Desktop\test protocol\1iep_ligandH.pdb
REMARK  8 active torsions:
REMARK  status: ('A' for Active; 'I' for Inactive)
REMARK    1  A    between atoms: _5  and  _11
REMARK    2  A    between atoms: _19  and  _21
REMARK    3  A    between atoms: _22  and  _66
REMARK    4  A    between atoms: _27  and  _30
REMARK    5  A    between atoms: _32  and  _33
REMARK    6  A    between atoms: _38  and  _43
REMARK    7  A    between atoms: _43  and  _46
REMARK    8  A    between atoms: _53  and  _55
REMARK                            x       y       z     vdW  Elec       q    Type
REMARK                         _______ _______ _______ _____ _____    ______ ____
ROOT
ATOM     10  C   UNL     1      20.704  -7.971  -8.304  0.00  0.00    +0.038 A 
ATOM     11  C   UNL     1      19.442  -8.495  -7.926  0.00  0.00    +0.047 A 
ATOM     12  C   UNL     1      19.269  -9.211  -6.672  0.00  0.00    +0.035 A 
ATOM     32  C   UNL     1      20.403  -9.372  -5.824  0.00  0.00    +0.024 A 
ATOM     33  C   UNL     1      21.694  -8.847  -6.193  0.00  0.00    +0.007 A 
ATOM     34  C   UNL     1      21.871  -8.142  -7.430  0.00  0.00    -0.029 A 
ATOM     35  C   UNL     1      23.280  -7.605  -7.777  0.00  0.00    +0.045 C 
ENDROOT
BRANCH  10   9
ATOM      4  C   UNL     1      21.889  -7.776 -12.951  0.00  0.00    +0.077 A 
ATOM      5  C   UNL     1      22.354  -9.132 -12.950  0.00  0.00    +0.048 A 
ATOM      6  C   UNL     1      22.278  -9.844 -11.732  0.00  0.00    +0.116 A 
ATOM      7  N   UNL     1      21.772  -9.234 -10.605  0.00  0.00    -0.223 NA
ATOM      8  C   UNL     1      21.333  -7.923 -10.639  0.00  0.00    +0.220 A 
ATOM      9  N   UNL     1      20.814  -7.292  -9.519  0.00  0.00    -0.283 N 
ATOM     36  H   UNL     1      20.507  -6.322  -9.584  0.00  0.00    +0.155 HD
ATOM     37  N   UNL     1      21.397  -7.222 -11.790  0.00  0.00    -0.214 NA
BRANCH   4   3
ATOM      1  C   UNL     1      21.072  -6.226 -16.449  0.00  0.00    +0.020 A 
ATOM      2  C   UNL     1      21.020  -7.106 -15.304  0.00  0.00    +0.013 A 
ATOM      3  C   UNL     1      21.901  -6.895 -14.162  0.00  0.00    +0.019 A 
ATOM     38  C   UNL     1      22.828  -5.775 -14.209  0.00  0.00    +0.120 A 
ATOM     39  N   UNL     1      22.856  -4.945 -15.326  0.00  0.00    -0.263 NA
ATOM     40  C   UNL     1      22.015  -5.139 -16.431  0.00  0.00    +0.111 A 
ENDBRANCH   4   3
ENDBRANCH  10   9
BRANCH  12  13
ATOM     13  N   UNL     1      18.013  -9.773  -6.239  0.00  0.00    -0.281 N 
ATOM     14  C   UNL     1      17.707 -11.106  -6.021  0.00  0.00    +0.248 C 
ATOM     30  O   UNL     1      18.409 -12.043  -6.371  0.00  0.00    -0.270 OA
ATOM     31  H   UNL     1      17.259  -9.106  -6.075  0.00  0.00    +0.155 HD
BRANCH  14  15
ATOM     15  C   UNL     1      16.429 -11.448  -5.325  0.00  0.00    +0.037 A 
ATOM     16  C   UNL     1      15.552 -12.510  -5.825  0.00  0.00    +0.013 A 
ATOM     17  C   UNL     1      14.317 -12.808  -5.145  0.00  0.00    +0.005 A 
ATOM     18  C   UNL     1      13.953 -12.044  -3.954  0.00  0.00    -0.033 A 
ATOM     28  C   UNL     1      14.844 -11.000  -3.476  0.00  0.00    +0.005 A 
ATOM     29  C   UNL     1      16.055 -10.704  -4.141  0.00  0.00    +0.013 A 
BRANCH  18  19
ATOM     19  C   UNL     1      12.644 -12.280  -3.177  0.00  0.00    +0.119 C 
BRANCH  19  20
ATOM     20  N   UNL     1      12.134 -11.155  -2.339  0.00  0.00    -0.302 NA
ATOM     21  C   UNL     1      12.607 -11.260  -0.886  0.00  0.00    +0.066 C 
ATOM     22  C   UNL     1      12.083 -10.063  -0.028  0.00  0.00    -0.064 C 
ATOM     23  N   UNL     1      10.555 -10.018  -0.099  0.00  0.00    +0.379 N 
ATOM     24  C   UNL     1      10.056  -8.929   0.753  0.00  0.00    -0.096 C 
ATOM     25  H   UNL     1      10.170 -10.978   0.318  0.00  0.00    -0.082 HD
ATOM     26  C   UNL     1      10.077  -9.916  -1.540  0.00  0.00    -0.064 C 
ATOM     27  C   UNL     1      10.627 -11.095  -2.391  0.00  0.00    +0.066 C 
ENDBRANCH  19  20
ENDBRANCH  18  19
ENDBRANCH  14  15
ENDBRANCH  12  13
TORSDOF 6
ENDMDL
MODEL 3
REMARK VINA RESULT:      -7.3      1.833     12.872
REMARK  Name = C:\Users\Docking\Desktop\test protocol\1iep_ligandH.pdb
REMARK  8 active torsions:
REMARK  status: ('A' for Active; 'I' for Inactive)
REMARK    1  A    between atoms: _5  and  _11
REMARK    2  A    between atoms: _19  and  _21
REMARK    3  A    between atoms: _22  and  _66
REMARK    4  A    between atoms: _27  and  _30
REMARK    5  A    between atoms: _32  and  _33
REMARK    6  A    between atoms: _38  and  _43
REMARK    7  A    between atoms: _43  and  _46
REMARK    8  A    between atoms: _53  and  _55
REMARK                            x       y       z     vdW  Elec       q    Type
REMARK                         _______ _______ _______ _____ _____    ______ ____
ROOT
ATOM     10  C   UNL     1       4.682  18.747   1.874  0.00  0.00    +0.038 A 
ATOM     11  C   UNL     1       5.807  18.695   1.012  0.00  0.00    +0.047 A 
ATOM     12  C   UNL     1       7.009  19.464   1.296  0.00  0.00    +0.035 A 
ATOM     32  C   UNL     1       7.033  20.273   2.469  0.00  0.00    +0.024 A 
ATOM     33  C   UNL     1       5.898  20.338   3.356  0.00  0.00    +0.007 A 
ATOM     34  C   UNL     1       4.708  19.585   3.080  0.00  0.00    -0.029 A 
ATOM     35  C   UNL     1       3.520  19.698   4.063  0.00  0.00    +0.045 C 
ENDROOT
BRANCH  10   9
ATOM      4  C   UNL     1       0.503  18.134  -0.405  0.00  0.00    +0.077 A 
ATOM      5  C   UNL     1       0.559  19.446  -0.984  0.00  0.00    +0.048 A 
ATOM      6  C   UNL     1       1.676  20.249  -0.665  0.00  0.00    +0.116 A 
ATOM      7  N   UNL     1       2.659  19.767   0.173  0.00  0.00    -0.223 NA
ATOM      8  C   UNL     1       2.573  18.498   0.716  0.00  0.00    +0.220 A 
ATOM      9  N   UNL     1       3.554  17.989   1.554  0.00  0.00    -0.283 N 
ATOM     36  H   UNL     1       3.450  17.051   1.940  0.00  0.00    +0.155 HD
ATOM     37  N   UNL     1       1.516  17.712   0.427  0.00  0.00    -0.214 NA
BRANCH   4   3
ATOM      1  C   UNL     1      -1.655  14.873  -0.505  0.00  0.00    +0.020 A 
ATOM      2  C   UNL     1      -0.550  15.767  -0.245  0.00  0.00    +0.013 A 
ATOM      3  C   UNL     1      -0.612  17.166  -0.650  0.00  0.00    +0.019 A 
ATOM     38  C   UNL     1      -1.817  17.633  -1.319  0.00  0.00    +0.120 A 
ATOM     39  N   UNL     1      -2.865  16.749  -1.557  0.00  0.00    -0.263 NA
ATOM     40  C   UNL     1      -2.815  15.400  -1.175  0.00  0.00    +0.111 A 
ENDBRANCH   4   3
ENDBRANCH  10   9
BRANCH  12  13
ATOM     13  N   UNL     1       8.179  19.457   0.452  0.00  0.00    -0.281 N 
ATOM     14  C   UNL     1       9.468  19.078   0.788  0.00  0.00    +0.248 C 
ATOM     30  O   UNL     1       9.858  18.889   1.931  0.00  0.00    -0.270 OA
ATOM     31  H   UNL     1       8.039  19.769  -0.509  0.00  0.00    +0.155 HD
BRANCH  14  15
ATOM     15  C   UNL     1      10.474  18.897  -0.302  0.00  0.00    +0.037 A 
ATOM     16  C   UNL     1      10.877  20.016  -1.158  0.00  0.00    +0.013 A 
ATOM     17  C   UNL     1      11.837  19.811  -2.214  0.00  0.00    +0.005 A 
ATOM     18  C   UNL     1      12.402  18.480  -2.418  0.00  0.00    -0.033 A 
ATOM     28  C   UNL     1      11.989  17.388  -1.551  0.00  0.00    +0.005 A 
ATOM     29  C   UNL     1      11.048  17.586  -0.517  0.00  0.00    +0.013 A 
BRANCH  18  19
ATOM     19  C   UNL     1      13.417  18.164  -3.533  0.00  0.00    +0.119 C 
BRANCH  19  20
ATOM     20  N   UNL     1      14.440  17.114  -3.250  0.00  0.00    -0.302 NA
ATOM     21  C   UNL     1      15.609  17.660  -2.424  0.00  0.00    +0.066 C 
ATOM     22  C   UNL     1      16.660  16.543  -2.117  0.00  0.00    -0.064 C 
ATOM     23  N   UNL     1      17.159  15.942  -3.432  0.00  0.00    +0.379 N 
ATOM     24  C   UNL     1      18.189  14.932  -3.149  0.00  0.00    -0.096 C 
ATOM     25  H   UNL     1      17.639  16.760  -4.017  0.00  0.00    -0.082 HD
ATOM     26  C   UNL     1      16.003  15.399  -4.260  0.00  0.00    -0.064 C 
ATOM     27  C   UNL     1      14.951  16.510  -4.535  0.00  0.00    +0.066 C 
ENDBRANCH  19  20
ENDBRANCH  18  19
ENDBRANCH  14  15
ENDBRANCH  12  13
TORSDOF 6
ENDMDL
MODEL 4
REMARK VINA RESULT:      -7.1     25.704     29.919
REMARK  Name = C:\Users\Docking\Desktop\test protocol\1iep_ligandH.pdb
REMARK  8 active torsions:
REMARK  status: ('A' for Active; 'I' for Inactive)
REMARK    1  A    between atoms: _5  and  _11
REMARK    2  A    between atoms: _19  and  _21
REMARK    3  A    between atoms: _22  and  _66
REMARK    4  A    between atoms: _27  and  _30
REMARK    5  A    between atoms: _32  and  _33
REMARK    6  A    between atoms: _38  and  _43
REMARK    7  A    between atoms: _43  and  _46
REMARK    8  A    between atoms: _53  and  _55
REMARK                            x       y       z     vdW  Elec       q    Type
REMARK                         _______ _______ _______ _____ _____    ______ ____
ROOT
ATOM     10  C   UNL     1      18.987 -10.803  -7.105  0.00  0.00    +0.038 A 
ATOM     11  C   UNL     1      18.068 -10.347  -6.126  0.00  0.00    +0.047 A 
ATOM     12  C   UNL     1      17.705 -11.180  -4.990  0.00  0.00    +0.035 A 
ATOM     32  C   UNL     1      18.300 -12.471  -4.881  0.00  0.00    +0.024 A 
ATOM     33  C   UNL     1      19.235 -12.950  -5.868  0.00  0.00    +0.007 A 
ATOM     34  C   UNL     1      19.595 -12.134  -6.992  0.00  0.00    -0.029 A 
ATOM     35  C   UNL     1      20.598 -12.702  -8.023  0.00  0.00    +0.045 C 
ENDROOT
BRANCH  10   9
ATOM      4  C   UNL     1      21.892  -7.711  -9.350  0.00  0.00    +0.077 A 
ATOM      5  C   UNL     1      22.856  -7.755  -8.288  0.00  0.00    +0.048 A 
ATOM      6  C   UNL     1      22.563  -8.580  -7.179  0.00  0.00    +0.116 A 
ATOM      7  N   UNL     1      21.391  -9.303  -7.145  0.00  0.00    -0.223 NA
ATOM      8  C   UNL     1      20.482  -9.237  -8.185  0.00  0.00    +0.220 A 
ATOM      9  N   UNL     1      19.300  -9.961  -8.175  0.00  0.00    -0.283 N 
ATOM     36  H   UNL     1      18.652  -9.880  -8.958  0.00  0.00    +0.155 HD
ATOM     37  N   UNL     1      20.738  -8.455  -9.255  0.00  0.00    -0.214 NA
BRANCH   4   3
ATOM      1  C   UNL     1      21.407  -6.215 -12.931  0.00  0.00    +0.020 A 
ATOM      2  C   UNL     1      21.202  -7.034 -11.759  0.00  0.00    +0.013 A 
ATOM      3  C   UNL     1      22.060  -6.889 -10.590  0.00  0.00    +0.019 A 
ATOM     38  C   UNL     1      23.124  -5.897 -10.639  0.00  0.00    +0.120 A 
ATOM     39  N   UNL     1      23.298  -5.123 -11.782  0.00  0.00    -0.263 NA
ATOM     40  C   UNL     1      22.479  -5.255 -12.914  0.00  0.00    +0.111 A 
ENDBRANCH   4   3
ENDBRANCH  10   9
BRANCH  12  13
ATOM     13  N   UNL     1      16.772 -10.774  -3.968  0.00  0.00    -0.281 N 
ATOM     14  C   UNL     1      15.492 -11.255  -3.745  0.00  0.00    +0.248 C 
ATOM     30  O   UNL     1      14.872 -11.961  -4.527  0.00  0.00    -0.270 OA
ATOM     31  H   UNL     1      17.094 -10.044  -3.333  0.00  0.00    +0.155 HD
BRANCH  14  15
ATOM     15  C   UNL     1      14.794 -10.887  -2.476  0.00  0.00    +0.037 A 
ATOM     16  C   UNL     1      15.078 -11.587  -1.221  0.00  0.00    +0.013 A 
ATOM     17  C   UNL     1      14.378 -11.223  -0.014  0.00  0.00    +0.005 A 
ATOM     18  C   UNL     1      13.386 -10.151  -0.058  0.00  0.00    -0.033 A 
ATOM     28  C   UNL     1      13.128  -9.469  -1.315  0.00  0.00    +0.005 A 
ATOM     29  C   UNL     1      13.811  -9.824  -2.499  0.00  0.00    +0.013 A 
BRANCH  18  19
ATOM     19  C   UNL     1      12.577  -9.711   1.176  0.00  0.00    +0.119 C 
BRANCH  19  20
ATOM     20  N   UNL     1      11.601  -8.595   0.991  0.00  0.00    -0.302 NA
ATOM     21  C   UNL     1      11.904  -7.408   1.910  0.00  0.00    +0.066 C 
ATOM     22  C   UNL     1      10.887  -6.242   1.687  0.00  0.00    -0.064 C 
ATOM     23  N   UNL     1       9.466  -6.757   1.919  0.00  0.00    +0.379 N 
ATOM     24  C   UNL     1       8.511  -5.649   1.767  0.00  0.00    -0.096 C 
ATOM     25  H   UNL     1       9.403  -7.115   2.973  0.00  0.00    -0.082 HD
ATOM     26  C   UNL     1       9.157  -7.939   1.011  0.00  0.00    -0.064 C 
ATOM     27  C   UNL     1      10.190  -9.081   1.219  0.00  0.00    +0.066 C 
ENDBRANCH  19  20
ENDBRANCH  18  19
ENDBRANCH  14  15
ENDBRANCH  12  13
TORSDOF 6
ENDMDL
MODEL 5
REMARK VINA RESULT:      -7.0     25.872     29.247
REMARK  Name = C:\Users\Docking\Desktop\test protocol\1iep_ligandH.pdb
REMARK  8 active torsions:
REMARK  status: ('A' for Active; 'I' for Inactive)
REMARK    1  A    between atoms: _5  and  _11
REMARK    2  A    between atoms: _19  and  _21
REMARK    3  A    between atoms: _22  and  _66
REMARK    4  A    between atoms: _27  and  _30
REMARK    5  A    between atoms: _32  and  _33
REMARK    6  A    between atoms: _38  and  _43
REMARK    7  A    between atoms: _43  and  _46
REMARK    8  A    between atoms: _53  and  _55
REMARK                            x       y       z     vdW  Elec       q    Type
REMARK                         _______ _______ _______ _____ _____    ______ ____
ROOT
ATOM     10  C   UNL     1      17.004 -11.382  -5.679  0.00  0.00    +0.038 A 
ATOM     11  C   UNL     1      16.027 -10.691  -4.918  0.00  0.00    +0.047 A 
ATOM     12  C   UNL     1      15.242 -11.374  -3.902  0.00  0.00    +0.035 A 
ATOM     32  C   UNL     1      15.481 -12.762  -3.684  0.00  0.00    +0.024 A 
ATOM     33  C   UNL     1      16.470 -13.481  -4.448  0.00  0.00    +0.007 A 
ATOM     34  C   UNL     1      17.245 -12.813  -5.454  0.00  0.00    -0.029 A 
ATOM     35  C   UNL     1      18.288 -13.635  -6.247  0.00  0.00    +0.045 C 
ENDROOT
BRANCH  10   9
ATOM      4  C   UNL     1      20.873  -8.926  -7.105  0.00  0.00    +0.077 A 
ATOM      5  C   UNL     1      21.491  -9.034  -5.815  0.00  0.00    +0.048 A 
ATOM      6  C   UNL     1      20.777  -9.723  -4.809  0.00  0.00    +0.116 A 
ATOM      7  N   UNL     1      19.538 -10.261  -5.085  0.00  0.00    -0.223 NA
ATOM      8  C   UNL     1      18.970 -10.137  -6.340  0.00  0.00    +0.220 A 
ATOM      9  N   UNL     1      17.729 -10.677  -6.642  0.00  0.00    -0.283 N 
ATOM     36  H   UNL     1      17.342 -10.557  -7.577  0.00  0.00    +0.155 HD
ATOM     37  N   UNL     1      19.631  -9.482  -7.317  0.00  0.00    -0.214 NA
BRANCH   4   3
ATOM      1  C   UNL     1      21.478  -7.368 -10.642  0.00  0.00    +0.020 A 
ATOM      2  C   UNL     1      20.824  -8.048  -9.548  0.00  0.00    +0.013 A 
ATOM      3  C   UNL     1      21.504  -8.230  -8.271  0.00  0.00    +0.019 A 
ATOM     38  C   UNL     1      22.855  -7.707  -8.133  0.00  0.00    +0.120 A 
ATOM     39  N   UNL     1      23.460  -7.058  -9.205  0.00  0.00    -0.263 NA
ATOM     40  C   UNL     1      22.816  -6.878 -10.439  0.00  0.00    +0.111 A 
ENDBRANCH   4   3
ENDBRANCH  10   9
BRANCH  12  13
ATOM     13  N   UNL     1      14.230 -10.726  -3.105  0.00  0.00    -0.281 N 
ATOM     14  C   UNL     1      12.923 -11.133  -2.893  0.00  0.00    +0.248 C 
ATOM     30  O   UNL     1      12.359 -12.009  -3.532  0.00  0.00    -0.270 OA
ATOM     31  H   UNL     1      14.512  -9.862  -2.641  0.00  0.00    +0.155 HD
BRANCH  14  15
ATOM     15  C   UNL     1      12.122 -10.460  -1.825  0.00  0.00    +0.037 A 
ATOM     16  C   UNL     1      10.657 -10.468  -1.856  0.00  0.00    +0.013 A 
ATOM     17  C   UNL     1       9.908  -9.797  -0.823  0.00  0.00    +0.005 A 
ATOM     18  C   UNL     1      10.624  -9.113   0.251  0.00  0.00    -0.033 A 
ATOM     28  C   UNL     1      12.078  -9.126   0.260  0.00  0.00    +0.005 A 
ATOM     29  C   UNL     1      12.815  -9.781  -0.752  0.00  0.00    +0.013 A 
BRANCH  18  19
ATOM     19  C   UNL     1       9.908  -8.354   1.383  0.00  0.00    +0.119 C 
BRANCH  19  20
ATOM     20  N   UNL     1       8.483  -7.970   1.153  0.00  0.00    -0.302 NA
ATOM     21  C   UNL     1       8.224  -6.497   1.480  0.00  0.00    +0.066 C 
ATOM     22  C   UNL     1       6.734  -6.107   1.213  0.00  0.00    -0.064 C 
ATOM     23  N   UNL     1       5.817  -7.013   2.036  0.00  0.00    +0.379 N 
ATOM     24  C   UNL     1       4.418  -6.611   1.832  0.00  0.00    -0.096 C 
ATOM     25  H   UNL     1       6.062  -6.853   3.112  0.00  0.00    -0.082 HD
ATOM     26  C   UNL     1       6.069  -8.480   1.720  0.00  0.00    -0.064 C 
ATOM     27  C   UNL     1       7.560  -8.850   1.960  0.00  0.00    +0.066 C 
ENDBRANCH  19  20
ENDBRANCH  18  19
ENDBRANCH  14  15
ENDBRANCH  12  13
TORSDOF 6
ENDMDL
