MODEL 1
REMARK VINA RESULT:      -7.6      0.000      0.000
REMARK  Name = C:\Users\Docking\Desktop\test protocol\1iep_ligandH.pdb
REMARK  8 active torsions:
REMARK  status: ('A' for Active; 'I' for Inactive)
REMARK    1  A    between atoms: _5  and  _11
REMARK    2  A    between atoms: _19  and  _21
REMARK    3  A    between atoms: _22  and  _66
REMARK    4  A    between atoms: _27  and  _30
REMARK    5  A    between atoms: _32  and  _33
REMARK    6  A    between atoms: _38  and  _43
REMARK    7  A    between atoms: _43  and  _46
REMARK    8  A    between atoms: _53  and  _55
REMARK                            x       y       z     vdW  Elec       q    Type
REMARK                         _______ _______ _______ _____ _____    ______ ____
ROOT
ATOM     10  C   UNL     1      19.654  65.872  13.577  0.00  0.00    +0.038 A 
ATOM     11  C   UNL     1      19.243  64.963  14.585  0.00  0.00    +0.047 A 
ATOM     12  C   UNL     1      19.701  65.106  15.959  0.00  0.00    +0.035 A 
ATOM     32  C   UNL     1      20.575  66.188  16.270  0.00  0.00    +0.024 A 
ATOM     33  C   UNL     1      21.004  67.120  15.257  0.00  0.00    +0.007 A 
ATOM     34  C   UNL     1      20.558  66.983  13.900  0.00  0.00    -0.029 A 
ATOM     35  C   UNL     1      21.055  68.007  12.854  0.00  0.00    +0.045 C 
ENDROOT
BRANCH  10   9
ATOM      4  C   UNL     1      16.241  66.217  10.220  0.00  0.00    +0.077 A 
ATOM      5  C   UNL     1      15.306  66.789  11.145  0.00  0.00    +0.048 A 
ATOM      6  C   UNL     1      15.740  66.971  12.477  0.00  0.00    +0.116 A 
ATOM      7  N   UNL     1      17.017  66.605  12.845  0.00  0.00    -0.223 NA
ATOM      8  C   UNL     1      17.893  66.055  11.928  0.00  0.00    +0.220 A 
ATOM      9  N   UNL     1      19.185  65.687  12.274  0.00  0.00    -0.283 N 
ATOM     36  H   UNL     1      19.798  65.278  11.570  0.00  0.00    +0.155 HD
ATOM     37  N   UNL     1      17.502  65.869  10.650  0.00  0.00    -0.214 NA
BRANCH   4   3
ATOM      1  C   UNL     1      14.515  66.256   6.710  0.00  0.00    +0.020 A 
ATOM      2  C   UNL     1      14.768  66.529   8.106  0.00  0.00    +0.013 A 
ATOM      3  C   UNL     1      15.932  65.965   8.777  0.00  0.00    +0.019 A 
ATOM     38  C   UNL     1      16.829  65.122   8.000  0.00  0.00    +0.120 A 
ATOM     39  N   UNL     1      16.559  64.875   6.658  0.00  0.00    -0.263 NA
ATOM     40  C   UNL     1      15.441  65.411   6.002  0.00  0.00    +0.111 A 
ENDBRANCH   4   3
ENDBRANCH  10   9
BRANCH  12  13
ATOM     13  N   UNL     1      19.323  64.210  17.023  0.00  0.00    -0.281 N 
ATOM     14  C   UNL     1      19.892  62.991  17.352  0.00  0.00    +0.248 C 
ATOM     30  O   UNL     1      20.680  62.382  16.643  0.00  0.00    -0.270 OA
ATOM     31  H   UNL     1      18.542  64.512  17.606  0.00  0.00    +0.155 HD
BRANCH  14  15
ATOM     15  C   UNL     1      19.522  62.348  18.649  0.00  0.00    +0.037 A 
ATOM     16  C   UNL     1      18.142  61.940  18.929  0.00  0.00    +0.013 A 
ATOM     17  C   UNL     1      17.809  61.337  20.195  0.00  0.00    +0.005 A 
ATOM     18  C   UNL     1      18.859  61.137  21.191  0.00  0.00    -0.033 A 
ATOM     28  C   UNL     1      20.219  61.546  20.886  0.00  0.00    +0.005 A 
ATOM     29  C   UNL     1      20.550  62.138  19.646  0.00  0.00    +0.013 A 
BRANCH  18  19
ATOM     19  C   UNL     1      18.590  60.520  22.577  0.00  0.00    +0.119 C 
BRANCH  19  20
ATOM     20  N   UNL     1      17.175  60.178  22.910  0.00  0.00    -0.302 NA
ATOM     21  C   UNL     1      16.614  61.070  24.021  0.00  0.00    +0.066 C 
ATOM     22  C   UNL     1      15.126  60.713  24.341  0.00  0.00    -0.064 C 
ATOM     23  N   UNL     1      15.031  59.238  24.733  0.00  0.00    +0.379 N 
ATOM     24  C   UNL     1      13.643  58.913  25.090  0.00  0.00    -0.096 C 
ATOM     25  H   UNL     1      15.659  59.088  25.642  0.00  0.00    -0.082 HD
ATOM     26  C   UNL     1      15.589  58.343  23.635  0.00  0.00    -0.064 C 
ATOM     27  C   UNL     1      17.059  58.726  23.304  0.00  0.00    +0.066 C 
ENDBRANCH  19  20
ENDBRANCH  18  19
ENDBRANCH  14  15
ENDBRANCH  12  13
TORSDOF 6
ENDMDL
MODEL 2
REMARK VINA RESULT:      -7.3     15.803     19.789
REMARK  Name = C:\Users\Docking\Desktop\test protocol\1iep_ligandH.pdb
REMARK  8 active torsions:
REMARK  status: ('A' for Active; 'I' for Inactive)
REMARK    1  A    between atoms: _5  and  _11
REMARK    2  A    between atoms: _19  and  _21
REMARK    3  A    between atoms: _22  and  _66
REMARK    4  A    between atoms: _27  and  _30
REMARK    5  A    between atoms: _32  and  _33
REMARK    6  A    between atoms: _38  and  _43
REMARK    7  A    between atoms: _43  and  _46
REMARK    8  A    between atoms: _53  and  _55
REMARK                            x       y       z     vdW  Elec       q    Type
REMARK                         _______ _______ _______ _____ _____    ______ ____
ROOT
ATOM     10  C   UNL     1       0.474  60.995  10.250  0.00  0.00    +0.038 A 
ATOM     11  C   UNL     1       1.607  60.205   9.928  0.00  0.00    +0.047 A 
ATOM     12  C   UNL     1       2.944  60.779   9.906  0.00  0.00    +0.035 A 
ATOM     32  C   UNL     1       3.090  62.162  10.218  0.00  0.00    +0.024 A 
ATOM     33  C   UNL     1       1.949  62.980  10.546  0.00  0.00    +0.007 A 
ATOM     34  C   UNL     1       0.628  62.420  10.567  0.00  0.00    -0.029 A 
ATOM     35  C   UNL     1      -0.559  63.346  10.919  0.00  0.00    +0.045 C 
ENDROOT
BRANCH  10   9
ATOM      4  C   UNL     1      -3.029  58.536  12.421  0.00  0.00    +0.077 A 
ATOM      5  C   UNL     1      -2.276  58.420  13.636  0.00  0.00    +0.048 A 
ATOM      6  C   UNL     1      -0.988  59.001  13.659  0.00  0.00    +0.116 A 
ATOM      7  N   UNL     1      -0.500  59.647  12.544  0.00  0.00    -0.223 NA
ATOM      8  C   UNL     1      -1.253  59.740  11.387  0.00  0.00    +0.220 A 
ATOM      9  N   UNL     1      -0.785  60.392  10.256  0.00  0.00    -0.283 N 
ATOM     36  H   UNL     1      -1.368  60.432   9.420  0.00  0.00    +0.155 HD
ATOM     37  N   UNL     1      -2.485  59.192  11.340  0.00  0.00    -0.214 NA
BRANCH   4   3
ATOM      1  C   UNL     1      -6.595  57.776  11.003  0.00  0.00    +0.020 A 
ATOM      2  C   UNL     1      -5.273  58.345  11.129  0.00  0.00    +0.013 A 
ATOM      3  C   UNL     1      -4.407  57.977  12.243  0.00  0.00    +0.019 A 
ATOM     38  C   UNL     1      -4.912  57.023  13.218  0.00  0.00    +0.120 A 
ATOM     39  N   UNL     1      -6.190  56.493  13.071  0.00  0.00    -0.263 NA
ATOM     40  C   UNL     1      -7.033  56.840  12.005  0.00  0.00    +0.111 A 
ENDBRANCH   4   3
ENDBRANCH  10   9
BRANCH  12  13
ATOM     13  N   UNL     1       4.130  60.028   9.579  0.00  0.00    -0.281 N 
ATOM     14  C   UNL     1       5.012  60.240   8.532  0.00  0.00    +0.248 C 
ATOM     30  O   UNL     1       4.795  60.983   7.586  0.00  0.00    -0.270 OA
ATOM     31  H   UNL     1       4.347  59.244  10.195  0.00  0.00    +0.155 HD
BRANCH  14  15
ATOM     15  C   UNL     1       6.317  59.512   8.527  0.00  0.00    +0.037 A 
ATOM     16  C   UNL     1       6.416  58.128   8.998  0.00  0.00    +0.013 A 
ATOM     17  C   UNL     1       7.690  57.454   8.999  0.00  0.00    +0.005 A 
ATOM     18  C   UNL     1       8.876  58.164   8.524  0.00  0.00    -0.033 A 
ATOM     28  C   UNL     1       8.748  59.534   8.057  0.00  0.00    +0.005 A 
ATOM     29  C   UNL     1       7.501  60.198   8.056  0.00  0.00    +0.013 A 
BRANCH  18  19
ATOM     19  C   UNL     1      10.280  57.530   8.509  0.00  0.00    +0.119 C 
BRANCH  19  20
ATOM     20  N   UNL     1      10.753  56.947   7.218  0.00  0.00    -0.302 NA
ATOM     21  C   UNL     1      11.053  58.028   6.176  0.00  0.00    +0.066 C 
ATOM     22  C   UNL     1      11.568  57.401   4.839  0.00  0.00    -0.064 C 
ATOM     23  N   UNL     1      10.530  56.411   4.309  0.00  0.00    +0.379 N 
ATOM     24  C   UNL     1      10.985  55.864   3.023  0.00  0.00    -0.096 C 
ATOM     25  H   UNL     1       9.588  56.978   4.122  0.00  0.00    -0.082 HD
ATOM     26  C   UNL     1      10.223  55.335   5.341  0.00  0.00    -0.064 C 
ATOM     27  C   UNL     1       9.740  55.969   6.675  0.00  0.00    +0.066 C 
ENDBRANCH  19  20
ENDBRANCH  18  19
ENDBRANCH  14  15
ENDBRANCH  12  13
TORSDOF 6
ENDMDL
MODEL 3
REMARK VINA RESULT:      -7.2     25.633     29.291
REMARK  Name = C:\Users\Docking\Desktop\test protocol\1iep_ligandH.pdb
REMARK  8 active torsions:
REMARK  status: ('A' for Active; 'I' for Inactive)
REMARK    1  A    between atoms: _5  and  _11
REMARK    2  A    between atoms: _19  and  _21
REMARK    3  A    between atoms: _22  and  _66
REMARK    4  A    between atoms: _27  and  _30
REMARK    5  A    between atoms: _32  and  _33
REMARK    6  A    between atoms: _38  and  _43
REMARK    7  A    between atoms: _43  and  _46
REMARK    8  A    between atoms: _53  and  _55
REMARK                            x       y       z     vdW  Elec       q    Type
REMARK                         _______ _______ _______ _____ _____    ______ ____
ROOT
ATOM     10  C   UNL     1       8.028  84.344  25.176  0.00  0.00    +0.038 A 
ATOM     11  C   UNL     1       6.711  84.656  24.751  0.00  0.00    +0.047 A 
ATOM     12  C   UNL     1       6.126  84.016  23.583  0.00  0.00    +0.035 A 
ATOM     32  C   UNL     1       6.910  83.060  22.873  0.00  0.00    +0.024 A 
ATOM     33  C   UNL     1       8.251  82.732  23.291  0.00  0.00    +0.007 A 
ATOM     34  C   UNL     1       8.834  83.362  24.441  0.00  0.00    -0.029 A 
ATOM     35  C   UNL     1      10.277  82.977  24.839  0.00  0.00    +0.045 C 
ENDROOT
BRANCH  10   9
ATOM      4  C   UNL     1       8.710  84.676  29.916  0.00  0.00    +0.077 A 
ATOM      5  C   UNL     1       7.962  83.478  30.167  0.00  0.00    +0.048 A 
ATOM      6  C   UNL     1       7.412  82.810  29.050  0.00  0.00    +0.116 A 
ATOM      7  N   UNL     1       7.603  83.312  27.781  0.00  0.00    -0.223 NA
ATOM      8  C   UNL     1       8.328  84.471  27.573  0.00  0.00    +0.220 A 
ATOM      9  N   UNL     1       8.539  84.989  26.305  0.00  0.00    -0.283 N 
ATOM     36  H   UNL     1       9.073  85.850  26.194  0.00  0.00    +0.155 HD
ATOM     37  N   UNL     1       8.862  85.128  28.624  0.00  0.00    -0.214 NA
BRANCH   4   3
ATOM      1  C   UNL     1      10.880  87.338  31.788  0.00  0.00    +0.020 A 
ATOM      2  C   UNL     1      10.285  86.580  30.712  0.00  0.00    +0.013 A 
ATOM      3  C   UNL     1       9.356  85.492  30.992  0.00  0.00    +0.019 A 
ATOM     38  C   UNL     1       9.048  85.195  32.383  0.00  0.00    +0.120 A 
ATOM     39  N   UNL     1       9.639  85.941  33.398  0.00  0.00    -0.263 NA
ATOM     40  C   UNL     1      10.535  86.989  33.141  0.00  0.00    +0.111 A 
ENDBRANCH   4   3
ENDBRANCH  10   9
BRANCH  12  13
ATOM     13  N   UNL     1       4.798  84.298  23.098  0.00  0.00    -0.281 N 
ATOM     14  C   UNL     1       3.621  84.359  23.827  0.00  0.00    +0.248 C 
ATOM     30  O   UNL     1       3.500  83.969  24.978  0.00  0.00    -0.270 OA
ATOM     31  H   UNL     1       4.715  84.473  22.097  0.00  0.00    +0.155 HD
BRANCH  14  15
ATOM     15  C   UNL     1       2.399  84.923  23.178  0.00  0.00    +0.037 A 
ATOM     16  C   UNL     1       2.079  84.632  21.778  0.00  0.00    +0.013 A 
ATOM     17  C   UNL     1       0.902  85.203  21.171  0.00  0.00    +0.005 A 
ATOM     18  C   UNL     1       0.036  86.071  21.966  0.00  0.00    -0.033 A 
ATOM     28  C   UNL     1       0.375  86.339  23.354  0.00  0.00    +0.005 A 
ATOM     29  C   UNL     1       1.527  85.782  23.951  0.00  0.00    +0.013 A 
BRANCH  18  19
ATOM     19  C   UNL     1      -1.228  86.740  21.394  0.00  0.00    +0.119 C 
BRANCH  19  20
ATOM     20  N   UNL     1      -1.316  86.881  19.910  0.00  0.00    -0.302 NA
ATOM     21  C   UNL     1      -0.619  88.150  19.412  0.00  0.00    +0.066 C 
ATOM     22  C   UNL     1      -0.700  88.271  17.855  0.00  0.00    -0.064 C 
ATOM     23  N   UNL     1      -2.167  88.252  17.422  0.00  0.00    +0.379 N 
ATOM     24  C   UNL     1      -2.250  88.424  15.964  0.00  0.00    -0.096 C 
ATOM     25  H   UNL     1      -2.670  89.128  17.894  0.00  0.00    -0.082 HD
ATOM     26  C   UNL     1      -2.869  86.995  17.915  0.00  0.00    -0.064 C 
ATOM     27  C   UNL     1      -2.756  86.870  19.460  0.00  0.00    +0.066 C 
ENDBRANCH  19  20
ENDBRANCH  18  19
ENDBRANCH  14  15
ENDBRANCH  12  13
TORSDOF 6
ENDMDL
