MODEL 1
REMARK VINA RESULT:      -7.1      0.000      0.000
REMARK  Name = C:\Users\Docking\Desktop\test protocol\1iep_ligandH.pdb
REMARK  8 active torsions:
REMARK  status: ('A' for Active; 'I' for Inactive)
REMARK    1  A    between atoms: _5  and  _11
REMARK    2  A    between atoms: _19  and  _21
REMARK    3  A    between atoms: _22  and  _66
REMARK    4  A    between atoms: _27  and  _30
REMARK    5  A    between atoms: _32  and  _33
REMARK    6  A    between atoms: _38  and  _43
REMARK    7  A    between atoms: _43  and  _46
REMARK    8  A    between atoms: _53  and  _55
REMARK                            x       y       z     vdW  Elec       q    Type
REMARK                         _______ _______ _______ _____ _____    ______ ____
ROOT
ATOM     10  C   UNL     1      97.215 106.712 127.120  0.00  0.00    +0.038 A 
ATOM     11  C   UNL     1      98.261 107.631 127.391  0.00  0.00    +0.047 A 
ATOM     12  C   UNL     1      99.181 108.053 126.347  0.00  0.00    +0.035 A 
ATOM     32  C   UNL     1      99.005 107.522 125.036  0.00  0.00    +0.024 A 
ATOM     33  C   UNL     1      97.948 106.586 124.743  0.00  0.00    +0.007 A 
ATOM     34  C   UNL     1      97.039 106.164 125.769  0.00  0.00    -0.029 A 
ATOM     35  C   UNL     1      95.928 105.154 125.400  0.00  0.00    +0.045 C 
ENDROOT
BRANCH  10   9
ATOM      4  C   UNL     1      93.169 107.208 129.654  0.00  0.00    +0.077 A 
ATOM      5  C   UNL     1      92.734 108.316 128.854  0.00  0.00    +0.048 A 
ATOM      6  C   UNL     1      93.584 108.733 127.805  0.00  0.00    +0.116 A 
ATOM      7  N   UNL     1      94.777 108.081 127.581  0.00  0.00    -0.223 NA
ATOM      8  C   UNL     1      95.168 107.016 128.372  0.00  0.00    +0.220 A 
ATOM      9  N   UNL     1      96.360 106.342 128.160  0.00  0.00    -0.283 N 
ATOM     36  H   UNL     1      96.616 105.566 128.770  0.00  0.00    +0.155 HD
ATOM     37  N   UNL     1      94.375 106.601 129.381  0.00  0.00    -0.214 NA
BRANCH   4   3
ATOM      1  C   UNL     1      90.909 106.897 132.831  0.00  0.00    +0.020 A 
ATOM      2  C   UNL     1      91.657 107.487 131.745  0.00  0.00    +0.013 A 
ATOM      3  C   UNL     1      92.380 106.649 130.797  0.00  0.00    +0.019 A 
ATOM     38  C   UNL     1      92.325 105.206 130.977  0.00  0.00    +0.120 A 
ATOM     39  N   UNL     1      91.599 104.666 132.034  0.00  0.00    -0.263 NA
ATOM     40  C   UNL     1      90.900 105.463 132.953  0.00  0.00    +0.111 A 
ENDBRANCH   4   3
ENDBRANCH  10   9
BRANCH  12  13
ATOM     13  N   UNL     1     100.267 108.977 126.565  0.00  0.00    -0.281 N 
ATOM     14  C   UNL     1     100.308 110.329 126.266  0.00  0.00    +0.248 C 
ATOM     30  O   UNL     1      99.489 110.907 125.567  0.00  0.00    -0.270 OA
ATOM     31  H   UNL     1     101.108 108.586 126.991  0.00  0.00    +0.155 HD
BRANCH  14  15
ATOM     15  C   UNL     1     101.427 111.156 126.812  0.00  0.00    +0.037 A 
ATOM     16  C   UNL     1     102.510 111.633 125.948  0.00  0.00    +0.013 A 
ATOM     17  C   UNL     1     103.586 112.415 126.503  0.00  0.00    +0.005 A 
ATOM     18  C   UNL     1     103.584 112.724 127.931  0.00  0.00    -0.033 A 
ATOM     28  C   UNL     1     102.495 112.242 128.764  0.00  0.00    +0.005 A 
ATOM     29  C   UNL     1     101.439 111.475 128.223  0.00  0.00    +0.013 A 
BRANCH  18  19
ATOM     19  C   UNL     1     104.703 113.533 128.613  0.00  0.00    +0.119 C 
BRANCH  19  20
ATOM     20  N   UNL     1     105.885 112.774 129.121  0.00  0.00    -0.302 NA
ATOM     21  C   UNL     1     106.229 113.146 130.566  0.00  0.00    +0.066 C 
ATOM     22  C   UNL     1     107.453 112.326 131.088  0.00  0.00    -0.064 C 
ATOM     23  N   UNL     1     108.652 112.561 130.168  0.00  0.00    +0.379 N 
ATOM     24  C   UNL     1     109.820 111.837 130.689  0.00  0.00    -0.096 C 
ATOM     25  H   UNL     1     108.889 113.650 130.193  0.00  0.00    -0.082 HD
ATOM     26  C   UNL     1     108.317 112.195 128.728  0.00  0.00    -0.064 C 
ATOM     27  C   UNL     1     107.081 112.995 128.229  0.00  0.00    +0.066 C 
ENDBRANCH  19  20
ENDBRANCH  18  19
ENDBRANCH  14  15
ENDBRANCH  12  13
TORSDOF 6
ENDMDL
MODEL 2
REMARK VINA RESULT:      -7.1     38.465     42.949
REMARK  Name = C:\Users\Docking\Desktop\test protocol\1iep_ligandH.pdb
REMARK  8 active torsions:
REMARK  status: ('A' for Active; 'I' for Inactive)
REMARK    1  A    between atoms: _5  and  _11
REMARK    2  A    between atoms: _19  and  _21
REMARK    3  A    between atoms: _22  and  _66
REMARK    4  A    between atoms: _27  and  _30
REMARK    5  A    between atoms: _32  and  _33
REMARK    6  A    between atoms: _38  and  _43
REMARK    7  A    between atoms: _43  and  _46
REMARK    8  A    between atoms: _53  and  _55
REMARK                            x       y       z     vdW  Elec       q    Type
REMARK                         _______ _______ _______ _____ _____    ______ ____
ROOT
ATOM     10  C   UNL     1      85.648  79.257 105.971  0.00  0.00    +0.038 A 
ATOM     11  C   UNL     1      84.594  79.815 105.203  0.00  0.00    +0.047 A 
ATOM     12  C   UNL     1      84.097  81.156 105.469  0.00  0.00    +0.035 A 
ATOM     32  C   UNL     1      84.699  81.902 106.524  0.00  0.00    +0.024 A 
ATOM     33  C   UNL     1      85.771  81.350 107.315  0.00  0.00    +0.007 A 
ATOM     34  C   UNL     1      86.263  80.027 107.059  0.00  0.00    -0.029 A 
ATOM     35  C   UNL     1      87.409  79.483 107.943  0.00  0.00    +0.045 C 
ENDROOT
BRANCH  10   9
ATOM      4  C   UNL     1      85.642  74.512 106.695  0.00  0.00    +0.077 A 
ATOM      5  C   UNL     1      84.708  74.619 107.779  0.00  0.00    +0.048 A 
ATOM      6  C   UNL     1      84.260  75.914 108.123  0.00  0.00    +0.116 A 
ATOM      7  N   UNL     1      84.717  77.013 107.428  0.00  0.00    -0.223 NA
ATOM      8  C   UNL     1      85.618  76.875 106.389  0.00  0.00    +0.220 A 
ATOM      9  N   UNL     1      86.086  77.965 105.671  0.00  0.00    -0.283 N 
ATOM     36  H   UNL     1      86.756  77.822 104.917  0.00  0.00    +0.155 HD
ATOM     37  N   UNL     1      86.063  75.649 106.042  0.00  0.00    -0.214 NA
BRANCH   4   3
ATOM      1  C   UNL     1      86.004  70.766 105.630  0.00  0.00    +0.020 A 
ATOM      2  C   UNL     1      85.411  71.995 106.104  0.00  0.00    +0.013 A 
ATOM      3  C   UNL     1      86.206  73.213 106.211  0.00  0.00    +0.019 A 
ATOM     38  C   UNL     1      87.608  73.152 105.827  0.00  0.00    +0.120 A 
ATOM     39  N   UNL     1      88.152  71.954 105.375  0.00  0.00    -0.263 NA
ATOM     40  C   UNL     1      87.398  70.775 105.269  0.00  0.00    +0.111 A 
ENDBRANCH   4   3
ENDBRANCH  10   9
BRANCH  12  13
ATOM     13  N   UNL     1      83.025  81.772 104.728  0.00  0.00    -0.281 N 
ATOM     14  C   UNL     1      83.121  82.647 103.658  0.00  0.00    +0.248 C 
ATOM     30  O   UNL     1      84.153  83.202 103.310  0.00  0.00    -0.270 OA
ATOM     31  H   UNL     1      82.080  81.535 105.029  0.00  0.00    +0.155 HD
BRANCH  14  15
ATOM     15  C   UNL     1      81.891  82.961 102.869  0.00  0.00    +0.037 A 
ATOM     16  C   UNL     1      81.956  83.209 101.427  0.00  0.00    +0.013 A 
ATOM     17  C   UNL     1      80.757  83.527 100.693  0.00  0.00    +0.005 A 
ATOM     18  C   UNL     1      79.482  83.598 101.401  0.00  0.00    -0.033 A 
ATOM     28  C   UNL     1      79.445  83.343 102.832  0.00  0.00    +0.005 A 
ATOM     29  C   UNL     1      80.619  83.032 103.555  0.00  0.00    +0.013 A 
BRANCH  18  19
ATOM     19  C   UNL     1      78.155  83.952 100.703  0.00  0.00    +0.119 C 
BRANCH  19  20
ATOM     20  N   UNL     1      78.209  84.235  99.237  0.00  0.00    -0.302 NA
ATOM     21  C   UNL     1      78.192  85.738  98.942  0.00  0.00    +0.066 C 
ATOM     22  C   UNL     1      78.271  86.017  97.406  0.00  0.00    -0.064 C 
ATOM     23  N   UNL     1      77.109  85.313  96.702  0.00  0.00    +0.379 N 
ATOM     24  C   UNL     1      77.148  85.621  95.265  0.00  0.00    -0.096 C 
ATOM     25  H   UNL     1      76.162  85.732  97.113  0.00  0.00    -0.082 HD
ATOM     26  C   UNL     1      77.118  83.819  96.992  0.00  0.00    -0.064 C 
ATOM     27  C   UNL     1      77.068  83.553  98.523  0.00  0.00    +0.066 C 
ENDBRANCH  19  20
ENDBRANCH  18  19
ENDBRANCH  14  15
ENDBRANCH  12  13
TORSDOF 6
ENDMDL
MODEL 3
REMARK VINA RESULT:      -7.1      9.614     16.761
REMARK  Name = C:\Users\Docking\Desktop\test protocol\1iep_ligandH.pdb
REMARK  8 active torsions:
REMARK  status: ('A' for Active; 'I' for Inactive)
REMARK    1  A    between atoms: _5  and  _11
REMARK    2  A    between atoms: _19  and  _21
REMARK    3  A    between atoms: _22  and  _66
REMARK    4  A    between atoms: _27  and  _30
REMARK    5  A    between atoms: _32  and  _33
REMARK    6  A    between atoms: _38  and  _43
REMARK    7  A    between atoms: _43  and  _46
REMARK    8  A    between atoms: _53  and  _55
REMARK                            x       y       z     vdW  Elec       q    Type
REMARK                         _______ _______ _______ _____ _____    ______ ____
ROOT
ATOM     10  C   UNL     1     113.621 111.435 129.920  0.00  0.00    +0.038 A 
ATOM     11  C   UNL     1     112.301 111.344 130.429  0.00  0.00    +0.047 A 
ATOM     12  C   UNL     1     111.487 112.534 130.626  0.00  0.00    +0.035 A 
ATOM     32  C   UNL     1     112.051 113.800 130.293  0.00  0.00    +0.024 A 
ATOM     33  C   UNL     1     113.392 113.911 129.776  0.00  0.00    +0.007 A 
ATOM     34  C   UNL     1     114.200 112.741 129.581  0.00  0.00    -0.029 A 
ATOM     35  C   UNL     1     115.633 112.919 129.030  0.00  0.00    +0.045 C 
ENDROOT
BRANCH  10   9
ATOM      4  C   UNL     1     115.740 108.130 127.158  0.00  0.00    +0.077 A 
ATOM      5  C   UNL     1     115.323 108.785 125.952  0.00  0.00    +0.048 A 
ATOM      6  C   UNL     1     114.558 109.966 126.086  0.00  0.00    +0.116 A 
ATOM      7  N   UNL     1     114.241 110.447 127.338  0.00  0.00    -0.223 NA
ATOM      8  C   UNL     1     114.658 109.790 128.481  0.00  0.00    +0.220 A 
ATOM      9  N   UNL     1     114.357 110.260 129.750  0.00  0.00    -0.283 N 
ATOM     36  H   UNL     1     114.677 109.742 130.568  0.00  0.00    +0.155 HD
ATOM     37  N   UNL     1     115.388 108.660 128.380  0.00  0.00    -0.214 NA
BRANCH   4   3
ATOM      1  C   UNL     1     117.847 105.069 128.379  0.00  0.00    +0.020 A 
ATOM      2  C   UNL     1     117.064 106.283 128.412  0.00  0.00    +0.013 A 
ATOM      3  C   UNL     1     116.556 106.875 127.181  0.00  0.00    +0.019 A 
ATOM     38  C   UNL     1     116.860 106.208 125.924  0.00  0.00    +0.120 A 
ATOM     39  N   UNL     1     117.617 105.041 125.923  0.00  0.00    -0.263 NA
ATOM     40  C   UNL     1     118.113 104.463 127.101  0.00  0.00    +0.111 A 
ENDBRANCH   4   3
ENDBRANCH  10   9
BRANCH  12  13
ATOM     13  N   UNL     1     110.143 112.505 131.147  0.00  0.00    -0.281 N 
ATOM     14  C   UNL     1     108.999 112.033 130.525  0.00  0.00    +0.248 C 
ATOM     30  O   UNL     1     108.922 111.759 129.337  0.00  0.00    -0.270 OA
ATOM     31  H   UNL     1     110.020 112.877 132.089  0.00  0.00    +0.155 HD
BRANCH  14  15
ATOM     15  C   UNL     1     107.757 111.854 131.337  0.00  0.00    +0.037 A 
ATOM     16  C   UNL     1     107.725 110.946 132.486  0.00  0.00    +0.013 A 
ATOM     17  C   UNL     1     106.509 110.779 133.242  0.00  0.00    +0.005 A 
ATOM     18  C   UNL     1     105.315 111.523 132.851  0.00  0.00    -0.033 A 
ATOM     28  C   UNL     1     105.376 112.422 131.710  0.00  0.00    +0.005 A 
ATOM     29  C   UNL     1     106.565 112.587 130.966  0.00  0.00    +0.013 A 
BRANCH  18  19
ATOM     19  C   UNL     1     103.968 111.391 133.587  0.00  0.00    +0.119 C 
BRANCH  19  20
ATOM     20  N   UNL     1     103.965 111.645 135.059  0.00  0.00    -0.302 NA
ATOM     21  C   UNL     1     103.954 110.344 135.866  0.00  0.00    +0.066 C 
ATOM     22  C   UNL     1     103.974 110.628 137.404  0.00  0.00    -0.064 C 
ATOM     23  N   UNL     1     102.777 111.505 137.773  0.00  0.00    +0.379 N 
ATOM     24  C   UNL     1     102.760 111.726 139.227  0.00  0.00    -0.096 C 
ATOM     25  H   UNL     1     101.851 110.944 137.506  0.00  0.00    -0.082 HD
ATOM     26  C   UNL     1     102.779 112.800 136.973  0.00  0.00    -0.064 C 
ATOM     27  C   UNL     1     102.789 112.506 135.447  0.00  0.00    +0.066 C 
ENDBRANCH  19  20
ENDBRANCH  18  19
ENDBRANCH  14  15
ENDBRANCH  12  13
TORSDOF 6
ENDMDL
