MODEL 1
REMARK VINA RESULT:      -8.2      0.000      0.000
REMARK  Name = C:\Users\Docking\Desktop\test protocol\1iep_ligandH.pdb
REMARK  8 active torsions:
REMARK  status: ('A' for Active; 'I' for Inactive)
REMARK    1  A    between atoms: _5  and  _11
REMARK    2  A    between atoms: _19  and  _21
REMARK    3  A    between atoms: _22  and  _66
REMARK    4  A    between atoms: _27  and  _30
REMARK    5  A    between atoms: _32  and  _33
REMARK    6  A    between atoms: _38  and  _43
REMARK    7  A    between atoms: _43  and  _46
REMARK    8  A    between atoms: _53  and  _55
REMARK                            x       y       z     vdW  Elec       q    Type
REMARK                         _______ _______ _______ _____ _____    ______ ____
ROOT
ATOM     10  C   UNL     1      23.575  -5.125  10.076  0.00  0.00    +0.038 A 
ATOM     11  C   UNL     1      22.767  -6.291  10.094  0.00  0.00    +0.047 A 
ATOM     12  C   UNL     1      21.707  -6.487   9.118  0.00  0.00    +0.035 A 
ATOM     32  C   UNL     1      21.498  -5.476   8.135  0.00  0.00    +0.024 A 
ATOM     33  C   UNL     1      22.309  -4.285   8.102  0.00  0.00    +0.007 A 
ATOM     34  C   UNL     1      23.355  -4.085   9.064  0.00  0.00    -0.029 A 
ATOM     35  C   UNL     1      24.189  -2.785   8.986  0.00  0.00    +0.045 C 
ENDROOT
BRANCH  10   9
ATOM      4  C   UNL     1      28.031  -5.899  11.681  0.00  0.00    +0.077 A 
ATOM      5  C   UNL     1      28.381  -6.663  10.518  0.00  0.00    +0.048 A 
ATOM      6  C   UNL     1      27.383  -6.839   9.533  0.00  0.00    +0.116 A 
ATOM      7  N   UNL     1      26.132  -6.288   9.709  0.00  0.00    -0.223 NA
ATOM      8  C   UNL     1      25.828  -5.558  10.843  0.00  0.00    +0.220 A 
ATOM      9  N   UNL     1      24.579  -4.989  11.037  0.00  0.00    -0.283 N 
ATOM     36  H   UNL     1      24.391  -4.464  11.891  0.00  0.00    +0.155 HD
ATOM     37  N   UNL     1      26.763  -5.377  11.799  0.00  0.00    -0.214 NA
BRANCH   4   3
ATOM      1  C   UNL     1      30.923  -6.231  14.294  0.00  0.00    +0.020 A 
ATOM      2  C   UNL     1      30.035  -6.546  13.199  0.00  0.00    +0.013 A 
ATOM      3  C   UNL     1      28.978  -5.622  12.807  0.00  0.00    +0.019 A 
ATOM     38  C   UNL     1      28.847  -4.377  13.549  0.00  0.00    +0.120 A 
ATOM     39  N   UNL     1      29.716  -4.101  14.600  0.00  0.00    -0.263 NA
ATOM     40  C   UNL     1      30.735  -4.984  14.987  0.00  0.00    +0.111 A 
ENDBRANCH   4   3
ENDBRANCH  10   9
BRANCH  12  13
ATOM     13  N   UNL     1      20.849  -7.646   9.092  0.00  0.00    -0.281 N 
ATOM     14  C   UNL     1      21.120  -8.894   8.554  0.00  0.00    +0.248 C 
ATOM     30  O   UNL     1      22.066  -9.140   7.820  0.00  0.00    -0.270 OA
ATOM     31  H   UNL     1      19.932  -7.533   9.522  0.00  0.00    +0.155 HD
BRANCH  14  15
ATOM     15  C   UNL     1      20.200 -10.029   8.865  0.00  0.00    +0.037 A 
ATOM     16  C   UNL     1      18.745  -9.855   8.846  0.00  0.00    +0.013 A 
ATOM     17  C   UNL     1      17.880 -10.963   9.167  0.00  0.00    +0.005 A 
ATOM     18  C   UNL     1      18.468 -12.256   9.507  0.00  0.00    -0.033 A 
ATOM     28  C   UNL     1      19.914 -12.402   9.513  0.00  0.00    +0.005 A 
ATOM     29  C   UNL     1      20.765 -11.319   9.201  0.00  0.00    +0.013 A 
BRANCH  18  19
ATOM     19  C   UNL     1      17.622 -13.487   9.883  0.00  0.00    +0.119 C 
BRANCH  19  20
ATOM     20  N   UNL     1      16.140 -13.309   9.930  0.00  0.00    -0.302 NA
ATOM     21  C   UNL     1      15.615 -13.237  11.367  0.00  0.00    +0.066 C 
ATOM     22  C   UNL     1      14.066 -13.029  11.397  0.00  0.00    -0.064 C 
ATOM     23  N   UNL     1      13.386 -14.164  10.628  0.00  0.00    +0.379 N 
ATOM     24  C   UNL     1      11.927 -14.002  10.704  0.00  0.00    -0.096 C 
ATOM     25  H   UNL     1      13.648 -15.120  11.137  0.00  0.00    -0.082 HD
ATOM     26  C   UNL     1      13.904 -14.244   9.199  0.00  0.00    -0.064 C 
ATOM     27  C   UNL     1      15.448 -14.421   9.180  0.00  0.00    +0.066 C 
ENDBRANCH  19  20
ENDBRANCH  18  19
ENDBRANCH  14  15
ENDBRANCH  12  13
TORSDOF 6
ENDMDL
MODEL 2
REMARK VINA RESULT:      -8.2     16.886     21.661
REMARK  Name = C:\Users\Docking\Desktop\test protocol\1iep_ligandH.pdb
REMARK  8 active torsions:
REMARK  status: ('A' for Active; 'I' for Inactive)
REMARK    1  A    between atoms: _5  and  _11
REMARK    2  A    between atoms: _19  and  _21
REMARK    3  A    between atoms: _22  and  _66
REMARK    4  A    between atoms: _27  and  _30
REMARK    5  A    between atoms: _32  and  _33
REMARK    6  A    between atoms: _38  and  _43
REMARK    7  A    between atoms: _43  and  _46
REMARK    8  A    between atoms: _53  and  _55
REMARK                            x       y       z     vdW  Elec       q    Type
REMARK                         _______ _______ _______ _____ _____    ______ ____
ROOT
ATOM     10  C   UNL     1      32.997 -20.725  13.108  0.00  0.00    +0.038 A 
ATOM     11  C   UNL     1      34.161 -20.428  12.353  0.00  0.00    +0.047 A 
ATOM     12  C   UNL     1      35.210 -21.418  12.167  0.00  0.00    +0.035 A 
ATOM     32  C   UNL     1      35.040 -22.702  12.761  0.00  0.00    +0.024 A 
ATOM     33  C   UNL     1      33.865 -23.021  13.532  0.00  0.00    +0.007 A 
ATOM     34  C   UNL     1      32.827 -22.048  13.721  0.00  0.00    -0.029 A 
ATOM     35  C   UNL     1      31.592 -22.442  14.563  0.00  0.00    +0.045 C 
ENDROOT
BRANCH  10   9
ATOM      4  C   UNL     1      28.870 -18.631  11.837  0.00  0.00    +0.077 A 
ATOM      5  C   UNL     1      28.652 -19.570  10.774  0.00  0.00    +0.048 A 
ATOM      6  C   UNL     1      29.630 -20.572  10.583  0.00  0.00    +0.116 A 
ATOM      7  N   UNL     1      30.739 -20.622  11.400  0.00  0.00    -0.223 NA
ATOM      8  C   UNL     1      30.918 -19.700  12.415  0.00  0.00    +0.220 A 
ATOM      9  N   UNL     1      32.022 -19.737  13.254  0.00  0.00    -0.283 N 
ATOM     36  H   UNL     1      32.121 -19.034  13.987  0.00  0.00    +0.155 HD
ATOM     37  N   UNL     1      30.000 -18.733  12.617  0.00  0.00    -0.214 NA
BRANCH   4   3
ATOM      1  C   UNL     1      27.412 -15.201  13.022  0.00  0.00    +0.020 A 
ATOM      2  C   UNL     1      28.365 -16.244  12.723  0.00  0.00    +0.013 A 
ATOM      3  C   UNL     1      27.925 -17.517  12.166  0.00  0.00    +0.019 A 
ATOM     38  C   UNL     1      26.503 -17.704  11.923  0.00  0.00    +0.120 A 
ATOM     39  N   UNL     1      25.608 -16.682  12.223  0.00  0.00    -0.263 NA
ATOM     40  C   UNL     1      26.019 -15.453  12.760  0.00  0.00    +0.111 A 
ENDBRANCH   4   3
ENDBRANCH  10   9
BRANCH  12  13
ATOM     13  N   UNL     1      36.417 -21.171  11.418  0.00  0.00    -0.281 N 
ATOM     14  C   UNL     1      37.607 -20.629  11.875  0.00  0.00    +0.248 C 
ATOM     30  O   UNL     1      37.744 -20.074  12.955  0.00  0.00    -0.270 OA
ATOM     31  H   UNL     1      36.391 -21.427  10.431  0.00  0.00    +0.155 HD
BRANCH  14  15
ATOM     15  C   UNL     1      38.817 -20.702  11.000  0.00  0.00    +0.037 A 
ATOM     16  C   UNL     1      40.124 -21.085  11.541  0.00  0.00    +0.013 A 
ATOM     17  C   UNL     1      41.278 -21.130  10.678  0.00  0.00    +0.005 A 
ATOM     18  C   UNL     1      41.130 -20.793   9.265  0.00  0.00    -0.033 A 
ATOM     28  C   UNL     1      39.821 -20.421   8.754  0.00  0.00    +0.005 A 
ATOM     29  C   UNL     1      38.687 -20.374   9.596  0.00  0.00    +0.013 A 
BRANCH  18  19
ATOM     19  C   UNL     1      42.311 -20.794   8.276  0.00  0.00    +0.119 C 
BRANCH  19  20
ATOM     20  N   UNL     1      43.246 -21.956   8.330  0.00  0.00    -0.302 NA
ATOM     21  C   UNL     1      44.447 -21.772   7.398  0.00  0.00    +0.066 C 
ATOM     22  C   UNL     1      45.427 -22.986   7.484  0.00  0.00    -0.064 C 
ATOM     23  N   UNL     1      44.672 -24.273   7.145  0.00  0.00    +0.379 N 
ATOM     24  C   UNL     1      45.603 -25.410   7.169  0.00  0.00    -0.096 C 
ATOM     25  H   UNL     1      44.285 -24.174   6.105  0.00  0.00    -0.082 HD
ATOM     26  C   UNL     1      43.475 -24.463   8.066  0.00  0.00    -0.064 C 
ATOM     27  C   UNL     1      42.522 -23.237   7.995  0.00  0.00    +0.066 C 
ENDBRANCH  19  20
ENDBRANCH  18  19
ENDBRANCH  14  15
ENDBRANCH  12  13
TORSDOF 6
ENDMDL
MODEL 3
REMARK VINA RESULT:      -8.1     12.149     14.536
REMARK  Name = C:\Users\Docking\Desktop\test protocol\1iep_ligandH.pdb
REMARK  8 active torsions:
REMARK  status: ('A' for Active; 'I' for Inactive)
REMARK    1  A    between atoms: _5  and  _11
REMARK    2  A    between atoms: _19  and  _21
REMARK    3  A    between atoms: _22  and  _66
REMARK    4  A    between atoms: _27  and  _30
REMARK    5  A    between atoms: _32  and  _33
REMARK    6  A    between atoms: _38  and  _43
REMARK    7  A    between atoms: _43  and  _46
REMARK    8  A    between atoms: _53  and  _55
REMARK                            x       y       z     vdW  Elec       q    Type
REMARK                         _______ _______ _______ _____ _____    ______ ____
ROOT
ATOM     10  C   UNL     1      22.881 -14.650  19.395  0.00  0.00    +0.038 A 
ATOM     11  C   UNL     1      23.853 -15.045  18.441  0.00  0.00    +0.047 A 
ATOM     12  C   UNL     1      23.569 -15.003  17.015  0.00  0.00    +0.035 A 
ATOM     32  C   UNL     1      22.284 -14.550  16.596  0.00  0.00    +0.024 A 
ATOM     33  C   UNL     1      21.284 -14.145  17.552  0.00  0.00    +0.007 A 
ATOM     34  C   UNL     1      21.558 -14.187  18.960  0.00  0.00    -0.029 A 
ATOM     35  C   UNL     1      20.446 -13.747  19.941  0.00  0.00    +0.045 C 
ENDROOT
BRANCH  10   9
ATOM      4  C   UNL     1      26.037 -14.407  23.004  0.00  0.00    +0.077 A 
ATOM      5  C   UNL     1      27.132 -14.165  22.108  0.00  0.00    +0.048 A 
ATOM      6  C   UNL     1      26.841 -14.118  20.726  0.00  0.00    +0.116 A 
ATOM      7  N   UNL     1      25.549 -14.300  20.284  0.00  0.00    -0.223 NA
ATOM      8  C   UNL     1      24.517 -14.533  21.174  0.00  0.00    +0.220 A 
ATOM      9  N   UNL     1      23.208 -14.711  20.752  0.00  0.00    -0.283 N 
ATOM     36  H   UNL     1      22.476 -14.888  21.440  0.00  0.00    +0.155 HD
ATOM     37  N   UNL     1      24.768 -14.584  22.499  0.00  0.00    -0.214 NA
BRANCH   4   3
ATOM      1  C   UNL     1      27.564 -14.589  26.600  0.00  0.00    +0.020 A 
ATOM      2  C   UNL     1      27.478 -14.517  25.160  0.00  0.00    +0.013 A 
ATOM      3  C   UNL     1      26.184 -14.482  24.492  0.00  0.00    +0.019 A 
ATOM     38  C   UNL     1      24.985 -14.521  25.317  0.00  0.00    +0.120 A 
ATOM     39  N   UNL     1      25.099 -14.591  26.702  0.00  0.00    -0.263 NA
ATOM     40  C   UNL     1      26.340 -14.628  27.356  0.00  0.00    +0.111 A 
ENDBRANCH   4   3
ENDBRANCH  10   9
BRANCH  12  13
ATOM     13  N   UNL     1      24.513 -15.400  16.000  0.00  0.00    -0.281 N 
ATOM     14  C   UNL     1      25.889 -15.238  16.008  0.00  0.00    +0.248 C 
ATOM     30  O   UNL     1      26.498 -14.532  16.798  0.00  0.00    -0.270 OA
ATOM     31  H   UNL     1      24.119 -15.854  15.177  0.00  0.00    +0.155 HD
BRANCH  14  15
ATOM     15  C   UNL     1      26.705 -15.953  14.980  0.00  0.00    +0.037 A 
ATOM     16  C   UNL     1      27.871 -15.319  14.359  0.00  0.00    +0.013 A 
ATOM     17  C   UNL     1      28.631 -16.025  13.358  0.00  0.00    +0.005 A 
ATOM     18  C   UNL     1      28.227 -17.375  12.972  0.00  0.00    -0.033 A 
ATOM     28  C   UNL     1      27.070 -17.982  13.607  0.00  0.00    +0.005 A 
ATOM     29  C   UNL     1      26.322 -17.293  14.588  0.00  0.00    +0.013 A 
BRANCH  18  19
ATOM     19  C   UNL     1      28.967 -18.193  11.897  0.00  0.00    +0.119 C 
BRANCH  19  20
ATOM     20  N   UNL     1      30.328 -18.703  12.242  0.00  0.00    -0.302 NA
ATOM     21  C   UNL     1      31.315 -18.532  11.084  0.00  0.00    +0.066 C 
ATOM     22  C   UNL     1      32.739 -19.049  11.470  0.00  0.00    -0.064 C 
ATOM     23  N   UNL     1      32.649 -20.517  11.892  0.00  0.00    +0.379 N 
ATOM     24  C   UNL     1      33.994 -21.022  12.200  0.00  0.00    -0.096 C 
ATOM     25  H   UNL     1      32.260 -21.095  11.022  0.00  0.00    -0.082 HD
ATOM     26  C   UNL     1      31.667 -20.696  13.041  0.00  0.00    -0.064 C 
ATOM     27  C   UNL     1      30.262 -20.152  12.658  0.00  0.00    +0.066 C 
ENDBRANCH  19  20
ENDBRANCH  18  19
ENDBRANCH  14  15
ENDBRANCH  12  13
TORSDOF 6
ENDMDL
