MODEL 1
REMARK VINA RESULT:      -7.8      0.000      0.000
REMARK  Name = C:\Users\Docking\Desktop\test protocol\1iep_ligandH.pdb
REMARK  8 active torsions:
REMARK  status: ('A' for Active; 'I' for Inactive)
REMARK    1  A    between atoms: _5  and  _11
REMARK    2  A    between atoms: _19  and  _21
REMARK    3  A    between atoms: _22  and  _66
REMARK    4  A    between atoms: _27  and  _30
REMARK    5  A    between atoms: _32  and  _33
REMARK    6  A    between atoms: _38  and  _43
REMARK    7  A    between atoms: _43  and  _46
REMARK    8  A    between atoms: _53  and  _55
REMARK                            x       y       z     vdW  Elec       q    Type
REMARK                         _______ _______ _______ _____ _____    ______ ____
ROOT
ATOM     10  C   UNL     1      43.431   4.890  31.402  0.00  0.00    +0.038 A 
ATOM     11  C   UNL     1      43.614   3.575  30.904  0.00  0.00    +0.047 A 
ATOM     12  C   UNL     1      44.379   2.587  31.650  0.00  0.00    +0.035 A 
ATOM     32  C   UNL     1      44.941   2.973  32.901  0.00  0.00    +0.024 A 
ATOM     33  C   UNL     1      44.765   4.306  33.422  0.00  0.00    +0.007 A 
ATOM     34  C   UNL     1      44.014   5.285  32.689  0.00  0.00    -0.029 A 
ATOM     35  C   UNL     1      43.864   6.701  33.293  0.00  0.00    +0.045 C 
ENDROOT
BRANCH  10   9
ATOM      4  C   UNL     1      43.008   8.094  27.853  0.00  0.00    +0.077 A 
ATOM      5  C   UNL     1      44.392   7.969  27.496  0.00  0.00    +0.048 A 
ATOM      6  C   UNL     1      45.180   7.075  28.255  0.00  0.00    +0.116 A 
ATOM      7  N   UNL     1      44.616   6.363  29.291  0.00  0.00    -0.223 NA
ATOM      8  C   UNL     1      43.278   6.509  29.611  0.00  0.00    +0.220 A 
ATOM      9  N   UNL     1      42.688   5.798  30.644  0.00  0.00    -0.283 N 
ATOM     36  H   UNL     1      41.700   5.938  30.853  0.00  0.00    +0.155 HD
ATOM     37  N   UNL     1      42.505   7.358  28.902  0.00  0.00    -0.214 NA
BRANCH   4   3
ATOM      1  C   UNL     1      39.829   9.474  26.039  0.00  0.00    +0.020 A 
ATOM      2  C   UNL     1      40.720   8.564  26.721  0.00  0.00    +0.013 A 
ATOM      3  C   UNL     1      42.047   8.996  27.144  0.00  0.00    +0.019 A 
ATOM     38  C   UNL     1      42.444  10.366  26.860  0.00  0.00    +0.120 A 
ATOM     39  N   UNL     1      41.565  11.220  26.200  0.00  0.00    -0.263 NA
ATOM     40  C   UNL     1      40.287  10.815  25.787  0.00  0.00    +0.111 A 
ENDBRANCH   4   3
ENDBRANCH  10   9
BRANCH  12  13
ATOM     13  N   UNL     1      44.605   1.239  31.191  0.00  0.00    -0.281 N 
ATOM     14  C   UNL     1      45.396   0.821  30.133  0.00  0.00    +0.248 C 
ATOM     30  O   UNL     1      45.864   1.565  29.283  0.00  0.00    -0.270 OA
ATOM     31  H   UNL     1      44.124   0.504  31.708  0.00  0.00    +0.155 HD
BRANCH  14  15
ATOM     15  C   UNL     1      45.701  -0.635  29.990  0.00  0.00    +0.037 A 
ATOM     16  C   UNL     1      45.644  -1.299  28.686  0.00  0.00    +0.013 A 
ATOM     17  C   UNL     1      45.925  -2.709  28.579  0.00  0.00    +0.005 A 
ATOM     18  C   UNL     1      46.268  -3.464  29.781  0.00  0.00    -0.033 A 
ATOM     28  C   UNL     1      46.322  -2.779  31.062  0.00  0.00    +0.005 A 
ATOM     29  C   UNL     1      46.045  -1.398  31.171  0.00  0.00    +0.013 A 
BRANCH  18  19
ATOM     19  C   UNL     1      46.562  -4.976  29.764  0.00  0.00    +0.119 C 
BRANCH  19  20
ATOM     20  N   UNL     1      45.698  -5.850  30.612  0.00  0.00    -0.302 NA
ATOM     21  C   UNL     1      46.177  -7.305  30.611  0.00  0.00    +0.066 C 
ATOM     22  C   UNL     1      45.275  -8.201  31.520  0.00  0.00    -0.064 C 
ATOM     23  N   UNL     1      43.824  -8.109  31.045  0.00  0.00    +0.379 N 
ATOM     24  C   UNL     1      42.983  -8.996  31.862  0.00  0.00    -0.096 C 
ATOM     25  H   UNL     1      43.788  -8.481  29.995  0.00  0.00    -0.082 HD
ATOM     26  C   UNL     1      43.341  -6.665  31.040  0.00  0.00    -0.064 C 
ATOM     27  C   UNL     1      44.261  -5.777  30.157  0.00  0.00    +0.066 C 
ENDBRANCH  19  20
ENDBRANCH  18  19
ENDBRANCH  14  15
ENDBRANCH  12  13
TORSDOF 6
ENDMDL
MODEL 2
REMARK VINA RESULT:      -7.7     26.394     30.248
REMARK  Name = C:\Users\Docking\Desktop\test protocol\1iep_ligandH.pdb
REMARK  8 active torsions:
REMARK  status: ('A' for Active; 'I' for Inactive)
REMARK    1  A    between atoms: _5  and  _11
REMARK    2  A    between atoms: _19  and  _21
REMARK    3  A    between atoms: _22  and  _66
REMARK    4  A    between atoms: _27  and  _30
REMARK    5  A    between atoms: _32  and  _33
REMARK    6  A    between atoms: _38  and  _43
REMARK    7  A    between atoms: _43  and  _46
REMARK    8  A    between atoms: _53  and  _55
REMARK                            x       y       z     vdW  Elec       q    Type
REMARK                         _______ _______ _______ _____ _____    ______ ____
ROOT
ATOM     10  C   UNL     1      16.637  18.196  28.376  0.00  0.00    +0.038 A 
ATOM     11  C   UNL     1      16.235  16.846  28.214  0.00  0.00    +0.047 A 
ATOM     12  C   UNL     1      15.643  16.100  29.314  0.00  0.00    +0.035 A 
ATOM     32  C   UNL     1      15.472  16.762  30.564  0.00  0.00    +0.024 A 
ATOM     33  C   UNL     1      15.876  18.134  30.746  0.00  0.00    +0.007 A 
ATOM     34  C   UNL     1      16.463  18.874  29.666  0.00  0.00    -0.029 A 
ATOM     35  C   UNL     1      16.883  20.340  29.920  0.00  0.00    +0.045 C 
ENDROOT
BRANCH  10   9
ATOM      4  C   UNL     1      20.363  19.329  25.570  0.00  0.00    +0.077 A 
ATOM      5  C   UNL     1      21.270  18.544  26.357  0.00  0.00    +0.048 A 
ATOM      6  C   UNL     1      20.739  17.870  27.480  0.00  0.00    +0.116 A 
ATOM      7  N   UNL     1      19.399  17.980  27.783  0.00  0.00    -0.223 NA
ATOM      8  C   UNL     1      18.552  18.746  27.004  0.00  0.00    +0.220 A 
ATOM      9  N   UNL     1      17.200  18.864  27.286  0.00  0.00    -0.283 N 
ATOM     36  H   UNL     1      16.610  19.446  26.691  0.00  0.00    +0.155 HD
ATOM     37  N   UNL     1      19.035  19.401  25.928  0.00  0.00    -0.214 NA
BRANCH   4   3
ATOM      1  C   UNL     1      20.267  21.521  22.332  0.00  0.00    +0.020 A 
ATOM      2  C   UNL     1      19.819  20.794  23.497  0.00  0.00    +0.013 A 
ATOM      3  C   UNL     1      20.772  20.096  24.352  0.00  0.00    +0.019 A 
ATOM     38  C   UNL     1      22.182  20.156  23.997  0.00  0.00    +0.120 A 
ATOM     39  N   UNL     1      22.584  20.863  22.868  0.00  0.00    -0.263 NA
ATOM     40  C   UNL     1      21.676  21.537  22.037  0.00  0.00    +0.111 A 
ENDBRANCH   4   3
ENDBRANCH  10   9
BRANCH  12  13
ATOM     13  N   UNL     1      15.223  14.724  29.211  0.00  0.00    -0.281 N 
ATOM     14  C   UNL     1      14.226  14.196  28.408  0.00  0.00    +0.248 C 
ATOM     30  O   UNL     1      13.394  14.863  27.809  0.00  0.00    -0.270 OA
ATOM     31  H   UNL     1      15.722  14.059  29.802  0.00  0.00    +0.155 HD
BRANCH  14  15
ATOM     15  C   UNL     1      14.128  12.712  28.259  0.00  0.00    +0.037 A 
ATOM     16  C   UNL     1      13.629  11.870  29.350  0.00  0.00    +0.013 A 
ATOM     17  C   UNL     1      13.562  10.440  29.186  0.00  0.00    +0.005 A 
ATOM     18  C   UNL     1      13.994   9.842  27.926  0.00  0.00    -0.033 A 
ATOM     28  C   UNL     1      14.480  10.701  26.858  0.00  0.00    +0.005 A 
ATOM     29  C   UNL     1      14.549  12.103  27.015  0.00  0.00    +0.013 A 
BRANCH  18  19
ATOM     19  C   UNL     1      13.977   8.323  27.671  0.00  0.00    +0.119 C 
BRANCH  19  20
ATOM     20  N   UNL     1      15.268   7.589  27.824  0.00  0.00    -0.302 NA
ATOM     21  C   UNL     1      16.046   8.048  29.061  0.00  0.00    +0.066 C 
ATOM     22  C   UNL     1      17.384   7.254  29.219  0.00  0.00    -0.064 C 
ATOM     23  N   UNL     1      18.227   7.425  27.954  0.00  0.00    +0.379 N 
ATOM     24  C   UNL     1      19.510   6.728  28.123  0.00  0.00    -0.096 C 
ATOM     25  H   UNL     1      18.445   8.512  27.838  0.00  0.00    -0.082 HD
ATOM     26  C   UNL     1      17.460   6.974  26.719  0.00  0.00    -0.064 C 
ATOM     27  C   UNL     1      16.119   7.748  26.588  0.00  0.00    +0.066 C 
ENDBRANCH  19  20
ENDBRANCH  18  19
ENDBRANCH  14  15
ENDBRANCH  12  13
TORSDOF 6
ENDMDL
MODEL 3
REMARK VINA RESULT:      -7.7     26.274     29.273
REMARK  Name = C:\Users\Docking\Desktop\test protocol\1iep_ligandH.pdb
REMARK  8 active torsions:
REMARK  status: ('A' for Active; 'I' for Inactive)
REMARK    1  A    between atoms: _5  and  _11
REMARK    2  A    between atoms: _19  and  _21
REMARK    3  A    between atoms: _22  and  _66
REMARK    4  A    between atoms: _27  and  _30
REMARK    5  A    between atoms: _32  and  _33
REMARK    6  A    between atoms: _38  and  _43
REMARK    7  A    between atoms: _43  and  _46
REMARK    8  A    between atoms: _53  and  _55
REMARK                            x       y       z     vdW  Elec       q    Type
REMARK                         _______ _______ _______ _____ _____    ______ ____
ROOT
ATOM     10  C   UNL     1      28.820 -14.412  14.662  0.00  0.00    +0.038 A 
ATOM     11  C   UNL     1      28.242 -14.866  15.875  0.00  0.00    +0.047 A 
ATOM     12  C   UNL     1      27.413 -13.989  16.688  0.00  0.00    +0.035 A 
ATOM     32  C   UNL     1      27.191 -12.657  16.234  0.00  0.00    +0.024 A 
ATOM     33  C   UNL     1      27.771 -12.178  15.003  0.00  0.00    +0.007 A 
ATOM     34  C   UNL     1      28.592 -13.037  14.199  0.00  0.00    -0.029 A 
ATOM     35  C   UNL     1      29.193 -12.469  12.892  0.00  0.00    +0.045 C 
ENDROOT
BRANCH  10   9
ATOM      4  C   UNL     1      29.476 -17.445  11.000  0.00  0.00    +0.077 A 
ATOM      5  C   UNL     1      28.128 -17.275  10.541  0.00  0.00    +0.048 A 
ATOM      6  C   UNL     1      27.296 -16.404  11.279  0.00  0.00    +0.116 A 
ATOM      7  N   UNL     1      27.786 -15.756  12.392  0.00  0.00    -0.223 NA
ATOM      8  C   UNL     1      29.091 -15.943  12.809  0.00  0.00    +0.220 A 
ATOM      9  N   UNL     1      29.607 -15.295  13.921  0.00  0.00    -0.283 N 
ATOM     36  H   UNL     1      30.573 -15.466  14.200  0.00  0.00    +0.155 HD
ATOM     37  N   UNL     1      29.905 -16.771  12.122  0.00  0.00    -0.214 NA
BRANCH   4   3
ATOM      1  C   UNL     1      32.518 -18.709   8.890  0.00  0.00    +0.020 A 
ATOM      2  C   UNL     1      31.577 -17.811   9.521  0.00  0.00    +0.013 A 
ATOM      3  C   UNL     1      30.478 -18.329  10.325  0.00  0.00    +0.019 A 
ATOM     38  C   UNL     1      30.358 -19.772  10.474  0.00  0.00    +0.120 A 
ATOM     39  N   UNL     1      31.278 -20.612   9.854  0.00  0.00    -0.263 NA
ATOM     40  C   UNL     1      32.339 -20.125   9.075  0.00  0.00    +0.111 A 
ENDBRANCH   4   3
ENDBRANCH  10   9
BRANCH  12  13
ATOM     13  N   UNL     1      26.807 -14.392  17.933  0.00  0.00    -0.281 N 
ATOM     14  C   UNL     1      25.460 -14.553  18.211  0.00  0.00    +0.248 C 
ATOM     30  O   UNL     1      24.554 -14.166  17.488  0.00  0.00    -0.270 OA
ATOM     31  H   UNL     1      27.450 -14.582  18.702  0.00  0.00    +0.155 HD
BRANCH  14  15
ATOM     15  C   UNL     1      25.061 -15.228  19.484  0.00  0.00    +0.037 A 
ATOM     16  C   UNL     1      23.654 -15.497  19.793  0.00  0.00    +0.013 A 
ATOM     17  C   UNL     1      23.296 -16.135  21.035  0.00  0.00    +0.005 A 
ATOM     18  C   UNL     1      24.347 -16.509  21.977  0.00  0.00    -0.033 A 
ATOM     28  C   UNL     1      25.735 -16.235  21.643  0.00  0.00    +0.005 A 
ATOM     29  C   UNL     1      26.090 -15.610  20.427  0.00  0.00    +0.013 A 
BRANCH  18  19
ATOM     19  C   UNL     1      24.055 -17.174  23.335  0.00  0.00    +0.119 C 
BRANCH  19  20
ATOM     20  N   UNL     1      25.206 -17.354  24.270  0.00  0.00    -0.302 NA
ATOM     21  C   UNL     1      25.173 -18.718  24.966  0.00  0.00    +0.066 C 
ATOM     22  C   UNL     1      26.396 -18.898  25.923  0.00  0.00    -0.064 C 
ATOM     23  N   UNL     1      26.407 -17.765  26.951  0.00  0.00    +0.379 N 
ATOM     24  C   UNL     1      27.522 -17.964  27.889  0.00  0.00    -0.096 C 
ATOM     25  H   UNL     1      25.459 -17.829  27.535  0.00  0.00    -0.082 HD
ATOM     26  C   UNL     1      26.437 -16.405  26.268  0.00  0.00    -0.064 C 
ATOM     27  C   UNL     1      25.233 -16.248  25.297  0.00  0.00    +0.066 C 
ENDBRANCH  19  20
ENDBRANCH  18  19
ENDBRANCH  14  15
ENDBRANCH  12  13
TORSDOF 6
ENDMDL
