MODEL 1
REMARK VINA RESULT:      -8.1      0.000      0.000
REMARK  Name = C:\Users\Docking\Desktop\test protocol\1iep_ligandH.pdb
REMARK  8 active torsions:
REMARK  status: ('A' for Active; 'I' for Inactive)
REMARK    1  A    between atoms: _5  and  _11
REMARK    2  A    between atoms: _19  and  _21
REMARK    3  A    between atoms: _22  and  _66
REMARK    4  A    between atoms: _27  and  _30
REMARK    5  A    between atoms: _32  and  _33
REMARK    6  A    between atoms: _38  and  _43
REMARK    7  A    between atoms: _43  and  _46
REMARK    8  A    between atoms: _53  and  _55
REMARK                            x       y       z     vdW  Elec       q    Type
REMARK                         _______ _______ _______ _____ _____    ______ ____
ROOT
ATOM     10  C   UNL     1      27.628  24.362  30.484  0.00  0.00    +0.038 A 
ATOM     11  C   UNL     1      28.226  24.353  29.198  0.00  0.00    +0.047 A 
ATOM     12  C   UNL     1      28.893  23.167  28.686  0.00  0.00    +0.035 A 
ATOM     32  C   UNL     1      28.930  22.004  29.510  0.00  0.00    +0.024 A 
ATOM     33  C   UNL     1      28.329  21.995  30.820  0.00  0.00    +0.007 A 
ATOM     34  C   UNL     1      27.671  23.164  31.331  0.00  0.00    -0.029 A 
ATOM     35  C   UNL     1      27.049  23.099  32.745  0.00  0.00    +0.045 C 
ENDROOT
BRANCH  10   9
ATOM      4  C   UNL     1      27.745  28.806  32.293  0.00  0.00    +0.077 A 
ATOM      5  C   UNL     1      29.176  28.791  32.392  0.00  0.00    +0.048 A 
ATOM      6  C   UNL     1      29.844  27.619  31.973  0.00  0.00    +0.116 A 
ATOM      7  N   UNL     1      29.124  26.546  31.493  0.00  0.00    -0.223 NA
ATOM      8  C   UNL     1      27.744  26.592  31.412  0.00  0.00    +0.220 A 
ATOM      9  N   UNL     1      27.000  25.528  30.925  0.00  0.00    -0.283 N 
ATOM     36  H   UNL     1      25.984  25.599  30.889  0.00  0.00    +0.155 HD
ATOM     37  N   UNL     1      27.083  27.700  31.807  0.00  0.00    -0.214 NA
BRANCH   4   3
ATOM      1  C   UNL     1      25.559  31.293  34.375  0.00  0.00    +0.020 A 
ATOM      2  C   UNL     1      26.372  30.147  34.041  0.00  0.00    +0.013 A 
ATOM      3  C   UNL     1      26.897  29.973  32.692  0.00  0.00    +0.019 A 
ATOM     38  C   UNL     1      26.579  30.987  31.698  0.00  0.00    +0.120 A 
ATOM     39  N   UNL     1      25.792  32.079  32.048  0.00  0.00    -0.263 NA
ATOM     40  C   UNL     1      25.279  32.255  33.342  0.00  0.00    +0.111 A 
ENDBRANCH   4   3
ENDBRANCH  10   9
BRANCH  12  13
ATOM     13  N   UNL     1      29.525  23.102  27.391  0.00  0.00    -0.281 N 
ATOM     14  C   UNL     1      30.862  23.296  27.086  0.00  0.00    +0.248 C 
ATOM     30  O   UNL     1      31.686  23.768  27.856  0.00  0.00    -0.270 OA
ATOM     31  H   UNL     1      28.912  22.887  26.605  0.00  0.00    +0.155 HD
BRANCH  14  15
ATOM     15  C   UNL     1      31.353  22.926  25.723  0.00  0.00    +0.037 A 
ATOM     16  C   UNL     1      32.041  23.900  24.873  0.00  0.00    +0.013 A 
ATOM     17  C   UNL     1      32.489  23.521  23.556  0.00  0.00    +0.005 A 
ATOM     18  C   UNL     1      32.251  22.160  23.082  0.00  0.00    -0.033 A 
ATOM     28  C   UNL     1      31.570  21.212  23.949  0.00  0.00    +0.005 A 
ATOM     29  C   UNL     1      31.129  21.580  25.240  0.00  0.00    +0.013 A 
BRANCH  18  19
ATOM     19  C   UNL     1      32.675  21.675  21.683  0.00  0.00    +0.119 C 
BRANCH  19  20
ATOM     20  N   UNL     1      33.934  20.877  21.589  0.00  0.00    -0.302 NA
ATOM     21  C   UNL     1      34.752  21.239  20.346  0.00  0.00    +0.066 C 
ATOM     22  C   UNL     1      36.076  20.411  20.275  0.00  0.00    -0.064 C 
ATOM     23  N   UNL     1      35.743  18.918  20.288  0.00  0.00    +0.379 N 
ATOM     24  C   UNL     1      36.982  18.138  20.163  0.00  0.00    -0.096 C 
ATOM     25  H   UNL     1      35.116  18.704  19.392  0.00  0.00    -0.082 HD
ATOM     26  C   UNL     1      34.927  18.551  21.520  0.00  0.00    -0.064 C 
ATOM     27  C   UNL     1      33.628  19.400  21.596  0.00  0.00    +0.066 C 
ENDBRANCH  19  20
ENDBRANCH  18  19
ENDBRANCH  14  15
ENDBRANCH  12  13
TORSDOF 6
ENDMDL
MODEL 2
REMARK VINA RESULT:      -7.9      5.922     14.360
REMARK  Name = C:\Users\Docking\Desktop\test protocol\1iep_ligandH.pdb
REMARK  8 active torsions:
REMARK  status: ('A' for Active; 'I' for Inactive)
REMARK    1  A    between atoms: _5  and  _11
REMARK    2  A    between atoms: _19  and  _21
REMARK    3  A    between atoms: _22  and  _66
REMARK    4  A    between atoms: _27  and  _30
REMARK    5  A    between atoms: _32  and  _33
REMARK    6  A    between atoms: _38  and  _43
REMARK    7  A    between atoms: _43  and  _46
REMARK    8  A    between atoms: _53  and  _55
REMARK                            x       y       z     vdW  Elec       q    Type
REMARK                         _______ _______ _______ _____ _____    ______ ____
ROOT
ATOM     10  C   UNL     1      38.860  26.905  23.697  0.00  0.00    +0.038 A 
ATOM     11  C   UNL     1      37.567  26.342  23.845  0.00  0.00    +0.047 A 
ATOM     12  C   UNL     1      36.875  26.373  25.124  0.00  0.00    +0.035 A 
ATOM     32  C   UNL     1      37.528  26.988  26.231  0.00  0.00    +0.024 A 
ATOM     33  C   UNL     1      38.843  27.565  26.099  0.00  0.00    +0.007 A 
ATOM     34  C   UNL     1      39.532  27.536  24.840  0.00  0.00    -0.029 A 
ATOM     35  C   UNL     1      40.942  28.164  24.758  0.00  0.00    +0.045 C 
ENDROOT
BRANCH  10   9
ATOM      4  C   UNL     1      41.483  24.646  20.372  0.00  0.00    +0.077 A 
ATOM      5  C   UNL     1      41.658  23.494  21.208  0.00  0.00    +0.048 A 
ATOM      6  C   UNL     1      41.063  23.525  22.489  0.00  0.00    +0.116 A 
ATOM      7  N   UNL     1      40.348  24.632  22.893  0.00  0.00    -0.223 NA
ATOM      8  C   UNL     1      40.200  25.728  22.063  0.00  0.00    +0.220 A 
ATOM      9  N   UNL     1      39.479  26.848  22.446  0.00  0.00    -0.283 N 
ATOM     36  H   UNL     1      39.399  27.639  21.807  0.00  0.00    +0.155 HD
ATOM     37  N   UNL     1      40.760  25.723  20.835  0.00  0.00    -0.214 NA
BRANCH   4   3
ATOM      1  C   UNL     1      43.434  25.925  17.232  0.00  0.00    +0.020 A 
ATOM      2  C   UNL     1      42.915  25.860  18.579  0.00  0.00    +0.013 A 
ATOM      3  C   UNL     1      42.048  24.763  18.990  0.00  0.00    +0.019 A 
ATOM     38  C   UNL     1      41.725  23.739  18.008  0.00  0.00    +0.120 A 
ATOM     39  N   UNL     1      42.239  23.829  16.718  0.00  0.00    -0.263 NA
ATOM     40  C   UNL     1      43.073  24.881  16.310  0.00  0.00    +0.111 A 
ENDBRANCH   4   3
ENDBRANCH  10   9
BRANCH  12  13
ATOM     13  N   UNL     1      35.564  25.810  25.336  0.00  0.00    -0.281 N 
ATOM     14  C   UNL     1      35.071  24.602  24.870  0.00  0.00    +0.248 C 
ATOM     30  O   UNL     1      35.614  23.917  24.016  0.00  0.00    -0.270 OA
ATOM     31  H   UNL     1      34.923  26.369  25.898  0.00  0.00    +0.155 HD
BRANCH  14  15
ATOM     15  C   UNL     1      33.780  24.089  25.422  0.00  0.00    +0.037 A 
ATOM     16  C   UNL     1      32.661  23.743  24.541  0.00  0.00    +0.013 A 
ATOM     17  C   UNL     1      31.421  23.266  25.100  0.00  0.00    +0.005 A 
ATOM     18  C   UNL     1      31.294  23.130  26.549  0.00  0.00    -0.033 A 
ATOM     28  C   UNL     1      32.422  23.476  27.399  0.00  0.00    +0.005 A 
ATOM     29  C   UNL     1      33.638  23.944  26.855  0.00  0.00    +0.013 A 
BRANCH  18  19
ATOM     19  C   UNL     1      30.001  22.650  27.234  0.00  0.00    +0.119 C 
BRANCH  19  20
ATOM     20  N   UNL     1      29.549  23.399  28.444  0.00  0.00    -0.302 NA
ATOM     21  C   UNL     1      28.563  22.587  29.288  0.00  0.00    +0.066 C 
ATOM     22  C   UNL     1      28.117  23.377  30.561  0.00  0.00    -0.064 C 
ATOM     23  N   UNL     1      27.498  24.711  30.139  0.00  0.00    +0.379 N 
ATOM     24  C   UNL     1      27.025  25.431  31.330  0.00  0.00    -0.096 C 
ATOM     25  H   UNL     1      26.609  24.485  29.505  0.00  0.00    -0.082 HD
ATOM     26  C   UNL     1      28.470  25.524  29.297  0.00  0.00    -0.064 C 
ATOM     27  C   UNL     1      28.930  24.718  28.050  0.00  0.00    +0.066 C 
ENDBRANCH  19  20
ENDBRANCH  18  19
ENDBRANCH  14  15
ENDBRANCH  12  13
TORSDOF 6
ENDMDL
MODEL 3
REMARK VINA RESULT:      -7.9     26.751     30.857
REMARK  Name = C:\Users\Docking\Desktop\test protocol\1iep_ligandH.pdb
REMARK  8 active torsions:
REMARK  status: ('A' for Active; 'I' for Inactive)
REMARK    1  A    between atoms: _5  and  _11
REMARK    2  A    between atoms: _19  and  _21
REMARK    3  A    between atoms: _22  and  _66
REMARK    4  A    between atoms: _27  and  _30
REMARK    5  A    between atoms: _32  and  _33
REMARK    6  A    between atoms: _38  and  _43
REMARK    7  A    between atoms: _43  and  _46
REMARK    8  A    between atoms: _53  and  _55
REMARK                            x       y       z     vdW  Elec       q    Type
REMARK                         _______ _______ _______ _____ _____    ______ ____
ROOT
ATOM     10  C   UNL     1      21.062  30.995  -0.087  0.00  0.00    +0.038 A 
ATOM     11  C   UNL     1      22.267  30.787  -0.806  0.00  0.00    +0.047 A 
ATOM     12  C   UNL     1      22.356  31.082  -2.228  0.00  0.00    +0.035 A 
ATOM     32  C   UNL     1      21.198  31.591  -2.885  0.00  0.00    +0.024 A 
ATOM     33  C   UNL     1      19.965  31.807  -2.170  0.00  0.00    +0.007 A 
ATOM     34  C   UNL     1      19.871  31.516  -0.768  0.00  0.00    -0.029 A 
ATOM     35  C   UNL     1      18.522  31.761  -0.054  0.00  0.00    +0.045 C 
ENDROOT
BRANCH  10   9
ATOM      4  C   UNL     1      20.308  27.976   3.567  0.00  0.00    +0.077 A 
ATOM      5  C   UNL     1      19.912  26.915   2.686  0.00  0.00    +0.048 A 
ATOM      6  C   UNL     1      19.909  27.189   1.300  0.00  0.00    +0.116 A 
ATOM      7  N   UNL     1      20.277  28.435   0.840  0.00  0.00    -0.223 NA
ATOM      8  C   UNL     1      20.652  29.437   1.717  0.00  0.00    +0.220 A 
ATOM      9  N   UNL     1      21.034  30.695   1.277  0.00  0.00    -0.283 N 
ATOM     36  H   UNL     1      21.296  31.408   1.956  0.00  0.00    +0.155 HD
ATOM     37  N   UNL     1      20.662  29.200   3.046  0.00  0.00    -0.214 NA
BRANCH   4   3
ATOM      1  C   UNL     1      21.200  28.529   7.335  0.00  0.00    +0.020 A 
ATOM      2  C   UNL     1      21.181  28.703   5.901  0.00  0.00    +0.013 A 
ATOM      3  C   UNL     1      20.365  27.839   5.057  0.00  0.00    +0.019 A 
ATOM     38  C   UNL     1      19.573  26.802   5.700  0.00  0.00    +0.120 A 
ATOM     39  N   UNL     1      19.613  26.657   7.084  0.00  0.00    -0.263 NA
ATOM     40  C   UNL     1      20.396  27.481   7.906  0.00  0.00    +0.111 A 
ENDBRANCH   4   3
ENDBRANCH  10   9
BRANCH  12  13
ATOM     13  N   UNL     1      23.550  30.884  -3.011  0.00  0.00    -0.281 N 
ATOM     14  C   UNL     1      24.187  29.689  -3.305  0.00  0.00    +0.248 C 
ATOM     30  O   UNL     1      23.946  28.624  -2.756  0.00  0.00    -0.270 OA
ATOM     31  H   UNL     1      23.977  31.726  -3.397  0.00  0.00    +0.155 HD
BRANCH  14  15
ATOM     15  C   UNL     1      25.257  29.679  -4.348  0.00  0.00    +0.037 A 
ATOM     16  C   UNL     1      26.333  28.685  -4.323  0.00  0.00    +0.013 A 
ATOM     17  C   UNL     1      27.363  28.709  -5.332  0.00  0.00    +0.005 A 
ATOM     18  C   UNL     1      27.320  29.730  -6.375  0.00  0.00    -0.033 A 
ATOM     28  C   UNL     1      26.238  30.701  -6.379  0.00  0.00    +0.005 A 
ATOM     29  C   UNL     1      25.228  30.681  -5.392  0.00  0.00    +0.013 A 
BRANCH  18  19
ATOM     19  C   UNL     1      28.388  29.843  -7.479  0.00  0.00    +0.119 C 
BRANCH  19  20
ATOM     20  N   UNL     1      29.602  28.983  -7.347  0.00  0.00    -0.302 NA
ATOM     21  C   UNL     1      30.773  29.736  -6.709  0.00  0.00    +0.066 C 
ATOM     22  C   UNL     1      32.027  28.815  -6.558  0.00  0.00    -0.064 C 
ATOM     23  N   UNL     1      32.420  28.264  -7.929  0.00  0.00    +0.379 N 
ATOM     24  C   UNL     1      33.634  27.444  -7.799  0.00  0.00    -0.096 C 
ATOM     25  H   UNL     1      32.667  29.132  -8.584  0.00  0.00    -0.082 HD
ATOM     26  C   UNL     1      31.261  27.516  -8.572  0.00  0.00    -0.064 C 
ATOM     27  C   UNL     1      30.010  28.432  -8.691  0.00  0.00    +0.066 C 
ENDBRANCH  19  20
ENDBRANCH  18  19
ENDBRANCH  14  15
ENDBRANCH  12  13
TORSDOF 6
ENDMDL
