MODEL 1
REMARK VINA RESULT:      -8.8      0.000      0.000
REMARK  Name = C:\Users\Docking\Desktop\test protocol\1iep_ligandH.pdb
REMARK  8 active torsions:
REMARK  status: ('A' for Active; 'I' for Inactive)
REMARK    1  A    between atoms: _5  and  _11
REMARK    2  A    between atoms: _19  and  _21
REMARK    3  A    between atoms: _22  and  _66
REMARK    4  A    between atoms: _27  and  _30
REMARK    5  A    between atoms: _32  and  _33
REMARK    6  A    between atoms: _38  and  _43
REMARK    7  A    between atoms: _43  and  _46
REMARK    8  A    between atoms: _53  and  _55
REMARK                            x       y       z     vdW  Elec       q    Type
REMARK                         _______ _______ _______ _____ _____    ______ ____
ROOT
ATOM     10  C   UNL     1       5.311 -12.031   6.530  0.00  0.00    +0.038 A 
ATOM     11  C   UNL     1       4.861 -10.710   6.273  0.00  0.00    +0.047 A 
ATOM     12  C   UNL     1       5.803  -9.625   6.045  0.00  0.00    +0.035 A 
ATOM     32  C   UNL     1       7.197  -9.921   6.085  0.00  0.00    +0.024 A 
ATOM     33  C   UNL     1       7.672 -11.257   6.346  0.00  0.00    +0.007 A 
ATOM     34  C   UNL     1       6.747 -12.331   6.573  0.00  0.00    -0.029 A 
ATOM     35  C   UNL     1       7.313 -13.743   6.855  0.00  0.00    +0.045 C 
ENDROOT
BRANCH  10   9
ATOM      4  C   UNL     1       2.274 -15.387   4.934  0.00  0.00    +0.077 A 
ATOM      5  C   UNL     1       2.582 -15.099   3.563  0.00  0.00    +0.048 A 
ATOM      6  C   UNL     1       3.523 -14.075   3.311  0.00  0.00    +0.116 A 
ATOM      7  N   UNL     1       4.105 -13.396   4.360  0.00  0.00    -0.223 NA
ATOM      8  C   UNL     1       3.784 -13.698   5.671  0.00  0.00    +0.220 A 
ATOM      9  N   UNL     1       4.363 -13.034   6.741  0.00  0.00    -0.283 N 
ATOM     36  H   UNL     1       4.094 -13.281   7.693  0.00  0.00    +0.155 HD
ATOM     37  N   UNL     1       2.888 -14.671   5.937  0.00  0.00    -0.214 NA
BRANCH   4   3
ATOM      1  C   UNL     1      -0.925 -17.619   5.227  0.00  0.00    +0.020 A 
ATOM      2  C   UNL     1      -0.026 -16.581   4.778  0.00  0.00    +0.013 A 
ATOM      3  C   UNL     1       1.303 -16.443   5.362  0.00  0.00    +0.019 A 
ATOM     38  C   UNL     1       1.694 -17.380   6.404  0.00  0.00    +0.120 A 
ATOM     39  N   UNL     1       0.806 -18.369   6.817  0.00  0.00    -0.263 NA
ATOM     40  C   UNL     1      -0.475 -18.510   6.264  0.00  0.00    +0.111 A 
ENDBRANCH   4   3
ENDBRANCH  10   9
BRANCH  12  13
ATOM     13  N   UNL     1       5.406  -8.264   5.787  0.00  0.00    -0.281 N 
ATOM     14  C   UNL     1       4.974  -7.315   6.700  0.00  0.00    +0.248 C 
ATOM     30  O   UNL     1       4.660  -7.560   7.855  0.00  0.00    -0.270 OA
ATOM     31  H   UNL     1       5.447  -7.962   4.814  0.00  0.00    +0.155 HD
BRANCH  14  15
ATOM     15  C   UNL     1       4.862  -5.890   6.262  0.00  0.00    +0.037 A 
ATOM     16  C   UNL     1       4.221  -4.883   7.111  0.00  0.00    +0.013 A 
ATOM     17  C   UNL     1       4.111  -3.519   6.657  0.00  0.00    +0.005 A 
ATOM     18  C   UNL     1       4.646  -3.155   5.347  0.00  0.00    -0.033 A 
ATOM     28  C   UNL     1       5.282  -4.173   4.528  0.00  0.00    +0.005 A 
ATOM     29  C   UNL     1       5.391  -5.511   4.969  0.00  0.00    +0.013 A 
BRANCH  18  19
ATOM     19  C   UNL     1       4.554  -1.728   4.774  0.00  0.00    +0.119 C 
BRANCH  19  20
ATOM     20  N   UNL     1       4.805  -0.595   5.714  0.00  0.00    -0.302 NA
ATOM     21  C   UNL     1       4.269   0.732   5.171  0.00  0.00    +0.066 C 
ATOM     22  C   UNL     1       4.520   1.902   6.177  0.00  0.00    -0.064 C 
ATOM     23  N   UNL     1       6.017   2.003   6.473  0.00  0.00    +0.379 N 
ATOM     24  C   UNL     1       6.264   3.139   7.373  0.00  0.00    -0.096 C 
ATOM     25  H   UNL     1       6.538   2.215   5.510  0.00  0.00    -0.082 HD
ATOM     26  C   UNL     1       6.560   0.687   7.011  0.00  0.00    -0.064 C 
ATOM     27  C   UNL     1       6.279  -0.474   6.016  0.00  0.00    +0.066 C 
ENDBRANCH  19  20
ENDBRANCH  18  19
ENDBRANCH  14  15
ENDBRANCH  12  13
TORSDOF 6
ENDMDL
MODEL 2
REMARK VINA RESULT:      -8.5      1.479      2.212
REMARK  Name = C:\Users\Docking\Desktop\test protocol\1iep_ligandH.pdb
REMARK  8 active torsions:
REMARK  status: ('A' for Active; 'I' for Inactive)
REMARK    1  A    between atoms: _5  and  _11
REMARK    2  A    between atoms: _19  and  _21
REMARK    3  A    between atoms: _22  and  _66
REMARK    4  A    between atoms: _27  and  _30
REMARK    5  A    between atoms: _32  and  _33
REMARK    6  A    between atoms: _38  and  _43
REMARK    7  A    between atoms: _43  and  _46
REMARK    8  A    between atoms: _53  and  _55
REMARK                            x       y       z     vdW  Elec       q    Type
REMARK                         _______ _______ _______ _____ _____    ______ ____
ROOT
ATOM     10  C   UNL     1       6.313 -12.014   6.593  0.00  0.00    +0.038 A 
ATOM     11  C   UNL     1       5.711 -10.790   6.203  0.00  0.00    +0.047 A 
ATOM     12  C   UNL     1       6.458  -9.543   6.224  0.00  0.00    +0.035 A 
ATOM     32  C   UNL     1       7.819  -9.578   6.647  0.00  0.00    +0.024 A 
ATOM     33  C   UNL     1       8.447 -10.812   7.048  0.00  0.00    +0.007 A 
ATOM     34  C   UNL     1       7.714 -12.046   7.031  0.00  0.00    -0.029 A 
ATOM     35  C   UNL     1       8.436 -13.338   7.478  0.00  0.00    +0.045 C 
ENDROOT
BRANCH  10   9
ATOM      4  C   UNL     1       2.803 -14.834   8.254  0.00  0.00    +0.077 A 
ATOM      5  C   UNL     1       2.482 -13.915   9.308  0.00  0.00    +0.048 A 
ATOM      6  C   UNL     1       3.249 -12.731   9.392  0.00  0.00    +0.116 A 
ATOM      7  N   UNL     1       4.259 -12.495   8.484  0.00  0.00    -0.223 NA
ATOM      8  C   UNL     1       4.543 -13.403   7.481  0.00  0.00    +0.220 A 
ATOM      9  N   UNL     1       5.549 -13.182   6.553  0.00  0.00    -0.283 N 
ATOM     36  H   UNL     1       5.732 -13.880   5.832  0.00  0.00    +0.155 HD
ATOM     37  N   UNL     1       3.826 -14.541   7.380  0.00  0.00    -0.214 NA
BRANCH   4   3
ATOM      1  C   UNL     1       0.894 -17.802   6.566  0.00  0.00    +0.020 A 
ATOM      2  C   UNL     1       1.585 -16.543   6.726  0.00  0.00    +0.013 A 
ATOM      3  C   UNL     1       2.080 -16.127   8.032  0.00  0.00    +0.019 A 
ATOM     38  C   UNL     1       1.860 -17.014   9.164  0.00  0.00    +0.120 A 
ATOM     39  N   UNL     1       1.190 -18.220   8.980  0.00  0.00    -0.263 NA
ATOM     40  C   UNL     1       0.707 -18.630   7.728  0.00  0.00    +0.111 A 
ENDBRANCH   4   3
ENDBRANCH  10   9
BRANCH  12  13
ATOM     13  N   UNL     1       5.897  -8.269   5.847  0.00  0.00    -0.281 N 
ATOM     14  C   UNL     1       5.236  -7.357   6.653  0.00  0.00    +0.248 C 
ATOM     30  O   UNL     1       4.836  -7.597   7.783  0.00  0.00    -0.270 OA
ATOM     31  H   UNL     1       6.000  -8.008   4.866  0.00  0.00    +0.155 HD
BRANCH  14  15
ATOM     15  C   UNL     1       4.966  -5.986   6.123  0.00  0.00    +0.037 A 
ATOM     16  C   UNL     1       5.481  -5.562   4.818  0.00  0.00    +0.013 A 
ATOM     17  C   UNL     1       5.221  -4.228   4.338  0.00  0.00    +0.005 A 
ATOM     18  C   UNL     1       4.440  -3.309   5.162  0.00  0.00    -0.033 A 
ATOM     28  C   UNL     1       3.937  -3.758   6.450  0.00  0.00    +0.005 A 
ATOM     29  C   UNL     1       4.191  -5.064   6.925  0.00  0.00    +0.013 A 
BRANCH  18  19
ATOM     19  C   UNL     1       4.132  -1.861   4.738  0.00  0.00    +0.119 C 
BRANCH  19  20
ATOM     20  N   UNL     1       4.566  -0.771   5.662  0.00  0.00    -0.302 NA
ATOM     21  C   UNL     1       4.020   0.595   5.236  0.00  0.00    +0.066 C 
ATOM     22  C   UNL     1       4.466   1.720   6.226  0.00  0.00    -0.064 C 
ATOM     23  N   UNL     1       5.993   1.749   6.307  0.00  0.00    +0.379 N 
ATOM     24  C   UNL     1       6.417   2.843   7.192  0.00  0.00    -0.096 C 
ATOM     25  H   UNL     1       6.382   1.970   5.285  0.00  0.00    -0.082 HD
ATOM     26  C   UNL     1       6.545   0.394   6.727  0.00  0.00    -0.064 C 
ATOM     27  C   UNL     1       6.072  -0.722   5.754  0.00  0.00    +0.066 C 
ENDBRANCH  19  20
ENDBRANCH  18  19
ENDBRANCH  14  15
ENDBRANCH  12  13
TORSDOF 6
ENDMDL
MODEL 3
REMARK VINA RESULT:      -8.5      6.003     11.506
REMARK  Name = C:\Users\Docking\Desktop\test protocol\1iep_ligandH.pdb
REMARK  8 active torsions:
REMARK  status: ('A' for Active; 'I' for Inactive)
REMARK    1  A    between atoms: _5  and  _11
REMARK    2  A    between atoms: _19  and  _21
REMARK    3  A    between atoms: _22  and  _66
REMARK    4  A    between atoms: _27  and  _30
REMARK    5  A    between atoms: _32  and  _33
REMARK    6  A    between atoms: _38  and  _43
REMARK    7  A    between atoms: _43  and  _46
REMARK    8  A    between atoms: _53  and  _55
REMARK                            x       y       z     vdW  Elec       q    Type
REMARK                         _______ _______ _______ _____ _____    ______ ____
ROOT
ATOM     10  C   UNL     1       6.767   0.086   6.571  0.00  0.00    +0.038 A 
ATOM     11  C   UNL     1       5.737   0.773   7.262  0.00  0.00    +0.047 A 
ATOM     12  C   UNL     1       5.527   2.200   7.075  0.00  0.00    +0.035 A 
ATOM     32  C   UNL     1       6.384   2.897   6.174  0.00  0.00    +0.024 A 
ATOM     33  C   UNL     1       7.438   2.214   5.464  0.00  0.00    +0.007 A 
ATOM     34  C   UNL     1       7.651   0.807   5.646  0.00  0.00    -0.029 A 
ATOM     35  C   UNL     1       8.799   0.129   4.864  0.00  0.00    +0.045 C 
ENDROOT
BRANCH  10   9
ATOM      4  C   UNL     1       5.493  -4.485   5.854  0.00  0.00    +0.077 A 
ATOM      5  C   UNL     1       4.407  -4.110   4.995  0.00  0.00    +0.048 A 
ATOM      6  C   UNL     1       4.205  -2.729   4.769  0.00  0.00    +0.116 A 
ATOM      7  N   UNL     1       5.035  -1.803   5.363  0.00  0.00    -0.223 NA
ATOM      8  C   UNL     1       6.072  -2.199   6.187  0.00  0.00    +0.220 A 
ATOM      9  N   UNL     1       6.924  -1.285   6.788  0.00  0.00    -0.283 N 
ATOM     36  H   UNL     1       7.672  -1.617   7.395  0.00  0.00    +0.155 HD
ATOM     37  N   UNL     1       6.284  -3.511   6.420  0.00  0.00    -0.214 NA
BRANCH   4   3
ATOM      1  C   UNL     1       5.292  -8.164   7.169  0.00  0.00    +0.020 A 
ATOM      2  C   UNL     1       4.913  -6.802   6.871  0.00  0.00    +0.013 A 
ATOM      3  C   UNL     1       5.835  -5.904   6.187  0.00  0.00    +0.019 A 
ATOM     38  C   UNL     1       7.143  -6.421   5.813  0.00  0.00    +0.120 A 
ATOM     39  N   UNL     1       7.481  -7.736   6.113  0.00  0.00    -0.263 NA
ATOM     40  C   UNL     1       6.603  -8.609   6.774  0.00  0.00    +0.111 A 
ENDBRANCH   4   3
ENDBRANCH  10   9
BRANCH  12  13
ATOM     13  N   UNL     1       4.503   2.953   7.756  0.00  0.00    -0.281 N 
ATOM     14  C   UNL     1       3.295   3.402   7.246  0.00  0.00    +0.248 C 
ATOM     30  O   UNL     1       3.006   3.408   6.059  0.00  0.00    -0.270 OA
ATOM     31  H   UNL     1       4.690   3.182   8.732  0.00  0.00    +0.155 HD
BRANCH  14  15
ATOM     15  C   UNL     1       2.266   3.934   8.190  0.00  0.00    +0.037 A 
ATOM     16  C   UNL     1       2.612   4.291   9.568  0.00  0.00    +0.013 A 
ATOM     17  C   UNL     1       1.596   4.787  10.463  0.00  0.00    +0.005 A 
ATOM     18  C   UNL     1       0.224   4.929   9.981  0.00  0.00    -0.033 A 
ATOM     28  C   UNL     1      -0.090   4.572   8.608  0.00  0.00    +0.005 A 
ATOM     29  C   UNL     1       0.903   4.086   7.728  0.00  0.00    +0.013 A 
BRANCH  18  19
ATOM     19  C   UNL     1      -0.928   5.430  10.873  0.00  0.00    +0.119 C 
BRANCH  19  20
ATOM     20  N   UNL     1      -2.019   4.460  11.188  0.00  0.00    -0.302 NA
ATOM     21  C   UNL     1      -2.873   4.922  12.372  0.00  0.00    +0.066 C 
ATOM     22  C   UNL     1      -4.024   3.907  12.674  0.00  0.00    -0.064 C 
ATOM     23  N   UNL     1      -3.424   2.526  12.944  0.00  0.00    +0.379 N 
ATOM     24  C   UNL     1      -4.499   1.583  13.285  0.00  0.00    -0.096 C 
ATOM     25  H   UNL     1      -2.758   2.615  13.833  0.00  0.00    -0.082 HD
ATOM     26  C   UNL     1      -2.571   2.061  11.772  0.00  0.00    -0.064 C 
ATOM     27  C   UNL     1      -1.449   3.090  11.462  0.00  0.00    +0.066 C 
ENDBRANCH  19  20
ENDBRANCH  18  19
ENDBRANCH  14  15
ENDBRANCH  12  13
TORSDOF 6
ENDMDL
