MODEL 1
REMARK VINA RESULT:      -7.7      0.000      0.000
REMARK  Name = C:\Users\Docking\Desktop\test protocol\1iep_ligandH.pdb
REMARK  8 active torsions:
REMARK  status: ('A' for Active; 'I' for Inactive)
REMARK    1  A    between atoms: _5  and  _11
REMARK    2  A    between atoms: _19  and  _21
REMARK    3  A    between atoms: _22  and  _66
REMARK    4  A    between atoms: _27  and  _30
REMARK    5  A    between atoms: _32  and  _33
REMARK    6  A    between atoms: _38  and  _43
REMARK    7  A    between atoms: _43  and  _46
REMARK    8  A    between atoms: _53  and  _55
REMARK                            x       y       z     vdW  Elec       q    Type
REMARK                         _______ _______ _______ _____ _____    ______ ____
ROOT
ATOM     10  C   UNL     1      23.669  20.564  -7.758  0.00  0.00    +0.038 A 
ATOM     11  C   UNL     1      22.843  21.716  -7.750  0.00  0.00    +0.047 A 
ATOM     12  C   UNL     1      21.393  21.603  -7.714  0.00  0.00    +0.035 A 
ATOM     32  C   UNL     1      20.818  20.299  -7.684  0.00  0.00    +0.024 A 
ATOM     33  C   UNL     1      21.643  19.116  -7.694  0.00  0.00    +0.007 A 
ATOM     34  C   UNL     1      23.074  19.222  -7.732  0.00  0.00    -0.029 A 
ATOM     35  C   UNL     1      23.909  17.921  -7.746  0.00  0.00    +0.045 C 
ENDROOT
BRANCH  10   9
ATOM      4  C   UNL     1      27.869  20.615 -10.081  0.00  0.00    +0.077 A 
ATOM      5  C   UNL     1      27.253  20.250 -11.324  0.00  0.00    +0.048 A 
ATOM      6  C   UNL     1      25.854  20.052 -11.322  0.00  0.00    +0.116 A 
ATOM      7  N   UNL     1      25.135  20.210 -10.157  0.00  0.00    -0.223 NA
ATOM      8  C   UNL     1      25.760  20.560  -8.975  0.00  0.00    +0.220 A 
ATOM      9  N   UNL     1      25.055  20.731  -7.793  0.00  0.00    -0.283 N 
ATOM     36  H   UNL     1      25.554  20.983  -6.940  0.00  0.00    +0.155 HD
ATOM     37  N   UNL     1      27.095  20.754  -8.950  0.00  0.00    -0.214 NA
BRANCH   4   3
ATOM      1  C   UNL     1      31.337  21.711  -8.640  0.00  0.00    +0.020 A 
ATOM      2  C   UNL     1      29.912  21.496  -8.743  0.00  0.00    +0.013 A 
ATOM      3  C   UNL     1      29.337  20.862  -9.923  0.00  0.00    +0.019 A 
ATOM     38  C   UNL     1      30.240  20.454 -10.990  0.00  0.00    +0.120 A 
ATOM     39  N   UNL     1      31.607  20.675 -10.863  0.00  0.00    -0.263 NA
ATOM     40  C   UNL     1      32.171  21.286  -9.733  0.00  0.00    +0.111 A 
ENDBRANCH   4   3
ENDBRANCH  10   9
BRANCH  12  13
ATOM     13  N   UNL     1      20.503  22.737  -7.712  0.00  0.00    -0.281 N 
ATOM     14  C   UNL     1      20.231  23.608  -8.754  0.00  0.00    +0.248 C 
ATOM     30  O   UNL     1      20.878  23.671  -9.789  0.00  0.00    -0.270 OA
ATOM     31  H   UNL     1      20.014  22.920  -6.835  0.00  0.00    +0.155 HD
BRANCH  14  15
ATOM     15  C   UNL     1      19.083  24.556  -8.622  0.00  0.00    +0.037 A 
ATOM     16  C   UNL     1      19.059  25.827  -9.351  0.00  0.00    +0.013 A 
ATOM     17  C   UNL     1      17.948  26.731  -9.192  0.00  0.00    +0.005 A 
ATOM     18  C   UNL     1      16.849  26.366  -8.301  0.00  0.00    -0.033 A 
ATOM     28  C   UNL     1      16.896  25.097  -7.593  0.00  0.00    +0.005 A 
ATOM     29  C   UNL     1      17.984  24.209  -7.746  0.00  0.00    +0.013 A 
BRANCH  18  19
ATOM     19  C   UNL     1      15.634  27.279  -8.054  0.00  0.00    +0.119 C 
BRANCH  19  20
ATOM     20  N   UNL     1      14.576  26.774  -7.129  0.00  0.00    -0.302 NA
ATOM     21  C   UNL     1      13.358  26.239  -7.887  0.00  0.00    +0.066 C 
ATOM     22  C   UNL     1      12.270  25.694  -6.904  0.00  0.00    -0.064 C 
ATOM     23  N   UNL     1      11.860  26.804  -5.935  0.00  0.00    +0.379 N 
ATOM     24  C   UNL     1      10.797  26.312  -5.048  0.00  0.00    -0.096 C 
ATOM     25  H   UNL     1      11.438  27.640  -6.539  0.00  0.00    -0.082 HD
ATOM     26  C   UNL     1      13.066  27.344  -5.180  0.00  0.00    -0.064 C 
ATOM     27  C   UNL     1      14.153  27.856  -6.166  0.00  0.00    +0.066 C 
ENDBRANCH  19  20
ENDBRANCH  18  19
ENDBRANCH  14  15
ENDBRANCH  12  13
TORSDOF 6
ENDMDL
MODEL 2
REMARK VINA RESULT:      -7.5      2.028      2.914
REMARK  Name = C:\Users\Docking\Desktop\test protocol\1iep_ligandH.pdb
REMARK  8 active torsions:
REMARK  status: ('A' for Active; 'I' for Inactive)
REMARK    1  A    between atoms: _5  and  _11
REMARK    2  A    between atoms: _19  and  _21
REMARK    3  A    between atoms: _22  and  _66
REMARK    4  A    between atoms: _27  and  _30
REMARK    5  A    between atoms: _32  and  _33
REMARK    6  A    between atoms: _38  and  _43
REMARK    7  A    between atoms: _43  and  _46
REMARK    8  A    between atoms: _53  and  _55
REMARK                            x       y       z     vdW  Elec       q    Type
REMARK                         _______ _______ _______ _____ _____    ______ ____
ROOT
ATOM     10  C   UNL     1      24.127  20.580  -7.878  0.00  0.00    +0.038 A 
ATOM     11  C   UNL     1      23.290  21.716  -8.023  0.00  0.00    +0.047 A 
ATOM     12  C   UNL     1      21.852  21.622  -7.822  0.00  0.00    +0.035 A 
ATOM     32  C   UNL     1      21.300  20.356  -7.471  0.00  0.00    +0.024 A 
ATOM     33  C   UNL     1      22.136  19.191  -7.321  0.00  0.00    +0.007 A 
ATOM     34  C   UNL     1      23.555  19.277  -7.520  0.00  0.00    -0.029 A 
ATOM     35  C   UNL     1      24.401  17.994  -7.352  0.00  0.00    +0.045 C 
ENDROOT
BRANCH  10   9
ATOM      4  C   UNL     1      28.021  20.492 -10.683  0.00  0.00    +0.077 A 
ATOM      5  C   UNL     1      27.258  20.093 -11.830  0.00  0.00    +0.048 A 
ATOM      6  C   UNL     1      25.868  19.915 -11.655  0.00  0.00    +0.116 A 
ATOM      7  N   UNL     1      25.293  20.122 -10.420  0.00  0.00    -0.223 NA
ATOM      8  C   UNL     1      26.058  20.505  -9.333  0.00  0.00    +0.220 A 
ATOM      9  N   UNL     1      25.500  20.728  -8.083  0.00  0.00    -0.283 N 
ATOM     36  H   UNL     1      26.100  21.002  -7.305  0.00  0.00    +0.155 HD
ATOM     37  N   UNL     1      27.388  20.681  -9.474  0.00  0.00    -0.214 NA
BRANCH   4   3
ATOM      1  C   UNL     1      31.642  21.613  -9.716  0.00  0.00    +0.020 A 
ATOM      2  C   UNL     1      30.212  21.415  -9.642  0.00  0.00    +0.013 A 
ATOM      3  C   UNL     1      29.500  20.725 -10.709  0.00  0.00    +0.019 A 
ATOM     38  C   UNL     1      30.269  20.242 -11.846  0.00  0.00    +0.120 A 
ATOM     39  N   UNL     1      31.644  20.448 -11.891  0.00  0.00    -0.263 NA
ATOM     40  C   UNL     1      32.341  21.113 -10.870  0.00  0.00    +0.111 A 
ENDBRANCH   4   3
ENDBRANCH  10   9
BRANCH  12  13
ATOM     13  N   UNL     1      20.952  22.740  -7.963  0.00  0.00    -0.281 N 
ATOM     14  C   UNL     1      20.204  23.095  -9.073  0.00  0.00    +0.248 C 
ATOM     30  O   UNL     1      20.359  22.626 -10.191  0.00  0.00    -0.270 OA
ATOM     31  H   UNL     1      20.854  23.341  -7.145  0.00  0.00    +0.155 HD
BRANCH  14  15
ATOM     15  C   UNL     1      19.138  24.133  -8.924  0.00  0.00    +0.037 A 
ATOM     16  C   UNL     1      17.810  23.790  -8.409  0.00  0.00    +0.013 A 
ATOM     17  C   UNL     1      16.795  24.806  -8.291  0.00  0.00    +0.005 A 
ATOM     18  C   UNL     1      17.106  26.178  -8.688  0.00  0.00    -0.033 A 
ATOM     28  C   UNL     1      18.433  26.492  -9.190  0.00  0.00    +0.005 A 
ATOM     29  C   UNL     1      19.430  25.498  -9.308  0.00  0.00    +0.013 A 
BRANCH  18  19
ATOM     19  C   UNL     1      16.078  27.323  -8.616  0.00  0.00    +0.119 C 
BRANCH  19  20
ATOM     20  N   UNL     1      15.663  27.952  -9.905  0.00  0.00    -0.302 NA
ATOM     21  C   UNL     1      16.235  29.363 -10.066  0.00  0.00    +0.066 C 
ATOM     22  C   UNL     1      15.810  29.998 -11.430  0.00  0.00    -0.064 C 
ATOM     23  N   UNL     1      14.284  30.018 -11.527  0.00  0.00    +0.379 N 
ATOM     24  C   UNL     1      13.880  30.666 -12.783  0.00  0.00    -0.096 C 
ATOM     25  H   UNL     1      13.900  30.640 -10.685  0.00  0.00    -0.082 HD
ATOM     26  C   UNL     1      13.707  28.618 -11.365  0.00  0.00    -0.064 C 
ATOM     27  C   UNL     1      14.159  27.985 -10.020  0.00  0.00    +0.066 C 
ENDBRANCH  19  20
ENDBRANCH  18  19
ENDBRANCH  14  15
ENDBRANCH  12  13
TORSDOF 6
ENDMDL
MODEL 3
REMARK VINA RESULT:      -7.4      3.520     12.973
REMARK  Name = C:\Users\Docking\Desktop\test protocol\1iep_ligandH.pdb
REMARK  8 active torsions:
REMARK  status: ('A' for Active; 'I' for Inactive)
REMARK    1  A    between atoms: _5  and  _11
REMARK    2  A    between atoms: _19  and  _21
REMARK    3  A    between atoms: _22  and  _66
REMARK    4  A    between atoms: _27  and  _30
REMARK    5  A    between atoms: _32  and  _33
REMARK    6  A    between atoms: _38  and  _43
REMARK    7  A    between atoms: _43  and  _46
REMARK    8  A    between atoms: _53  and  _55
REMARK                            x       y       z     vdW  Elec       q    Type
REMARK                         _______ _______ _______ _____ _____    ______ ____
ROOT
ATOM     10  C   UNL     1      23.060  19.761 -10.290  0.00  0.00    +0.038 A 
ATOM     11  C   UNL     1      24.366  20.093  -9.846  0.00  0.00    +0.047 A 
ATOM     12  C   UNL     1      25.382  19.068  -9.664  0.00  0.00    +0.035 A 
ATOM     32  C   UNL     1      25.034  17.714  -9.947  0.00  0.00    +0.024 A 
ATOM     33  C   UNL     1      23.711  17.360 -10.398  0.00  0.00    +0.007 A 
ATOM     34  C   UNL     1      22.704  18.366 -10.576  0.00  0.00    -0.029 A 
ATOM     35  C   UNL     1      21.301  17.928 -11.056  0.00  0.00    +0.045 C 
ENDROOT
BRANCH  10   9
ATOM      4  C   UNL     1      20.023  23.029  -8.518  0.00  0.00    +0.077 A 
ATOM      5  C   UNL     1      20.306  22.644  -7.165  0.00  0.00    +0.048 A 
ATOM      6  C   UNL     1      21.233  21.596  -6.969  0.00  0.00    +0.116 A 
ATOM      7  N   UNL     1      21.828  20.986  -8.052  0.00  0.00    -0.223 NA
ATOM      8  C   UNL     1      21.532  21.380  -9.343  0.00  0.00    +0.220 A 
ATOM      9  N   UNL     1      22.124  20.786 -10.447  0.00  0.00    -0.283 N 
ATOM     36  H   UNL     1      21.874  21.100 -11.384  0.00  0.00    +0.155 HD
ATOM     37  N   UNL     1      20.649  22.378  -9.558  0.00  0.00    -0.214 NA
BRANCH   4   3
ATOM      1  C   UNL     1      17.384  25.908  -8.312  0.00  0.00    +0.020 A 
ATOM      2  C   UNL     1      18.292  24.862  -7.902  0.00  0.00    +0.013 A 
ATOM      3  C   UNL     1      19.069  24.121  -8.888  0.00  0.00    +0.019 A 
ATOM     38  C   UNL     1      18.903  24.467 -10.292  0.00  0.00    +0.120 A 
ATOM     39  N   UNL     1      18.020  25.479 -10.657  0.00  0.00    -0.263 NA
ATOM     40  C   UNL     1      17.266  26.197  -9.717  0.00  0.00    +0.111 A 
ENDBRANCH   4   3
ENDBRANCH  10   9
BRANCH  12  13
ATOM     13  N   UNL     1      26.722  19.343  -9.208  0.00  0.00    -0.281 N 
ATOM     14  C   UNL     1      27.661  20.183  -9.783  0.00  0.00    +0.248 C 
ATOM     30  O   UNL     1      27.565  20.664 -10.902  0.00  0.00    -0.270 OA
ATOM     31  H   UNL     1      27.013  18.860  -8.358  0.00  0.00    +0.155 HD
BRANCH  14  15
ATOM     15  C   UNL     1      28.892  20.527  -9.009  0.00  0.00    +0.037 A 
ATOM     16  C   UNL     1      29.780  19.483  -8.490  0.00  0.00    +0.013 A 
ATOM     17  C   UNL     1      30.952  19.842  -7.731  0.00  0.00    +0.005 A 
ATOM     18  C   UNL     1      31.244  21.253  -7.488  0.00  0.00    -0.033 A 
ATOM     28  C   UNL     1      30.349  22.268  -8.019  0.00  0.00    +0.005 A 
ATOM     29  C   UNL     1      29.199  21.920  -8.762  0.00  0.00    +0.013 A 
BRANCH  18  19
ATOM     19  C   UNL     1      32.460  21.727  -6.671  0.00  0.00    +0.119 C 
BRANCH  19  20
ATOM     20  N   UNL     1      32.590  21.211  -5.276  0.00  0.00    -0.302 NA
ATOM     21  C   UNL     1      32.213  22.269  -4.235  0.00  0.00    +0.066 C 
ATOM     22  C   UNL     1      32.332  21.706  -2.782  0.00  0.00    -0.064 C 
ATOM     23  N   UNL     1      33.757  21.201  -2.549  0.00  0.00    +0.379 N 
ATOM     24  C   UNL     1      33.889  20.723  -1.164  0.00  0.00    -0.096 C 
ATOM     25  H   UNL     1      34.448  22.067  -2.675  0.00  0.00    -0.082 HD
ATOM     26  C   UNL     1      34.141  20.150  -3.581  0.00  0.00    -0.064 C 
ATOM     27  C   UNL     1      33.991  20.711  -5.023  0.00  0.00    +0.066 C 
ENDBRANCH  19  20
ENDBRANCH  18  19
ENDBRANCH  14  15
ENDBRANCH  12  13
TORSDOF 6
ENDMDL
