MODEL 1
REMARK VINA RESULT:      -6.1      0.000      0.000
REMARK  Name = C:\Users\Docking\Desktop\test protocol\1iep_ligandH.pdb
REMARK  8 active torsions:
REMARK  status: ('A' for Active; 'I' for Inactive)
REMARK    1  A    between atoms: _5  and  _11
REMARK    2  A    between atoms: _19  and  _21
REMARK    3  A    between atoms: _22  and  _66
REMARK    4  A    between atoms: _27  and  _30
REMARK    5  A    between atoms: _32  and  _33
REMARK    6  A    between atoms: _38  and  _43
REMARK    7  A    between atoms: _43  and  _46
REMARK    8  A    between atoms: _53  and  _55
REMARK                            x       y       z     vdW  Elec       q    Type
REMARK                         _______ _______ _______ _____ _____    ______ ____
ROOT
ATOM     10  C   UNL     1       1.922  10.967  26.673  0.00  0.00    +0.038 A 
ATOM     11  C   UNL     1       1.543   9.937  25.774  0.00  0.00    +0.047 A 
ATOM     12  C   UNL     1       1.639   8.536  26.151  0.00  0.00    +0.035 A 
ATOM     32  C   UNL     1       2.125   8.218  27.452  0.00  0.00    +0.024 A 
ATOM     33  C   UNL     1       2.517   9.251  28.378  0.00  0.00    +0.007 A 
ATOM     34  C   UNL     1       2.426  10.636  28.012  0.00  0.00    -0.029 A 
ATOM     35  C   UNL     1       2.866  11.701  29.042  0.00  0.00    +0.045 C 
ENDROOT
BRANCH  10   9
ATOM      4  C   UNL     1      -0.458  15.125  26.398  0.00  0.00    +0.077 A 
ATOM      5  C   UNL     1      -1.582  14.598  27.117  0.00  0.00    +0.048 A 
ATOM      6  C   UNL     1      -1.511  13.249  27.533  0.00  0.00    +0.116 A 
ATOM      7  N   UNL     1      -0.394  12.495  27.247  0.00  0.00    -0.223 NA
ATOM      8  C   UNL     1       0.672  13.034  26.551  0.00  0.00    +0.220 A 
ATOM      9  N   UNL     1       1.809  12.296  26.259  0.00  0.00    -0.283 N 
ATOM     36  H   UNL     1       2.571  12.728  25.737  0.00  0.00    +0.155 HD
ATOM     37  N   UNL     1       0.628  14.319  26.141  0.00  0.00    -0.214 NA
BRANCH   4   3
ATOM      1  C   UNL     1       0.765  18.404  24.651  0.00  0.00    +0.020 A 
ATOM      2  C   UNL     1       0.741  17.036  25.113  0.00  0.00    +0.013 A 
ATOM      3  C   UNL     1      -0.382  16.533  25.894  0.00  0.00    +0.019 A 
ATOM     38  C   UNL     1      -1.474  17.448  26.191  0.00  0.00    +0.120 A 
ATOM     39  N   UNL     1      -1.423  18.761  25.734  0.00  0.00    -0.263 NA
ATOM     40  C   UNL     1      -0.346  19.256  24.983  0.00  0.00    +0.111 A 
ENDBRANCH   4   3
ENDBRANCH  10   9
BRANCH  12  13
ATOM     13  N   UNL     1       1.276   7.447  25.277  0.00  0.00    -0.281 N 
ATOM     14  C   UNL     1       2.119   6.585  24.595  0.00  0.00    +0.248 C 
ATOM     30  O   UNL     1       3.322   6.755  24.463  0.00  0.00    -0.270 OA
ATOM     31  H   UNL     1       0.276   7.294  25.146  0.00  0.00    +0.155 HD
BRANCH  14  15
ATOM     15  C   UNL     1       1.539   5.366  23.954  0.00  0.00    +0.037 A 
ATOM     16  C   UNL     1       2.111   4.808  22.726  0.00  0.00    +0.013 A 
ATOM     17  C   UNL     1       1.522   3.641  22.119  0.00  0.00    +0.005 A 
ATOM     18  C   UNL     1       0.354   3.022  22.741  0.00  0.00    -0.033 A 
ATOM     28  C   UNL     1      -0.190   3.593  23.963  0.00  0.00    +0.005 A 
ATOM     29  C   UNL     1       0.384   4.737  24.560  0.00  0.00    +0.013 A 
BRANCH  18  19
ATOM     19  C   UNL     1      -0.353   1.787  22.151  0.00  0.00    +0.119 C 
BRANCH  19  20
ATOM     20  N   UNL     1      -1.655   2.011  21.456  0.00  0.00    -0.302 NA
ATOM     21  C   UNL     1      -2.259   0.705  20.932  0.00  0.00    +0.066 C 
ATOM     22  C   UNL     1      -3.632   0.955  20.228  0.00  0.00    -0.064 C 
ATOM     23  N   UNL     1      -3.442   1.959  19.089  0.00  0.00    +0.379 N 
ATOM     24  C   UNL     1      -4.720   2.152  18.388  0.00  0.00    -0.096 C 
ATOM     25  H   UNL     1      -2.722   1.515  18.364  0.00  0.00    -0.082 HD
ATOM     26  C   UNL     1      -2.840   3.260  19.601  0.00  0.00    -0.064 C 
ATOM     27  C   UNL     1      -1.490   2.996  20.325  0.00  0.00    +0.066 C 
ENDBRANCH  19  20
ENDBRANCH  18  19
ENDBRANCH  14  15
ENDBRANCH  12  13
TORSDOF 6
ENDMDL
MODEL 2
REMARK VINA RESULT:      -6.0      6.062     11.892
REMARK  Name = C:\Users\Docking\Desktop\test protocol\1iep_ligandH.pdb
REMARK  8 active torsions:
REMARK  status: ('A' for Active; 'I' for Inactive)
REMARK    1  A    between atoms: _5  and  _11
REMARK    2  A    between atoms: _19  and  _21
REMARK    3  A    between atoms: _22  and  _66
REMARK    4  A    between atoms: _27  and  _30
REMARK    5  A    between atoms: _32  and  _33
REMARK    6  A    between atoms: _38  and  _43
REMARK    7  A    between atoms: _43  and  _46
REMARK    8  A    between atoms: _53  and  _55
REMARK                            x       y       z     vdW  Elec       q    Type
REMARK                         _______ _______ _______ _____ _____    ______ ____
ROOT
ATOM     10  C   UNL     1       0.689  12.085  27.034  0.00  0.00    +0.038 A 
ATOM     11  C   UNL     1      -0.313  11.791  27.994  0.00  0.00    +0.047 A 
ATOM     12  C   UNL     1      -0.589  12.698  29.097  0.00  0.00    +0.035 A 
ATOM     32  C   UNL     1       0.175  13.898  29.191  0.00  0.00    +0.024 A 
ATOM     33  C   UNL     1       1.198  14.213  28.225  0.00  0.00    +0.007 A 
ATOM     34  C   UNL     1       1.475  13.320  27.136  0.00  0.00    -0.029 A 
ATOM     35  C   UNL     1       2.588  13.705  26.134  0.00  0.00    +0.045 C 
ENDROOT
BRANCH  10   9
ATOM      4  C   UNL     1       2.558   8.024  25.288  0.00  0.00    +0.077 A 
ATOM      5  C   UNL     1       3.166   7.694  26.544  0.00  0.00    +0.048 A 
ATOM      6  C   UNL     1       2.980   8.599  27.613  0.00  0.00    +0.116 A 
ATOM      7  N   UNL     1       2.238   9.746  27.428  0.00  0.00    -0.223 NA
ATOM      8  C   UNL     1       1.667  10.035  26.202  0.00  0.00    +0.220 A 
ATOM      9  N   UNL     1       0.911  11.179  25.995  0.00  0.00    -0.283 N 
ATOM     36  H   UNL     1       0.512  11.360  25.074  0.00  0.00    +0.155 HD
ATOM     37  N   UNL     1       1.831   9.187  25.165  0.00  0.00    -0.214 NA
BRANCH   4   3
ATOM      1  C   UNL     1       3.579   6.638  21.775  0.00  0.00    +0.020 A 
ATOM      2  C   UNL     1       3.515   7.501  22.932  0.00  0.00    +0.013 A 
ATOM      3  C   UNL     1       2.662   7.166  24.065  0.00  0.00    +0.019 A 
ATOM     38  C   UNL     1       1.880   5.940  23.996  0.00  0.00    +0.120 A 
ATOM     39  N   UNL     1       1.961   5.129  22.868  0.00  0.00    -0.263 NA
ATOM     40  C   UNL     1       2.778   5.443  21.771  0.00  0.00    +0.111 A 
ENDBRANCH   4   3
ENDBRANCH  10   9
BRANCH  12  13
ATOM     13  N   UNL     1      -1.588  12.449  30.106  0.00  0.00    -0.281 N 
ATOM     14  C   UNL     1      -2.943  12.731  30.050  0.00  0.00    +0.248 C 
ATOM     30  O   UNL     1      -3.468  13.439  29.204  0.00  0.00    -0.270 OA
ATOM     31  H   UNL     1      -1.256  12.011  30.965  0.00  0.00    +0.155 HD
BRANCH  14  15
ATOM     15  C   UNL     1      -3.844  12.154  31.094  0.00  0.00    +0.037 A 
ATOM     16  C   UNL     1      -4.264  12.942  32.255  0.00  0.00    +0.013 A 
ATOM     17  C   UNL     1      -5.120  12.356  33.256  0.00  0.00    +0.005 A 
ATOM     18  C   UNL     1      -5.563  10.973  33.099  0.00  0.00    -0.033 A 
ATOM     28  C   UNL     1      -5.135  10.215  31.934  0.00  0.00    +0.005 A 
ATOM     29  C   UNL     1      -4.296  10.786  30.952  0.00  0.00    +0.013 A 
BRANCH  18  19
ATOM     19  C   UNL     1      -6.460  10.260  34.128  0.00  0.00    +0.119 C 
BRANCH  19  20
ATOM     20  N   UNL     1      -5.869   9.977  35.470  0.00  0.00    -0.302 NA
ATOM     21  C   UNL     1      -4.474   9.354  35.364  0.00  0.00    +0.066 C 
ATOM     22  C   UNL     1      -3.861   9.085  36.777  0.00  0.00    -0.064 C 
ATOM     23  N   UNL     1      -4.801   8.177  37.573  0.00  0.00    +0.379 N 
ATOM     24  C   UNL     1      -4.201   7.876  38.881  0.00  0.00    -0.096 C 
ATOM     25  H   UNL     1      -4.896   7.217  37.015  0.00  0.00    -0.082 HD
ATOM     26  C   UNL     1      -6.191   8.788  37.681  0.00  0.00    -0.064 C 
ATOM     27  C   UNL     1      -6.778   9.078  36.272  0.00  0.00    +0.066 C 
ENDBRANCH  19  20
ENDBRANCH  18  19
ENDBRANCH  14  15
ENDBRANCH  12  13
TORSDOF 6
ENDMDL
MODEL 3
REMARK VINA RESULT:      -6.0      6.177     11.104
REMARK  Name = C:\Users\Docking\Desktop\test protocol\1iep_ligandH.pdb
REMARK  8 active torsions:
REMARK  status: ('A' for Active; 'I' for Inactive)
REMARK    1  A    between atoms: _5  and  _11
REMARK    2  A    between atoms: _19  and  _21
REMARK    3  A    between atoms: _22  and  _66
REMARK    4  A    between atoms: _27  and  _30
REMARK    5  A    between atoms: _32  and  _33
REMARK    6  A    between atoms: _38  and  _43
REMARK    7  A    between atoms: _43  and  _46
REMARK    8  A    between atoms: _53  and  _55
REMARK                            x       y       z     vdW  Elec       q    Type
REMARK                         _______ _______ _______ _____ _____    ______ ____
ROOT
ATOM     10  C   UNL     1       2.179   9.520  26.928  0.00  0.00    +0.038 A 
ATOM     11  C   UNL     1       2.798   9.417  28.200  0.00  0.00    +0.047 A 
ATOM     12  C   UNL     1       3.990   8.608  28.394  0.00  0.00    +0.035 A 
ATOM     32  C   UNL     1       4.528   7.918  27.268  0.00  0.00    +0.024 A 
ATOM     33  C   UNL     1       3.912   8.011  25.968  0.00  0.00    +0.007 A 
ATOM     34  C   UNL     1       2.733   8.806  25.772  0.00  0.00    -0.029 A 
ATOM     35  C   UNL     1       2.111   8.864  24.358  0.00  0.00    +0.045 C 
ENDROOT
BRANCH  10   9
ATOM      4  C   UNL     1       0.012  13.763  26.341  0.00  0.00    +0.077 A 
ATOM      5  C   UNL     1       1.263  14.465  26.315  0.00  0.00    +0.048 A 
ATOM      6  C   UNL     1       2.440  13.698  26.463  0.00  0.00    +0.116 A 
ATOM      7  N   UNL     1       2.361  12.332  26.624  0.00  0.00    -0.223 NA
ATOM      8  C   UNL     1       1.138  11.686  26.647  0.00  0.00    +0.220 A 
ATOM      9  N   UNL     1       1.035  10.312  26.800  0.00  0.00    -0.283 N 
ATOM     36  H   UNL     1       0.115   9.874  26.818  0.00  0.00    +0.155 HD
ATOM     37  N   UNL     1      -0.001  12.396  26.509  0.00  0.00    -0.214 NA
BRANCH   4   3
ATOM      1  C   UNL     1      -3.835  14.393  26.020  0.00  0.00    +0.020 A 
ATOM      2  C   UNL     1      -2.577  13.698  26.164  0.00  0.00    +0.013 A 
ATOM      3  C   UNL     1      -1.319  14.433  26.194  0.00  0.00    +0.019 A 
ATOM     38  C   UNL     1      -1.369  15.882  26.076  0.00  0.00    +0.120 A 
ATOM     39  N   UNL     1      -2.595  16.525  25.937  0.00  0.00    -0.263 NA
ATOM     40  C   UNL     1      -3.813  15.827  25.905  0.00  0.00    +0.111 A 
ENDBRANCH   4   3
ENDBRANCH  10   9
BRANCH  12  13
ATOM     13  N   UNL     1       4.657   8.459  29.664  0.00  0.00    -0.281 N 
ATOM     14  C   UNL     1       5.494   9.363  30.297  0.00  0.00    +0.248 C 
ATOM     30  O   UNL     1       5.968  10.356  29.765  0.00  0.00    -0.270 OA
ATOM     31  H   UNL     1       4.493   7.580  30.155  0.00  0.00    +0.155 HD
BRANCH  14  15
ATOM     15  C   UNL     1       5.869   9.122  31.724  0.00  0.00    +0.037 A 
ATOM     16  C   UNL     1       5.443  10.036  32.787  0.00  0.00    +0.013 A 
ATOM     17  C   UNL     1       5.833   9.789  34.152  0.00  0.00    +0.005 A 
ATOM     18  C   UNL     1       6.655   8.622  34.462  0.00  0.00    -0.033 A 
ATOM     28  C   UNL     1       7.059   7.729  33.389  0.00  0.00    +0.005 A 
ATOM     29  C   UNL     1       6.680   7.968  32.050  0.00  0.00    +0.013 A 
BRANCH  18  19
ATOM     19  C   UNL     1       7.136   8.293  35.888  0.00  0.00    +0.119 C 
BRANCH  19  20
ATOM     20  N   UNL     1       6.230   7.467  36.741  0.00  0.00    -0.302 NA
ATOM     21  C   UNL     1       6.190   7.967  38.188  0.00  0.00    +0.066 C 
ATOM     22  C   UNL     1       5.221   7.105  39.062  0.00  0.00    -0.064 C 
ATOM     23  N   UNL     1       5.656   5.640  39.007  0.00  0.00    +0.379 N 
ATOM     24  C   UNL     1       4.781   4.836  39.873  0.00  0.00    -0.096 C 
ATOM     25  H   UNL     1       6.690   5.579  39.419  0.00  0.00    -0.082 HD
ATOM     26  C   UNL     1       5.701   5.135  37.572  0.00  0.00    -0.064 C 
ATOM     27  C   UNL     1       6.644   6.016  36.705  0.00  0.00    +0.066 C 
ENDBRANCH  19  20
ENDBRANCH  18  19
ENDBRANCH  14  15
ENDBRANCH  12  13
TORSDOF 6
ENDMDL
