MODEL 1
REMARK VINA RESULT:      -8.6      0.000      0.000
REMARK  Name = C:\Users\Docking\Desktop\test protocol\1iep_ligandH.pdb
REMARK  8 active torsions:
REMARK  status: ('A' for Active; 'I' for Inactive)
REMARK    1  A    between atoms: _5  and  _11
REMARK    2  A    between atoms: _19  and  _21
REMARK    3  A    between atoms: _22  and  _66
REMARK    4  A    between atoms: _27  and  _30
REMARK    5  A    between atoms: _32  and  _33
REMARK    6  A    between atoms: _38  and  _43
REMARK    7  A    between atoms: _43  and  _46
REMARK    8  A    between atoms: _53  and  _55
REMARK                            x       y       z     vdW  Elec       q    Type
REMARK                         _______ _______ _______ _____ _____    ______ ____
ROOT
ATOM     10  C   UNL     1      11.141  37.364  14.596  0.00  0.00    +0.038 A 
ATOM     11  C   UNL     1       9.992  37.527  15.412  0.00  0.00    +0.047 A 
ATOM     12  C   UNL     1       9.014  36.461  15.557  0.00  0.00    +0.035 A 
ATOM     32  C   UNL     1       9.238  35.239  14.857  0.00  0.00    +0.024 A 
ATOM     33  C   UNL     1      10.399  35.056  14.023  0.00  0.00    +0.007 A 
ATOM     34  C   UNL     1      11.367  36.105  13.875  0.00  0.00    -0.029 A 
ATOM     35  C   UNL     1      12.590  35.856  12.962  0.00  0.00    +0.045 C 
ENDROOT
BRANCH  10   9
ATOM      4  C   UNL     1      12.959  41.175  12.315  0.00  0.00    +0.077 A 
ATOM      5  C   UNL     1      12.040  41.033  11.222  0.00  0.00    +0.048 A 
ATOM      6  C   UNL     1      11.121  39.962  11.282  0.00  0.00    +0.116 A 
ATOM      7  N   UNL     1      11.128  39.103  12.360  0.00  0.00    -0.223 NA
ATOM      8  C   UNL     1      12.028  39.267  13.397  0.00  0.00    +0.220 A 
ATOM      9  N   UNL     1      12.048  38.421  14.494  0.00  0.00    -0.283 N 
ATOM     36  H   UNL     1      12.733  38.571  15.235  0.00  0.00    +0.155 HD
ATOM     37  N   UNL     1      12.917  40.282  13.362  0.00  0.00    -0.214 NA
BRANCH   4   3
ATOM      1  C   UNL     1      16.362  43.103  12.274  0.00  0.00    +0.020 A 
ATOM      2  C   UNL     1      15.409  42.021  12.183  0.00  0.00    +0.013 A 
ATOM      3  C   UNL     1      13.988  42.260  12.399  0.00  0.00    +0.019 A 
ATOM     38  C   UNL     1      13.560  43.616  12.708  0.00  0.00    +0.120 A 
ATOM     39  N   UNL     1      14.500  44.638  12.791  0.00  0.00    -0.263 NA
ATOM     40  C   UNL     1      15.871  44.420  12.587  0.00  0.00    +0.111 A 
ENDBRANCH   4   3
ENDBRANCH  10   9
BRANCH  12  13
ATOM     13  N   UNL     1       7.825  36.572  16.364  0.00  0.00    -0.281 N 
ATOM     14  C   UNL     1       6.558  36.966  15.965  0.00  0.00    +0.248 C 
ATOM     30  O   UNL     1       6.304  37.491  14.891  0.00  0.00    -0.270 OA
ATOM     31  H   UNL     1       7.929  36.331  17.350  0.00  0.00    +0.155 HD
BRANCH  14  15
ATOM     15  C   UNL     1       5.410  36.761  16.900  0.00  0.00    +0.037 A 
ATOM     16  C   UNL     1       5.285  37.543  18.134  0.00  0.00    +0.013 A 
ATOM     17  C   UNL     1       4.177  37.313  19.026  0.00  0.00    +0.005 A 
ATOM     18  C   UNL     1       3.184  36.298  18.688  0.00  0.00    -0.033 A 
ATOM     28  C   UNL     1       3.329  35.540  17.456  0.00  0.00    +0.005 A 
ATOM     29  C   UNL     1       4.414  35.762  16.579  0.00  0.00    +0.013 A 
BRANCH  18  19
ATOM     19  C   UNL     1       1.980  35.971  19.592  0.00  0.00    +0.119 C 
BRANCH  19  20
ATOM     20  N   UNL     1       2.218  35.042  20.738  0.00  0.00    -0.302 NA
ATOM     21  C   UNL     1       2.112  33.574  20.318  0.00  0.00    +0.066 C 
ATOM     22  C   UNL     1       2.386  32.616  21.523  0.00  0.00    -0.064 C 
ATOM     23  N   UNL     1       1.403  32.929  22.653  0.00  0.00    +0.379 N 
ATOM     24  C   UNL     1       1.619  31.992  23.765  0.00  0.00    -0.096 C 
ATOM     25  H   UNL     1       0.373  32.757  22.261  0.00  0.00    -0.082 HD
ATOM     26  C   UNL     1       1.499  34.388  23.074  0.00  0.00    -0.064 C 
ATOM     27  C   UNL     1       1.255  35.331  21.863  0.00  0.00    +0.066 C 
ENDBRANCH  19  20
ENDBRANCH  18  19
ENDBRANCH  14  15
ENDBRANCH  12  13
TORSDOF 6
ENDMDL
MODEL 2
REMARK VINA RESULT:      -8.5      1.693      2.495
REMARK  Name = C:\Users\Docking\Desktop\test protocol\1iep_ligandH.pdb
REMARK  8 active torsions:
REMARK  status: ('A' for Active; 'I' for Inactive)
REMARK    1  A    between atoms: _5  and  _11
REMARK    2  A    between atoms: _19  and  _21
REMARK    3  A    between atoms: _22  and  _66
REMARK    4  A    between atoms: _27  and  _30
REMARK    5  A    between atoms: _32  and  _33
REMARK    6  A    between atoms: _38  and  _43
REMARK    7  A    between atoms: _43  and  _46
REMARK    8  A    between atoms: _53  and  _55
REMARK                            x       y       z     vdW  Elec       q    Type
REMARK                         _______ _______ _______ _____ _____    ______ ____
ROOT
ATOM     10  C   UNL     1      11.023  37.433  14.807  0.00  0.00    +0.038 A 
ATOM     11  C   UNL     1       9.875  37.634  15.615  0.00  0.00    +0.047 A 
ATOM     12  C   UNL     1       8.853  36.606  15.738  0.00  0.00    +0.035 A 
ATOM     32  C   UNL     1       9.034  35.385  15.026  0.00  0.00    +0.024 A 
ATOM     33  C   UNL     1      10.195  35.165  14.199  0.00  0.00    +0.007 A 
ATOM     34  C   UNL     1      11.205  36.176  14.072  0.00  0.00    -0.029 A 
ATOM     35  C   UNL     1      12.425  35.888  13.166  0.00  0.00    +0.045 C 
ENDROOT
BRANCH  10   9
ATOM      4  C   UNL     1      13.041  41.168  12.566  0.00  0.00    +0.077 A 
ATOM      5  C   UNL     1      12.144  41.059  11.451  0.00  0.00    +0.048 A 
ATOM      6  C   UNL     1      11.183  40.025  11.490  0.00  0.00    +0.116 A 
ATOM      7  N   UNL     1      11.131  39.168  12.569  0.00  0.00    -0.223 NA
ATOM      8  C   UNL     1      12.012  39.299  13.626  0.00  0.00    +0.220 A 
ATOM      9  N   UNL     1      11.973  38.454  14.725  0.00  0.00    -0.283 N 
ATOM     36  H   UNL     1      12.646  38.579  15.481  0.00  0.00    +0.155 HD
ATOM     37  N   UNL     1      12.941  40.278  13.612  0.00  0.00    -0.214 NA
BRANCH   4   3
ATOM      1  C   UNL     1      16.374  43.160  12.092  0.00  0.00    +0.020 A 
ATOM      2  C   UNL     1      15.375  42.125  11.954  0.00  0.00    +0.013 A 
ATOM      3  C   UNL     1      14.110  42.211  12.672  0.00  0.00    +0.019 A 
ATOM     38  C   UNL     1      13.884  43.367  13.527  0.00  0.00    +0.120 A 
ATOM     39  N   UNL     1      14.864  44.347  13.641  0.00  0.00    -0.263 NA
ATOM     40  C   UNL     1      16.087  44.274  12.957  0.00  0.00    +0.111 A 
ENDBRANCH   4   3
ENDBRANCH  10   9
BRANCH  12  13
ATOM     13  N   UNL     1       7.662  36.756  16.537  0.00  0.00    -0.281 N 
ATOM     14  C   UNL     1       6.374  37.024  16.103  0.00  0.00    +0.248 C 
ATOM     30  O   UNL     1       6.087  37.389  14.973  0.00  0.00    -0.270 OA
ATOM     31  H   UNL     1       7.784  36.652  17.544  0.00  0.00    +0.155 HD
BRANCH  14  15
ATOM     15  C   UNL     1       5.243  36.880  17.069  0.00  0.00    +0.037 A 
ATOM     16  C   UNL     1       5.127  37.752  18.241  0.00  0.00    +0.013 A 
ATOM     17  C   UNL     1       4.035  37.580  19.166  0.00  0.00    +0.005 A 
ATOM     18  C   UNL     1       3.048  36.531  18.922  0.00  0.00    -0.033 A 
ATOM     28  C   UNL     1       3.184  35.683  17.749  0.00  0.00    +0.005 A 
ATOM     29  C   UNL     1       4.253  35.848  16.841  0.00  0.00    +0.013 A 
BRANCH  18  19
ATOM     19  C   UNL     1       1.862  36.263  19.867  0.00  0.00    +0.119 C 
BRANCH  19  20
ATOM     20  N   UNL     1       1.339  37.419  20.653  0.00  0.00    -0.302 NA
ATOM     21  C   UNL     1       0.690  36.974  21.967  0.00  0.00    +0.066 C 
ATOM     22  C   UNL     1       0.168  38.199  22.787  0.00  0.00    -0.064 C 
ATOM     23  N   UNL     1      -0.823  38.995  21.936  0.00  0.00    +0.379 N 
ATOM     24  C   UNL     1      -1.359  40.113  22.725  0.00  0.00    -0.096 C 
ATOM     25  H   UNL     1      -1.673  38.318  21.686  0.00  0.00    -0.082 HD
ATOM     26  C   UNL     1      -0.186  39.439  20.627  0.00  0.00    -0.064 C 
ATOM     27  C   UNL     1       0.356  38.217  19.833  0.00  0.00    +0.066 C 
ENDBRANCH  19  20
ENDBRANCH  18  19
ENDBRANCH  14  15
ENDBRANCH  12  13
TORSDOF 6
ENDMDL
MODEL 3
REMARK VINA RESULT:      -8.4     22.227     25.459
REMARK  Name = C:\Users\Docking\Desktop\test protocol\1iep_ligandH.pdb
REMARK  8 active torsions:
REMARK  status: ('A' for Active; 'I' for Inactive)
REMARK    1  A    between atoms: _5  and  _11
REMARK    2  A    between atoms: _19  and  _21
REMARK    3  A    between atoms: _22  and  _66
REMARK    4  A    between atoms: _27  and  _30
REMARK    5  A    between atoms: _32  and  _33
REMARK    6  A    between atoms: _38  and  _43
REMARK    7  A    between atoms: _43  and  _46
REMARK    8  A    between atoms: _53  and  _55
REMARK                            x       y       z     vdW  Elec       q    Type
REMARK                         _______ _______ _______ _____ _____    ______ ____
ROOT
ATOM     10  C   UNL     1       1.128  30.399  -8.290  0.00  0.00    +0.038 A 
ATOM     11  C   UNL     1       2.053  30.405  -7.215  0.00  0.00    +0.047 A 
ATOM     12  C   UNL     1       3.156  29.458  -7.166  0.00  0.00    +0.035 A 
ATOM     32  C   UNL     1       3.288  28.519  -8.231  0.00  0.00    +0.024 A 
ATOM     33  C   UNL     1       2.356  28.499  -9.331  0.00  0.00    +0.007 A 
ATOM     34  C   UNL     1       1.265  29.429  -9.383  0.00  0.00    -0.029 A 
ATOM     35  C   UNL     1       0.292  29.357 -10.583  0.00  0.00    +0.045 C 
ENDROOT
BRANCH  10   9
ATOM      4  C   UNL     1      -3.340  31.750  -7.172  0.00  0.00    +0.077 A 
ATOM      5  C   UNL     1      -3.636  30.483  -6.569  0.00  0.00    +0.048 A 
ATOM      6  C   UNL     1      -2.614  29.508  -6.574  0.00  0.00    +0.116 A 
ATOM      7  N   UNL     1      -1.390  29.790  -7.141  0.00  0.00    -0.223 NA
ATOM      8  C   UNL     1      -1.138  31.022  -7.716  0.00  0.00    +0.220 A 
ATOM      9  N   UNL     1       0.087  31.331  -8.286  0.00  0.00    -0.283 N 
ATOM     36  H   UNL     1       0.231  32.249  -8.706  0.00  0.00    +0.155 HD
ATOM     37  N   UNL     1      -2.099  31.970  -7.726  0.00  0.00    -0.214 NA
BRANCH   4   3
ATOM      1  C   UNL     1      -5.303  35.042  -6.387  0.00  0.00    +0.020 A 
ATOM      2  C   UNL     1      -4.340  33.971  -6.273  0.00  0.00    +0.013 A 
ATOM      3  C   UNL     1      -4.316  32.884  -7.243  0.00  0.00    +0.019 A 
ATOM     38  C   UNL     1      -5.288  32.911  -8.326  0.00  0.00    +0.120 A 
ATOM     39  N   UNL     1      -6.205  33.954  -8.409  0.00  0.00    -0.263 NA
ATOM     40  C   UNL     1      -6.238  35.005  -7.480  0.00  0.00    +0.111 A 
ENDBRANCH   4   3
ENDBRANCH  10   9
BRANCH  12  13
ATOM     13  N   UNL     1       4.121  29.411  -6.096  0.00  0.00    -0.281 N 
ATOM     14  C   UNL     1       3.880  29.335  -4.734  0.00  0.00    +0.248 C 
ATOM     30  O   UNL     1       2.788  29.513  -4.215  0.00  0.00    -0.270 OA
ATOM     31  H   UNL     1       5.101  29.436  -6.377  0.00  0.00    +0.155 HD
BRANCH  14  15
ATOM     15  C   UNL     1       5.019  29.033  -3.815  0.00  0.00    +0.037 A 
ATOM     16  C   UNL     1       5.502  30.026  -2.851  0.00  0.00    +0.013 A 
ATOM     17  C   UNL     1       6.613  29.714  -1.988  0.00  0.00    +0.005 A 
ATOM     18  C   UNL     1       7.249  28.402  -2.083  0.00  0.00    -0.033 A 
ATOM     28  C   UNL     1       6.746  27.435  -3.044  0.00  0.00    +0.005 A 
ATOM     29  C   UNL     1       5.658  27.737  -3.893  0.00  0.00    +0.013 A 
BRANCH  18  19
ATOM     19  C   UNL     1       8.454  27.991  -1.216  0.00  0.00    +0.119 C 
BRANCH  19  20
ATOM     20  N   UNL     1       8.571  26.549  -0.848  0.00  0.00    -0.302 NA
ATOM     21  C   UNL     1       7.602  26.162   0.273  0.00  0.00    +0.066 C 
ATOM     22  C   UNL     1       7.722  24.645   0.631  0.00  0.00    -0.064 C 
ATOM     23  N   UNL     1       9.165  24.330   1.029  0.00  0.00    +0.379 N 
ATOM     24  C   UNL     1       9.268  22.917   1.422  0.00  0.00    -0.096 C 
ATOM     25  H   UNL     1       9.411  24.949   1.923  0.00  0.00    -0.082 HD
ATOM     26  C   UNL     1      10.135  24.714  -0.079  0.00  0.00    -0.064 C 
ATOM     27  C   UNL     1       9.987  26.217  -0.447  0.00  0.00    +0.066 C 
ENDBRANCH  19  20
ENDBRANCH  18  19
ENDBRANCH  14  15
ENDBRANCH  12  13
TORSDOF 6
ENDMDL
