MODEL 1
REMARK VINA RESULT:      -9.4      0.000      0.000
REMARK  Name = C:\Users\Docking\Desktop\test protocol\1iep_ligandH.pdb
REMARK  8 active torsions:
REMARK  status: ('A' for Active; 'I' for Inactive)
REMARK    1  A    between atoms: _5  and  _11
REMARK    2  A    between atoms: _19  and  _21
REMARK    3  A    between atoms: _22  and  _66
REMARK    4  A    between atoms: _27  and  _30
REMARK    5  A    between atoms: _32  and  _33
REMARK    6  A    between atoms: _38  and  _43
REMARK    7  A    between atoms: _43  and  _46
REMARK    8  A    between atoms: _53  and  _55
REMARK                            x       y       z     vdW  Elec       q    Type
REMARK                         _______ _______ _______ _____ _____    ______ ____
ROOT
ATOM     10  C   UNL     1      34.061  20.023  40.433  0.00  0.00    +0.038 A 
ATOM     11  C   UNL     1      34.800  19.792  41.621  0.00  0.00    +0.047 A 
ATOM     12  C   UNL     1      34.552  20.570  42.825  0.00  0.00    +0.035 A 
ATOM     32  C   UNL     1      33.542  21.574  42.783  0.00  0.00    +0.024 A 
ATOM     33  C   UNL     1      32.782  21.823  41.584  0.00  0.00    +0.007 A 
ATOM     34  C   UNL     1      33.023  21.061  40.393  0.00  0.00    -0.029 A 
ATOM     35  C   UNL     1      32.183  21.375  39.133  0.00  0.00    +0.045 C 
ENDROOT
BRANCH  10   9
ATOM      4  C   UNL     1      37.005  17.307  37.788  0.00  0.00    +0.077 A 
ATOM      5  C   UNL     1      38.086  17.471  38.716  0.00  0.00    +0.048 A 
ATOM      6  C   UNL     1      37.846  18.268  39.858  0.00  0.00    +0.116 A 
ATOM      7  N   UNL     1      36.612  18.852  40.047  0.00  0.00    -0.223 NA
ATOM      8  C   UNL     1      35.591  18.675  39.132  0.00  0.00    +0.220 A 
ATOM      9  N   UNL     1      34.340  19.246  39.306  0.00  0.00    -0.283 N 
ATOM     36  H   UNL     1      33.616  19.097  38.604  0.00  0.00    +0.155 HD
ATOM     37  N   UNL     1      35.796  17.919  38.033  0.00  0.00    -0.214 NA
BRANCH   4   3
ATOM      1  C   UNL     1      36.237  15.724  34.295  0.00  0.00    +0.020 A 
ATOM      2  C   UNL     1      36.094  16.531  35.484  0.00  0.00    +0.013 A 
ATOM      3  C   UNL     1      37.102  16.491  36.536  0.00  0.00    +0.019 A 
ATOM     38  C   UNL     1      38.252  15.618  36.351  0.00  0.00    +0.120 A 
ATOM     39  N   UNL     1      38.361  14.851  35.196  0.00  0.00    -0.263 NA
ATOM     40  C   UNL     1      37.397  14.880  34.178  0.00  0.00    +0.111 A 
ENDBRANCH   4   3
ENDBRANCH  10   9
BRANCH  12  13
ATOM     13  N   UNL     1      35.276  20.386  44.058  0.00  0.00    -0.281 N 
ATOM     14  C   UNL     1      36.032  21.318  44.749  0.00  0.00    +0.248 C 
ATOM     30  O   UNL     1      36.377  22.400  44.297  0.00  0.00    -0.270 OA
ATOM     31  H   UNL     1      35.225  19.454  44.471  0.00  0.00    +0.155 HD
BRANCH  14  15
ATOM     15  C   UNL     1      36.482  20.997  46.137  0.00  0.00    +0.037 A 
ATOM     16  C   UNL     1      37.834  20.496  46.401  0.00  0.00    +0.013 A 
ATOM     17  C   UNL     1      38.237  20.178  47.748  0.00  0.00    +0.005 A 
ATOM     18  C   UNL     1      37.287  20.360  48.842  0.00  0.00    -0.033 A 
ATOM     28  C   UNL     1      35.954  20.863  48.553  0.00  0.00    +0.005 A 
ATOM     29  C   UNL     1      35.555  21.176  47.234  0.00  0.00    +0.013 A 
BRANCH  18  19
ATOM     19  C   UNL     1      37.624  20.026  50.307  0.00  0.00    +0.119 C 
BRANCH  19  20
ATOM     20  N   UNL     1      36.754  19.028  50.999  0.00  0.00    -0.302 NA
ATOM     21  C   UNL     1      36.749  19.225  52.517  0.00  0.00    +0.066 C 
ATOM     22  C   UNL     1      35.816  18.187  53.223  0.00  0.00    -0.064 C 
ATOM     23  N   UNL     1      36.268  16.771  52.861  0.00  0.00    +0.379 N 
ATOM     24  C   UNL     1      35.429  15.793  53.569  0.00  0.00    -0.096 C 
ATOM     25  H   UNL     1      37.314  16.647  53.226  0.00  0.00    -0.082 HD
ATOM     26  C   UNL     1      36.278  16.568  51.353  0.00  0.00    -0.064 C 
ATOM     27  C   UNL     1      37.185  17.623  50.659  0.00  0.00    +0.066 C 
ENDBRANCH  19  20
ENDBRANCH  18  19
ENDBRANCH  14  15
ENDBRANCH  12  13
TORSDOF 6
ENDMDL
MODEL 2
REMARK VINA RESULT:      -9.1      5.474      6.935
REMARK  Name = C:\Users\Docking\Desktop\test protocol\1iep_ligandH.pdb
REMARK  8 active torsions:
REMARK  status: ('A' for Active; 'I' for Inactive)
REMARK    1  A    between atoms: _5  and  _11
REMARK    2  A    between atoms: _19  and  _21
REMARK    3  A    between atoms: _22  and  _66
REMARK    4  A    between atoms: _27  and  _30
REMARK    5  A    between atoms: _32  and  _33
REMARK    6  A    between atoms: _38  and  _43
REMARK    7  A    between atoms: _43  and  _46
REMARK    8  A    between atoms: _53  and  _55
REMARK                            x       y       z     vdW  Elec       q    Type
REMARK                         _______ _______ _______ _____ _____    ______ ____
ROOT
ATOM     10  C   UNL     1      38.386  19.059  42.809  0.00  0.00    +0.038 A 
ATOM     11  C   UNL     1      38.911  19.597  44.012  0.00  0.00    +0.047 A 
ATOM     12  C   UNL     1      38.133  20.517  44.827  0.00  0.00    +0.035 A 
ATOM     32  C   UNL     1      36.823  20.867  44.387  0.00  0.00    +0.024 A 
ATOM     33  C   UNL     1      36.275  20.331  43.166  0.00  0.00    +0.007 A 
ATOM     34  C   UNL     1      37.038  19.425  42.357  0.00  0.00    -0.029 A 
ATOM     35  C   UNL     1      36.402  18.886  41.055  0.00  0.00    +0.045 C 
ENDROOT
BRANCH  10   9
ATOM      4  C   UNL     1      41.425  15.360  42.463  0.00  0.00    +0.077 A 
ATOM      5  C   UNL     1      41.463  15.182  43.886  0.00  0.00    +0.048 A 
ATOM      6  C   UNL     1      40.692  16.068  44.672  0.00  0.00    +0.116 A 
ATOM      7  N   UNL     1      39.942  17.054  44.069  0.00  0.00    -0.223 NA
ATOM      8  C   UNL     1      39.929  17.200  42.694  0.00  0.00    +0.220 A 
ATOM      9  N   UNL     1      39.176  18.179  42.065  0.00  0.00    -0.283 N 
ATOM     36  H   UNL     1      39.199  18.259  41.049  0.00  0.00    +0.155 HD
ATOM     37  N   UNL     1      40.658  16.367  41.921  0.00  0.00    -0.214 NA
BRANCH   4   3
ATOM      1  C   UNL     1      42.436  12.451  40.052  0.00  0.00    +0.020 A 
ATOM      2  C   UNL     1      41.663  13.242  40.982  0.00  0.00    +0.013 A 
ATOM      3  C   UNL     1      42.183  14.501  41.499  0.00  0.00    +0.019 A 
ATOM     38  C   UNL     1      43.498  14.935  41.052  0.00  0.00    +0.120 A 
ATOM     39  N   UNL     1      44.220  14.152  40.157  0.00  0.00    -0.263 NA
ATOM     40  C   UNL     1      43.730  12.937  39.654  0.00  0.00    +0.111 A 
ENDBRANCH   4   3
ENDBRANCH  10   9
BRANCH  12  13
ATOM     13  N   UNL     1      38.617  21.101  46.053  0.00  0.00    -0.281 N 
ATOM     14  C   UNL     1      38.293  20.744  47.352  0.00  0.00    +0.248 C 
ATOM     30  O   UNL     1      37.369  20.004  47.655  0.00  0.00    -0.270 OA
ATOM     31  H   UNL     1      39.278  21.871  45.952  0.00  0.00    +0.155 HD
BRANCH  14  15
ATOM     15  C   UNL     1      39.103  21.301  48.477  0.00  0.00    +0.037 A 
ATOM     16  C   UNL     1      39.409  22.732  48.558  0.00  0.00    +0.013 A 
ATOM     17  C   UNL     1      40.207  23.240  49.645  0.00  0.00    +0.005 A 
ATOM     18  C   UNL     1      40.704  22.316  50.662  0.00  0.00    -0.033 A 
ATOM     28  C   UNL     1      40.381  20.903  50.561  0.00  0.00    +0.005 A 
ATOM     29  C   UNL     1      39.600  20.401  49.496  0.00  0.00    +0.013 A 
BRANCH  18  19
ATOM     19  C   UNL     1      41.580  22.768  51.846  0.00  0.00    +0.119 C 
BRANCH  19  20
ATOM     20  N   UNL     1      43.027  23.013  51.571  0.00  0.00    -0.302 NA
ATOM     21  C   UNL     1      43.931  22.061  52.358  0.00  0.00    +0.066 C 
ATOM     22  C   UNL     1      45.441  22.316  52.041  0.00  0.00    -0.064 C 
ATOM     23  N   UNL     1      45.785  23.773  52.355  0.00  0.00    +0.379 N 
ATOM     24  C   UNL     1      47.217  24.002  52.113  0.00  0.00    -0.096 C 
ATOM     25  H   UNL     1      45.595  23.939  53.441  0.00  0.00    -0.082 HD
ATOM     26  C   UNL     1      44.889  24.727  51.578  0.00  0.00    -0.064 C 
ATOM     27  C   UNL     1      43.390  24.445  51.878  0.00  0.00    +0.066 C 
ENDBRANCH  19  20
ENDBRANCH  18  19
ENDBRANCH  14  15
ENDBRANCH  12  13
TORSDOF 6
ENDMDL
MODEL 3
REMARK VINA RESULT:      -8.9      5.753      8.682
REMARK  Name = C:\Users\Docking\Desktop\test protocol\1iep_ligandH.pdb
REMARK  8 active torsions:
REMARK  status: ('A' for Active; 'I' for Inactive)
REMARK    1  A    between atoms: _5  and  _11
REMARK    2  A    between atoms: _19  and  _21
REMARK    3  A    between atoms: _22  and  _66
REMARK    4  A    between atoms: _27  and  _30
REMARK    5  A    between atoms: _32  and  _33
REMARK    6  A    between atoms: _38  and  _43
REMARK    7  A    between atoms: _43  and  _46
REMARK    8  A    between atoms: _53  and  _55
REMARK                            x       y       z     vdW  Elec       q    Type
REMARK                         _______ _______ _______ _____ _____    ______ ____
ROOT
ATOM     10  C   UNL     1      36.361  16.793  37.927  0.00  0.00    +0.038 A 
ATOM     11  C   UNL     1      35.981  17.891  38.740  0.00  0.00    +0.047 A 
ATOM     12  C   UNL     1      34.782  18.662  38.451  0.00  0.00    +0.035 A 
ATOM     32  C   UNL     1      33.991  18.286  37.327  0.00  0.00    +0.024 A 
ATOM     33  C   UNL     1      34.363  17.173  36.489  0.00  0.00    +0.007 A 
ATOM     34  C   UNL     1      35.545  16.410  36.768  0.00  0.00    -0.029 A 
ATOM     35  C   UNL     1      35.899  15.231  35.831  0.00  0.00    +0.045 C 
ENDROOT
BRANCH  10   9
ATOM      4  C   UNL     1      40.152  15.944  40.745  0.00  0.00    +0.077 A 
ATOM      5  C   UNL     1      39.805  17.015  41.635  0.00  0.00    +0.048 A 
ATOM      6  C   UNL     1      38.648  17.765  41.327  0.00  0.00    +0.116 A 
ATOM      7  N   UNL     1      37.900  17.457  40.211  0.00  0.00    -0.223 NA
ATOM      8  C   UNL     1      38.263  16.419  39.373  0.00  0.00    +0.220 A 
ATOM      9  N   UNL     1      37.522  16.087  38.250  0.00  0.00    -0.283 N 
ATOM     36  H   UNL     1      37.827  15.318  37.653  0.00  0.00    +0.155 HD
ATOM     37  N   UNL     1      39.365  15.689  39.645  0.00  0.00    -0.214 NA
BRANCH   4   3
ATOM      1  C   UNL     1      43.829  14.663  41.113  0.00  0.00    +0.020 A 
ATOM      2  C   UNL     1      42.713  15.560  40.922  0.00  0.00    +0.013 A 
ATOM      3  C   UNL     1      41.344  15.059  40.938  0.00  0.00    +0.019 A 
ATOM     38  C   UNL     1      41.138  13.635  41.152  0.00  0.00    +0.120 A 
ATOM     39  N   UNL     1      42.232  12.795  41.331  0.00  0.00    -0.263 NA
ATOM     40  C   UNL     1      43.554  13.265  41.317  0.00  0.00    +0.111 A 
ENDBRANCH   4   3
ENDBRANCH  10   9
BRANCH  12  13
ATOM     13  N   UNL     1      34.352  19.792  39.237  0.00  0.00    -0.281 N 
ATOM     14  C   UNL     1      33.962  19.807  40.566  0.00  0.00    +0.248 C 
ATOM     30  O   UNL     1      33.721  18.807  41.226  0.00  0.00    -0.270 OA
ATOM     31  H   UNL     1      34.331  20.691  38.754  0.00  0.00    +0.155 HD
BRANCH  14  15
ATOM     15  C   UNL     1      33.805  21.122  41.259  0.00  0.00    +0.037 A 
ATOM     16  C   UNL     1      34.385  21.357  42.583  0.00  0.00    +0.013 A 
ATOM     17  C   UNL     1      34.204  22.630  43.236  0.00  0.00    +0.005 A 
ATOM     18  C   UNL     1      33.440  23.678  42.563  0.00  0.00    -0.033 A 
ATOM     28  C   UNL     1      32.880  23.419  41.247  0.00  0.00    +0.005 A 
ATOM     29  C   UNL     1      33.054  22.172  40.605  0.00  0.00    +0.013 A 
BRANCH  18  19
ATOM     19  C   UNL     1      33.179  25.058  43.194  0.00  0.00    +0.119 C 
BRANCH  19  20
ATOM     20  N   UNL     1      33.827  26.238  42.549  0.00  0.00    -0.302 NA
ATOM     21  C   UNL     1      33.023  26.753  41.352  0.00  0.00    +0.066 C 
ATOM     22  C   UNL     1      33.704  28.002  40.703  0.00  0.00    -0.064 C 
ATOM     23  N   UNL     1      35.130  27.641  40.283  0.00  0.00    +0.379 N 
ATOM     24  C   UNL     1      35.754  28.795  39.620  0.00  0.00    -0.096 C 
ATOM     25  H   UNL     1      35.063  26.817  39.535  0.00  0.00    -0.082 HD
ATOM     26  C   UNL     1      35.936  27.125  41.467  0.00  0.00    -0.064 C 
ATOM     27  C   UNL     1      35.235  25.902  42.122  0.00  0.00    +0.066 C 
ENDBRANCH  19  20
ENDBRANCH  18  19
ENDBRANCH  14  15
ENDBRANCH  12  13
TORSDOF 6
ENDMDL
MODEL 4
REMARK VINA RESULT:      -8.9      6.325     12.107
REMARK  Name = C:\Users\Docking\Desktop\test protocol\1iep_ligandH.pdb
REMARK  8 active torsions:
REMARK  status: ('A' for Active; 'I' for Inactive)
REMARK    1  A    between atoms: _5  and  _11
REMARK    2  A    between atoms: _19  and  _21
REMARK    3  A    between atoms: _22  and  _66
REMARK    4  A    between atoms: _27  and  _30
REMARK    5  A    between atoms: _32  and  _33
REMARK    6  A    between atoms: _38  and  _43
REMARK    7  A    between atoms: _43  and  _46
REMARK    8  A    between atoms: _53  and  _55
REMARK                            x       y       z     vdW  Elec       q    Type
REMARK                         _______ _______ _______ _____ _____    ______ ____
ROOT
ATOM     10  C   UNL     1      33.568  25.708  42.390  0.00  0.00    +0.038 A 
ATOM     11  C   UNL     1      33.667  24.573  41.544  0.00  0.00    +0.047 A 
ATOM     12  C   UNL     1      33.121  23.286  41.945  0.00  0.00    +0.035 A 
ATOM     32  C   UNL     1      32.477  23.191  43.213  0.00  0.00    +0.024 A 
ATOM     33  C   UNL     1      32.369  24.333  44.086  0.00  0.00    +0.007 A 
ATOM     34  C   UNL     1      32.908  25.605  43.697  0.00  0.00    -0.029 A 
ATOM     35  C   UNL     1      32.768  26.795  44.675  0.00  0.00    +0.045 C 
ENDROOT
BRANCH  10   9
ATOM      4  C   UNL     1      33.494  29.624  39.615  0.00  0.00    +0.077 A 
ATOM      5  C   UNL     1      32.288  29.208  38.959  0.00  0.00    +0.048 A 
ATOM      6  C   UNL     1      31.723  27.977  39.359  0.00  0.00    +0.116 A 
ATOM      7  N   UNL     1      32.326  27.226  40.344  0.00  0.00    -0.223 NA
ATOM      8  C   UNL     1      33.490  27.655  40.956  0.00  0.00    +0.220 A 
ATOM      9  N   UNL     1      34.110  26.919  41.954  0.00  0.00    -0.283 N 
ATOM     36  H   UNL     1      34.971  27.267  42.376  0.00  0.00    +0.155 HD
ATOM     37  N   UNL     1      34.050  28.826  40.590  0.00  0.00    -0.214 NA
BRANCH   4   3
ATOM      1  C   UNL     1      34.269  33.294  38.506  0.00  0.00    +0.020 A 
ATOM      2  C   UNL     1      33.532  32.084  38.789  0.00  0.00    +0.013 A 
ATOM      3  C   UNL     1      34.210  30.902  39.305  0.00  0.00    +0.019 A 
ATOM     38  C   UNL     1      35.646  30.977  39.526  0.00  0.00    +0.120 A 
ATOM     39  N   UNL     1      36.330  32.155  39.243  0.00  0.00    -0.263 NA
ATOM     40  C   UNL     1      35.688  33.299  38.745  0.00  0.00    +0.111 A 
ENDBRANCH   4   3
ENDBRANCH  10   9
BRANCH  12  13
ATOM     13  N   UNL     1      33.198  22.098  41.132  0.00  0.00    -0.281 N 
ATOM     14  C   UNL     1      32.698  21.905  39.855  0.00  0.00    +0.248 C 
ATOM     30  O   UNL     1      31.917  22.662  39.297  0.00  0.00    -0.270 OA
ATOM     31  H   UNL     1      33.681  21.301  41.549  0.00  0.00    +0.155 HD
BRANCH  14  15
ATOM     15  C   UNL     1      33.115  20.690  39.092  0.00  0.00    +0.037 A 
ATOM     16  C   UNL     1      34.186  19.817  39.578  0.00  0.00    +0.013 A 
ATOM     17  C   UNL     1      34.580  18.660  38.814  0.00  0.00    +0.005 A 
ATOM     18  C   UNL     1      33.899  18.368  37.555  0.00  0.00    -0.033 A 
ATOM     28  C   UNL     1      32.836  19.248  37.098  0.00  0.00    +0.005 A 
ATOM     29  C   UNL     1      32.449  20.383  37.844  0.00  0.00    +0.013 A 
BRANCH  18  19
ATOM     19  C   UNL     1      34.268  17.167  36.664  0.00  0.00    +0.119 C 
BRANCH  19  20
ATOM     20  N   UNL     1      35.648  16.613  36.800  0.00  0.00    -0.302 NA
ATOM     21  C   UNL     1      36.192  16.091  35.467  0.00  0.00    +0.066 C 
ATOM     22  C   UNL     1      37.645  15.536  35.622  0.00  0.00    -0.064 C 
ATOM     23  N   UNL     1      37.655  14.432  36.681  0.00  0.00    +0.379 N 
ATOM     24  C   UNL     1      39.009  13.868  36.789  0.00  0.00    -0.096 C 
ATOM     25  H   UNL     1      36.977  13.620  36.329  0.00  0.00    -0.082 HD
ATOM     26  C   UNL     1      37.114  14.942  38.009  0.00  0.00    -0.064 C 
ATOM     27  C   UNL     1      35.681  15.518  37.837  0.00  0.00    +0.066 C 
ENDBRANCH  19  20
ENDBRANCH  18  19
ENDBRANCH  14  15
ENDBRANCH  12  13
TORSDOF 6
ENDMDL
MODEL 5
REMARK VINA RESULT:      -8.8      5.975      9.292
REMARK  Name = C:\Users\Docking\Desktop\test protocol\1iep_ligandH.pdb
REMARK  8 active torsions:
REMARK  status: ('A' for Active; 'I' for Inactive)
REMARK    1  A    between atoms: _5  and  _11
REMARK    2  A    between atoms: _19  and  _21
REMARK    3  A    between atoms: _22  and  _66
REMARK    4  A    between atoms: _27  and  _30
REMARK    5  A    between atoms: _32  and  _33
REMARK    6  A    between atoms: _38  and  _43
REMARK    7  A    between atoms: _43  and  _46
REMARK    8  A    between atoms: _53  and  _55
REMARK                            x       y       z     vdW  Elec       q    Type
REMARK                         _______ _______ _______ _____ _____    ______ ____
ROOT
ATOM     10  C   UNL     1      35.357  17.796  38.119  0.00  0.00    +0.038 A 
ATOM     11  C   UNL     1      35.105  19.029  38.773  0.00  0.00    +0.047 A 
ATOM     12  C   UNL     1      33.947  19.839  38.431  0.00  0.00    +0.035 A 
ATOM     32  C   UNL     1      33.063  19.362  37.419  0.00  0.00    +0.024 A 
ATOM     33  C   UNL     1      33.305  18.111  36.743  0.00  0.00    +0.007 A 
ATOM     34  C   UNL     1      34.447  17.309  37.074  0.00  0.00    -0.029 A 
ATOM     35  C   UNL     1      34.660  15.980  36.313  0.00  0.00    +0.045 C 
ENDROOT
BRANCH  10   9
ATOM      4  C   UNL     1      39.113  16.953  40.985  0.00  0.00    +0.077 A 
ATOM      5  C   UNL     1      38.820  18.095  41.803  0.00  0.00    +0.048 A 
ATOM      6  C   UNL     1      37.699  18.877  41.448  0.00  0.00    +0.116 A 
ATOM      7  N   UNL     1      36.933  18.533  40.355  0.00  0.00    -0.223 NA
ATOM      8  C   UNL     1      37.245  17.427  39.586  0.00  0.00    +0.220 A 
ATOM      9  N   UNL     1      36.485  17.058  38.487  0.00  0.00    -0.283 N 
ATOM     36  H   UNL     1      36.752  16.239  37.941  0.00  0.00    +0.155 HD
ATOM     37  N   UNL     1      38.312  16.665  39.903  0.00  0.00    -0.214 NA
BRANCH   4   3
ATOM      1  C   UNL     1      41.640  13.980  40.708  0.00  0.00    +0.020 A 
ATOM      2  C   UNL     1      40.514  14.841  40.426  0.00  0.00    +0.013 A 
ATOM      3  C   UNL     1      40.263  16.027  41.234  0.00  0.00    +0.019 A 
ATOM     38  C   UNL     1      41.178  16.317  42.329  0.00  0.00    +0.120 A 
ATOM     39  N   UNL     1      42.252  15.469  42.578  0.00  0.00    -0.263 NA
ATOM     40  C   UNL     1      42.503  14.323  41.808  0.00  0.00    +0.111 A 
ENDBRANCH   4   3
ENDBRANCH  10   9
BRANCH  12  13
ATOM     13  N   UNL     1      33.644  21.103  39.055  0.00  0.00    -0.281 N 
ATOM     14  C   UNL     1      33.249  21.334  40.363  0.00  0.00    +0.248 C 
ATOM     30  O   UNL     1      32.887  20.463  41.140  0.00  0.00    -0.270 OA
ATOM     31  H   UNL     1      33.732  21.928  38.461  0.00  0.00    +0.155 HD
BRANCH  14  15
ATOM     15  C   UNL     1      33.240  22.737  40.877  0.00  0.00    +0.037 A 
ATOM     16  C   UNL     1      33.624  23.043  42.257  0.00  0.00    +0.013 A 
ATOM     17  C   UNL     1      33.591  24.403  42.733  0.00  0.00    +0.005 A 
ATOM     18  C   UNL     1      33.172  25.469  41.826  0.00  0.00    -0.033 A 
ATOM     28  C   UNL     1      32.801  25.138  40.460  0.00  0.00    +0.005 A 
ATOM     29  C   UNL     1      32.832  23.806  39.990  0.00  0.00    +0.013 A 
BRANCH  18  19
ATOM     19  C   UNL     1      33.086  26.946  42.254  0.00  0.00    +0.119 C 
BRANCH  19  20
ATOM     20  N   UNL     1      33.608  27.967  41.297  0.00  0.00    -0.302 NA
ATOM     21  C   UNL     1      35.116  27.824  41.071  0.00  0.00    +0.066 C 
ATOM     22  C   UNL     1      35.641  28.885  40.050  0.00  0.00    -0.064 C 
ATOM     23  N   UNL     1      35.300  30.288  40.556  0.00  0.00    +0.379 N 
ATOM     24  C   UNL     1      35.843  31.290  39.627  0.00  0.00    -0.096 C 
ATOM     25  H   UNL     1      35.808  30.426  41.538  0.00  0.00    -0.082 HD
ATOM     26  C   UNL     1      33.803  30.438  40.786  0.00  0.00    -0.064 C 
ATOM     27  C   UNL     1      33.286  29.360  41.779  0.00  0.00    +0.066 C 
ENDBRANCH  19  20
ENDBRANCH  18  19
ENDBRANCH  14  15
ENDBRANCH  12  13
TORSDOF 6
ENDMDL
