MODEL 1
REMARK VINA RESULT:      -7.8      0.000      0.000
REMARK  Name = C:\Users\Docking\Desktop\test protocol\1iep_ligandH.pdb
REMARK  8 active torsions:
REMARK  status: ('A' for Active; 'I' for Inactive)
REMARK    1  A    between atoms: _5  and  _11
REMARK    2  A    between atoms: _19  and  _21
REMARK    3  A    between atoms: _22  and  _66
REMARK    4  A    between atoms: _27  and  _30
REMARK    5  A    between atoms: _32  and  _33
REMARK    6  A    between atoms: _38  and  _43
REMARK    7  A    between atoms: _43  and  _46
REMARK    8  A    between atoms: _53  and  _55
REMARK                            x       y       z     vdW  Elec       q    Type
REMARK                         _______ _______ _______ _____ _____    ______ ____
ROOT
ATOM     10  C   UNL     1      44.532   8.005  46.543  0.00  0.00    +0.038 A 
ATOM     11  C   UNL     1      43.428   7.486  45.819  0.00  0.00    +0.047 A 
ATOM     12  C   UNL     1      43.503   6.193  45.157  0.00  0.00    +0.035 A 
ATOM     32  C   UNL     1      44.717   5.453  45.255  0.00  0.00    +0.024 A 
ATOM     33  C   UNL     1      45.850   5.966  45.986  0.00  0.00    +0.007 A 
ATOM     34  C   UNL     1      45.783   7.242  46.638  0.00  0.00    -0.029 A 
ATOM     35  C   UNL     1      47.030   7.745  47.402  0.00  0.00    +0.045 C 
ENDROOT
BRANCH  10   9
ATOM      4  C   UNL     1      44.770  12.798  46.485  0.00  0.00    +0.077 A 
ATOM      5  C   UNL     1      45.209  12.819  45.119  0.00  0.00    +0.048 A 
ATOM      6  C   UNL     1      45.369  11.574  44.470  0.00  0.00    +0.116 A 
ATOM      7  N   UNL     1      45.105  10.403  45.146  0.00  0.00    -0.223 NA
ATOM      8  C   UNL     1      44.684  10.418  46.463  0.00  0.00    +0.220 A 
ATOM      9  N   UNL     1      44.406   9.252  47.159  0.00  0.00    -0.283 N 
ATOM     36  H   UNL     1      44.105   9.305  48.132  0.00  0.00    +0.155 HD
ATOM     37  N   UNL     1      44.526  11.594  47.105  0.00  0.00    -0.214 NA
BRANCH   4   3
ATOM      1  C   UNL     1      43.302  16.150  47.869  0.00  0.00    +0.020 A 
ATOM      2  C   UNL     1      43.469  14.974  47.047  0.00  0.00    +0.013 A 
ATOM      3  C   UNL     1      44.551  14.032  47.305  0.00  0.00    +0.019 A 
ATOM     38  C   UNL     1      45.453  14.311  48.412  0.00  0.00    +0.120 A 
ATOM     39  N   UNL     1      45.269  15.452  49.186  0.00  0.00    -0.263 NA
ATOM     40  C   UNL     1      44.232  16.367  48.946  0.00  0.00    +0.111 A 
ENDBRANCH   4   3
ENDBRANCH  10   9
BRANCH  12  13
ATOM     13  N   UNL     1      42.417   5.619  44.401  0.00  0.00    -0.281 N 
ATOM     14  C   UNL     1      41.138   5.321  44.841  0.00  0.00    +0.248 C 
ATOM     30  O   UNL     1      40.796   5.306  46.014  0.00  0.00    -0.270 OA
ATOM     31  H   UNL     1      42.616   5.406  43.424  0.00  0.00    +0.155 HD
BRANCH  14  15
ATOM     15  C   UNL     1      40.090   4.977  43.832  0.00  0.00    +0.037 A 
ATOM     16  C   UNL     1      38.743   4.571  44.244  0.00  0.00    +0.013 A 
ATOM     17  C   UNL     1      37.757   4.228  43.251  0.00  0.00    +0.005 A 
ATOM     18  C   UNL     1      38.113   4.289  41.835  0.00  0.00    -0.033 A 
ATOM     28  C   UNL     1      39.455   4.700  41.455  0.00  0.00    +0.005 A 
ATOM     29  C   UNL     1      40.425   5.036  42.425  0.00  0.00    +0.013 A 
BRANCH  18  19
ATOM     19  C   UNL     1      37.130   3.920  40.708  0.00  0.00    +0.119 C 
BRANCH  19  20
ATOM     20  N   UNL     1      37.601   2.939  39.685  0.00  0.00    -0.302 NA
ATOM     21  C   UNL     1      37.864   3.604  38.331  0.00  0.00    +0.066 C 
ATOM     22  C   UNL     1      38.377   2.568  37.278  0.00  0.00    -0.064 C 
ATOM     23  N   UNL     1      37.355   1.438  37.138  0.00  0.00    +0.379 N 
ATOM     24  C   UNL     1      37.807   0.493  36.107  0.00  0.00    -0.096 C 
ATOM     25  H   UNL     1      36.398   1.890  36.787  0.00  0.00    -0.082 HD
ATOM     26  C   UNL     1      37.085   0.774  38.481  0.00  0.00    -0.064 C 
ATOM     27  C   UNL     1      36.604   1.817  39.527  0.00  0.00    +0.066 C 
ENDBRANCH  19  20
ENDBRANCH  18  19
ENDBRANCH  14  15
ENDBRANCH  12  13
TORSDOF 6
ENDMDL
MODEL 2
REMARK VINA RESULT:      -7.8     23.973     27.529
REMARK  Name = C:\Users\Docking\Desktop\test protocol\1iep_ligandH.pdb
REMARK  8 active torsions:
REMARK  status: ('A' for Active; 'I' for Inactive)
REMARK    1  A    between atoms: _5  and  _11
REMARK    2  A    between atoms: _19  and  _21
REMARK    3  A    between atoms: _22  and  _66
REMARK    4  A    between atoms: _27  and  _30
REMARK    5  A    between atoms: _32  and  _33
REMARK    6  A    between atoms: _38  and  _43
REMARK    7  A    between atoms: _43  and  _46
REMARK    8  A    between atoms: _53  and  _55
REMARK                            x       y       z     vdW  Elec       q    Type
REMARK                         _______ _______ _______ _____ _____    ______ ____
ROOT
ATOM     10  C   UNL     1      44.185  20.341  67.352  0.00  0.00    +0.038 A 
ATOM     11  C   UNL     1      45.443  20.123  66.734  0.00  0.00    +0.047 A 
ATOM     12  C   UNL     1      46.055  18.804  66.717  0.00  0.00    +0.035 A 
ATOM     32  C   UNL     1      45.356  17.727  67.337  0.00  0.00    +0.024 A 
ATOM     33  C   UNL     1      44.077  17.931  67.971  0.00  0.00    +0.007 A 
ATOM     34  C   UNL     1      43.470  19.231  67.993  0.00  0.00    -0.029 A 
ATOM     35  C   UNL     1      42.100  19.392  68.692  0.00  0.00    +0.045 C 
ENDROOT
BRANCH  10   9
ATOM      4  C   UNL     1      43.762  24.773  69.145  0.00  0.00    +0.077 A 
ATOM      5  C   UNL     1      44.676  24.492  70.214  0.00  0.00    +0.048 A 
ATOM      6  C   UNL     1      45.227  23.192  70.271  0.00  0.00    +0.116 A 
ATOM      7  N   UNL     1      44.883  22.252  69.324  0.00  0.00    -0.223 NA
ATOM      8  C   UNL     1      43.998  22.556  68.307  0.00  0.00    +0.220 A 
ATOM      9  N   UNL     1      43.644  21.628  67.339  0.00  0.00    -0.283 N 
ATOM     36  H   UNL     1      42.981  21.889  66.609  0.00  0.00    +0.155 HD
ATOM     37  N   UNL     1      43.456  23.789  68.231  0.00  0.00    -0.214 NA
BRANCH   4   3
ATOM      1  C   UNL     1      41.950  27.837  67.523  0.00  0.00    +0.020 A 
ATOM      2  C   UNL     1      42.583  26.546  67.659  0.00  0.00    +0.013 A 
ATOM      3  C   UNL     1      43.098  26.101  68.948  0.00  0.00    +0.019 A 
ATOM     38  C   UNL     1      42.956  26.994  70.088  0.00  0.00    +0.120 A 
ATOM     39  N   UNL     1      42.344  28.233  69.927  0.00  0.00    -0.263 NA
ATOM     40  C   UNL     1      41.846  28.672  68.691  0.00  0.00    +0.111 A 
ENDBRANCH   4   3
ENDBRANCH  10   9
BRANCH  12  13
ATOM     13  N   UNL     1      47.334  18.524  66.113  0.00  0.00    -0.281 N 
ATOM     14  C   UNL     1      47.623  18.367  64.767  0.00  0.00    +0.248 C 
ATOM     30  O   UNL     1      46.782  18.230  63.891  0.00  0.00    -0.270 OA
ATOM     31  H   UNL     1      48.121  18.432  66.754  0.00  0.00    +0.155 HD
BRANCH  14  15
ATOM     15  C   UNL     1      49.053  18.343  64.334  0.00  0.00    +0.037 A 
ATOM     16  C   UNL     1      50.088  19.056  65.088  0.00  0.00    +0.013 A 
ATOM     17  C   UNL     1      51.457  19.031  64.639  0.00  0.00    +0.005 A 
ATOM     18  C   UNL     1      51.800  18.288  63.429  0.00  0.00    -0.033 A 
ATOM     28  C   UNL     1      50.755  17.585  62.703  0.00  0.00    +0.005 A 
ATOM     29  C   UNL     1      49.412  17.608  63.140  0.00  0.00    +0.013 A 
BRANCH  18  19
ATOM     19  C   UNL     1      53.232  18.224  62.864  0.00  0.00    +0.119 C 
BRANCH  19  20
ATOM     20  N   UNL     1      53.716  19.407  62.092  0.00  0.00    -0.302 NA
ATOM     21  C   UNL     1      53.782  19.123  60.588  0.00  0.00    +0.066 C 
ATOM     22  C   UNL     1      54.269  20.378  59.793  0.00  0.00    -0.064 C 
ATOM     23  N   UNL     1      55.636  20.815  60.323  0.00  0.00    +0.379 N 
ATOM     24  C   UNL     1      56.122  21.960  59.539  0.00  0.00    -0.096 C 
ATOM     25  H   UNL     1      56.345  19.970  60.164  0.00  0.00    -0.082 HD
ATOM     26  C   UNL     1      55.579  21.097  61.817  0.00  0.00    -0.064 C 
ATOM     27  C   UNL     1      55.067  19.853  62.595  0.00  0.00    +0.066 C 
ENDBRANCH  19  20
ENDBRANCH  18  19
ENDBRANCH  14  15
ENDBRANCH  12  13
TORSDOF 6
ENDMDL
MODEL 3
REMARK VINA RESULT:      -7.7     30.008     33.422
REMARK  Name = C:\Users\Docking\Desktop\test protocol\1iep_ligandH.pdb
REMARK  8 active torsions:
REMARK  status: ('A' for Active; 'I' for Inactive)
REMARK    1  A    between atoms: _5  and  _11
REMARK    2  A    between atoms: _19  and  _21
REMARK    3  A    between atoms: _22  and  _66
REMARK    4  A    between atoms: _27  and  _30
REMARK    5  A    between atoms: _32  and  _33
REMARK    6  A    between atoms: _38  and  _43
REMARK    7  A    between atoms: _43  and  _46
REMARK    8  A    between atoms: _53  and  _55
REMARK                            x       y       z     vdW  Elec       q    Type
REMARK                         _______ _______ _______ _____ _____    ______ ____
ROOT
ATOM     10  C   UNL     1      30.784  26.012  71.210  0.00  0.00    +0.038 A 
ATOM     11  C   UNL     1      30.117  25.756  69.984  0.00  0.00    +0.047 A 
ATOM     12  C   UNL     1      30.197  24.453  69.343  0.00  0.00    +0.035 A 
ATOM     32  C   UNL     1      30.963  23.432  69.978  0.00  0.00    +0.024 A 
ATOM     33  C   UNL     1      31.648  23.677  71.223  0.00  0.00    +0.007 A 
ATOM     34  C   UNL     1      31.575  24.961  71.860  0.00  0.00    -0.029 A 
ATOM     35  C   UNL     1      32.335  25.168  73.191  0.00  0.00    +0.045 C 
ENDROOT
BRANCH  10   9
ATOM      4  C   UNL     1      32.351  30.496  71.899  0.00  0.00    +0.077 A 
ATOM      5  C   UNL     1      33.504  30.284  71.071  0.00  0.00    +0.048 A 
ATOM      6  C   UNL     1      33.660  29.004  70.492  0.00  0.00    +0.116 A 
ATOM      7  N   UNL     1      32.727  28.018  70.730  0.00  0.00    -0.223 NA
ATOM      8  C   UNL     1      31.628  28.256  71.535  0.00  0.00    +0.220 A 
ATOM      9  N   UNL     1      30.673  27.282  71.782  0.00  0.00    -0.283 N 
ATOM     36  H   UNL     1      29.880  27.494  72.387  0.00  0.00    +0.155 HD
ATOM     37  N   UNL     1      31.457  29.469  72.101  0.00  0.00    -0.214 NA
BRANCH   4   3
ATOM      1  C   UNL     1      32.468  34.244  73.014  0.00  0.00    +0.020 A 
ATOM      2  C   UNL     1      32.804  33.015  72.332  0.00  0.00    +0.013 A 
ATOM      3  C   UNL     1      32.046  31.795  72.578  0.00  0.00    +0.019 A 
ATOM     38  C   UNL     1      30.944  31.852  73.526  0.00  0.00    +0.120 A 
ATOM     39  N   UNL     1      30.644  33.049  74.169  0.00  0.00    -0.263 NA
ATOM     40  C   UNL     1      31.368  34.230  73.942  0.00  0.00    +0.111 A 
ENDBRANCH   4   3
ENDBRANCH  10   9
BRANCH  12  13
ATOM     13  N   UNL     1      29.548  24.136  68.095  0.00  0.00    -0.281 N 
ATOM     14  C   UNL     1      28.309  23.547  67.905  0.00  0.00    +0.248 C 
ATOM     30  O   UNL     1      27.659  23.005  68.786  0.00  0.00    -0.270 OA
ATOM     31  H   UNL     1      30.065  24.375  67.249  0.00  0.00    +0.155 HD
BRANCH  14  15
ATOM     15  C   UNL     1      27.712  23.547  66.534  0.00  0.00    +0.037 A 
ATOM     16  C   UNL     1      26.824  22.468  66.092  0.00  0.00    +0.013 A 
ATOM     17  C   UNL     1      26.276  22.484  64.759  0.00  0.00    +0.005 A 
ATOM     18  C   UNL     1      26.613  23.584  63.859  0.00  0.00    -0.033 A 
ATOM     28  C   UNL     1      27.491  24.644  64.325  0.00  0.00    +0.005 A 
ATOM     29  C   UNL     1      28.032  24.631  65.631  0.00  0.00    +0.013 A 
BRANCH  18  19
ATOM     19  C   UNL     1      26.090  23.671  62.413  0.00  0.00    +0.119 C 
BRANCH  19  20
ATOM     20  N   UNL     1      24.646  24.005  62.227  0.00  0.00    -0.302 NA
ATOM     21  C   UNL     1      23.931  22.985  61.337  0.00  0.00    +0.066 C 
ATOM     22  C   UNL     1      22.417  23.337  61.171  0.00  0.00    -0.064 C 
ATOM     23  N   UNL     1      22.284  24.747  60.593  0.00  0.00    +0.379 N 
ATOM     24  C   UNL     1      20.863  25.059  60.382  0.00  0.00    -0.096 C 
ATOM     25  H   UNL     1      22.784  24.752  59.596  0.00  0.00    -0.082 HD
ATOM     26  C   UNL     1      22.995  25.768  61.471  0.00  0.00    -0.064 C 
ATOM     27  C   UNL     1      24.492  25.392  61.653  0.00  0.00    +0.066 C 
ENDBRANCH  19  20
ENDBRANCH  18  19
ENDBRANCH  14  15
ENDBRANCH  12  13
TORSDOF 6
ENDMDL
