MODEL 1
REMARK VINA RESULT:      -8.2      0.000      0.000
REMARK  Name = C:\Users\Docking\Desktop\test protocol\1iep_ligandH.pdb
REMARK  8 active torsions:
REMARK  status: ('A' for Active; 'I' for Inactive)
REMARK    1  A    between atoms: _5  and  _11
REMARK    2  A    between atoms: _19  and  _21
REMARK    3  A    between atoms: _22  and  _66
REMARK    4  A    between atoms: _27  and  _30
REMARK    5  A    between atoms: _32  and  _33
REMARK    6  A    between atoms: _38  and  _43
REMARK    7  A    between atoms: _43  and  _46
REMARK    8  A    between atoms: _53  and  _55
REMARK                            x       y       z     vdW  Elec       q    Type
REMARK                         _______ _______ _______ _____ _____    ______ ____
ROOT
ATOM     10  C   UNL     1      22.171  22.917  54.920  0.00  0.00    +0.038 A 
ATOM     11  C   UNL     1      22.892  23.167  56.115  0.00  0.00    +0.047 A 
ATOM     12  C   UNL     1      22.214  23.602  57.326  0.00  0.00    +0.035 A 
ATOM     32  C   UNL     1      20.799  23.769  57.285  0.00  0.00    +0.024 A 
ATOM     33  C   UNL     1      20.050  23.520  56.079  0.00  0.00    +0.007 A 
ATOM     34  C   UNL     1      20.714  23.093  54.880  0.00  0.00    -0.029 A 
ATOM     35  C   UNL     1      19.861  22.847  53.614  0.00  0.00    +0.045 C 
ENDROOT
BRANCH  10   9
ATOM      4  C   UNL     1      24.035  19.498  52.114  0.00  0.00    +0.077 A 
ATOM      5  C   UNL     1      23.598  18.454  52.994  0.00  0.00    +0.048 A 
ATOM      6  C   UNL     1      22.902  18.839  54.162  0.00  0.00    +0.116 A 
ATOM      7  N   UNL     1      22.667  20.172  54.420  0.00  0.00    -0.223 NA
ATOM      8  C   UNL     1      23.104  21.155  53.551  0.00  0.00    +0.220 A 
ATOM      9  N   UNL     1      22.872  22.501  53.786  0.00  0.00    -0.283 N 
ATOM     36  H   UNL     1      23.218  23.195  53.124  0.00  0.00    +0.155 HD
ATOM     37  N   UNL     1      23.772  20.813  52.429  0.00  0.00    -0.214 NA
BRANCH   4   3
ATOM      1  C   UNL     1      25.415  19.841  48.469  0.00  0.00    +0.020 A 
ATOM      2  C   UNL     1      24.674  20.125  49.677  0.00  0.00    +0.013 A 
ATOM      3  C   UNL     1      24.780  19.251  50.838  0.00  0.00    +0.019 A 
ATOM     38  C   UNL     1      25.650  18.089  50.745  0.00  0.00    +0.120 A 
ATOM     39  N   UNL     1      26.350  17.840  49.568  0.00  0.00    -0.263 NA
ATOM     40  C   UNL     1      26.256  18.673  48.443  0.00  0.00    +0.111 A 
ENDBRANCH   4   3
ENDBRANCH  10   9
BRANCH  12  13
ATOM     13  N   UNL     1      22.895  23.880  58.567  0.00  0.00    -0.281 N 
ATOM     14  C   UNL     1      23.049  23.042  59.659  0.00  0.00    +0.248 C 
ATOM     30  O   UNL     1      22.439  21.996  59.819  0.00  0.00    -0.270 OA
ATOM     31  H   UNL     1      23.313  24.806  58.649  0.00  0.00    +0.155 HD
BRANCH  14  15
ATOM     15  C   UNL     1      24.011  23.429  60.735  0.00  0.00    +0.037 A 
ATOM     16  C   UNL     1      24.965  22.463  61.286  0.00  0.00    +0.013 A 
ATOM     17  C   UNL     1      25.870  22.858  62.336  0.00  0.00    +0.005 A 
ATOM     18  C   UNL     1      25.826  24.228  62.841  0.00  0.00    -0.033 A 
ATOM     28  C   UNL     1      24.874  25.168  62.273  0.00  0.00    +0.005 A 
ATOM     29  C   UNL     1      23.985  24.784  61.245  0.00  0.00    +0.013 A 
BRANCH  18  19
ATOM     19  C   UNL     1      26.741  24.732  63.974  0.00  0.00    +0.119 C 
BRANCH  19  20
ATOM     20  N   UNL     1      26.576  24.100  65.317  0.00  0.00    -0.302 NA
ATOM     21  C   UNL     1      25.551  24.843  66.179  0.00  0.00    +0.066 C 
ATOM     22  C   UNL     1      25.375  24.156  67.573  0.00  0.00    -0.064 C 
ATOM     23  N   UNL     1      26.729  24.087  68.280  0.00  0.00    +0.379 N 
ATOM     24  C   UNL     1      26.557  23.494  69.614  0.00  0.00    -0.096 C 
ATOM     25  H   UNL     1      27.091  25.132  68.418  0.00  0.00    -0.082 HD
ATOM     26  C   UNL     1      27.755  23.352  67.428  0.00  0.00    -0.064 C 
ATOM     27  C   UNL     1      27.901  24.026  66.035  0.00  0.00    +0.066 C 
ENDBRANCH  19  20
ENDBRANCH  18  19
ENDBRANCH  14  15
ENDBRANCH  12  13
TORSDOF 6
ENDMDL
MODEL 2
REMARK VINA RESULT:      -7.8     21.800     26.862
REMARK  Name = C:\Users\Docking\Desktop\test protocol\1iep_ligandH.pdb
REMARK  8 active torsions:
REMARK  status: ('A' for Active; 'I' for Inactive)
REMARK    1  A    between atoms: _5  and  _11
REMARK    2  A    between atoms: _19  and  _21
REMARK    3  A    between atoms: _22  and  _66
REMARK    4  A    between atoms: _27  and  _30
REMARK    5  A    between atoms: _32  and  _33
REMARK    6  A    between atoms: _38  and  _43
REMARK    7  A    between atoms: _43  and  _46
REMARK    8  A    between atoms: _53  and  _55
REMARK                            x       y       z     vdW  Elec       q    Type
REMARK                         _______ _______ _______ _____ _____    ______ ____
ROOT
ATOM     10  C   UNL     1      44.254  20.152  67.371  0.00  0.00    +0.038 A 
ATOM     11  C   UNL     1      45.469  19.927  66.677  0.00  0.00    +0.047 A 
ATOM     12  C   UNL     1      46.098  18.615  66.666  0.00  0.00    +0.035 A 
ATOM     32  C   UNL     1      45.459  17.554  67.371  0.00  0.00    +0.024 A 
ATOM     33  C   UNL     1      44.223  17.765  68.084  0.00  0.00    +0.007 A 
ATOM     34  C   UNL     1      43.600  19.058  68.100  0.00  0.00    -0.029 A 
ATOM     35  C   UNL     1      42.279  19.229  68.885  0.00  0.00    +0.045 C 
ENDROOT
BRANCH  10   9
ATOM      4  C   UNL     1      43.471  24.465  69.326  0.00  0.00    +0.077 A 
ATOM      5  C   UNL     1      44.217  24.132  70.505  0.00  0.00    +0.048 A 
ATOM      6  C   UNL     1      44.781  22.838  70.572  0.00  0.00    +0.116 A 
ATOM      7  N   UNL     1      44.604  21.952  69.532  0.00  0.00    -0.223 NA
ATOM      8  C   UNL     1      43.877  22.304  68.410  0.00  0.00    +0.220 A 
ATOM      9  N   UNL     1      43.694  21.431  67.348  0.00  0.00    -0.283 N 
ATOM     36  H   UNL     1      43.145  21.727  66.541  0.00  0.00    +0.155 HD
ATOM     37  N   UNL     1      43.328  23.533  68.322  0.00  0.00    -0.214 NA
BRANCH   4   3
ATOM      1  C   UNL     1      41.430  27.406  67.748  0.00  0.00    +0.020 A 
ATOM      2  C   UNL     1      42.041  26.107  67.912  0.00  0.00    +0.013 A 
ATOM      3  C   UNL     1      42.818  25.794  69.105  0.00  0.00    +0.019 A 
ATOM     38  C   UNL     1      42.957  26.826  70.122  0.00  0.00    +0.120 A 
ATOM     39  N   UNL     1      42.359  28.068  69.936  0.00  0.00    -0.263 NA
ATOM     40  C   UNL     1      41.611  28.381  68.792  0.00  0.00    +0.111 A 
ENDBRANCH   4   3
ENDBRANCH  10   9
BRANCH  12  13
ATOM     13  N   UNL     1      47.336  18.328  65.985  0.00  0.00    -0.281 N 
ATOM     14  C   UNL     1      47.529  17.534  64.867  0.00  0.00    +0.248 C 
ATOM     30  O   UNL     1      46.691  16.774  64.406  0.00  0.00    -0.270 OA
ATOM     31  H   UNL     1      48.172  18.764  66.375  0.00  0.00    +0.155 HD
BRANCH  14  15
ATOM     15  C   UNL     1      48.849  17.581  64.167  0.00  0.00    +0.037 A 
ATOM     16  C   UNL     1      50.060  17.042  64.792  0.00  0.00    +0.013 A 
ATOM     17  C   UNL     1      51.324  17.116  64.102  0.00  0.00    +0.005 A 
ATOM     18  C   UNL     1      51.382  17.729  62.778  0.00  0.00    -0.033 A 
ATOM     28  C   UNL     1      50.165  18.250  62.179  0.00  0.00    +0.005 A 
ATOM     29  C   UNL     1      48.925  18.181  62.852  0.00  0.00    +0.013 A 
BRANCH  18  19
ATOM     19  C   UNL     1      52.691  17.869  61.978  0.00  0.00    +0.119 C 
BRANCH  19  20
ATOM     20  N   UNL     1      53.220  19.249  61.769  0.00  0.00    -0.302 NA
ATOM     21  C   UNL     1      54.031  19.364  60.475  0.00  0.00    +0.066 C 
ATOM     22  C   UNL     1      54.558  20.820  60.260  0.00  0.00    -0.064 C 
ATOM     23  N   UNL     1      55.401  21.237  61.466  0.00  0.00    +0.379 N 
ATOM     24  C   UNL     1      55.946  22.584  61.242  0.00  0.00    -0.096 C 
ATOM     25  H   UNL     1      56.262  20.531  61.537  0.00  0.00    -0.082 HD
ATOM     26  C   UNL     1      54.604  21.123  62.758  0.00  0.00    -0.064 C 
ATOM     27  C   UNL     1      54.060  19.680  62.946  0.00  0.00    +0.066 C 
ENDBRANCH  19  20
ENDBRANCH  18  19
ENDBRANCH  14  15
ENDBRANCH  12  13
TORSDOF 6
ENDMDL
MODEL 3
REMARK VINA RESULT:      -7.5      8.610     15.668
REMARK  Name = C:\Users\Docking\Desktop\test protocol\1iep_ligandH.pdb
REMARK  8 active torsions:
REMARK  status: ('A' for Active; 'I' for Inactive)
REMARK    1  A    between atoms: _5  and  _11
REMARK    2  A    between atoms: _19  and  _21
REMARK    3  A    between atoms: _22  and  _66
REMARK    4  A    between atoms: _27  and  _30
REMARK    5  A    between atoms: _32  and  _33
REMARK    6  A    between atoms: _38  and  _43
REMARK    7  A    between atoms: _43  and  _46
REMARK    8  A    between atoms: _53  and  _55
REMARK                            x       y       z     vdW  Elec       q    Type
REMARK                         _______ _______ _______ _____ _____    ______ ____
ROOT
ATOM     10  C   UNL     1      30.521  24.478  69.300  0.00  0.00    +0.038 A 
ATOM     11  C   UNL     1      30.547  25.783  69.855  0.00  0.00    +0.047 A 
ATOM     12  C   UNL     1      31.116  26.030  71.171  0.00  0.00    +0.035 A 
ATOM     32  C   UNL     1      31.653  24.925  71.893  0.00  0.00    +0.024 A 
ATOM     33  C   UNL     1      31.635  23.592  71.344  0.00  0.00    +0.007 A 
ATOM     34  C   UNL     1      31.073  23.342  70.048  0.00  0.00    -0.029 A 
ATOM     35  C   UNL     1      31.074  21.891  69.512  0.00  0.00    +0.045 C 
ENDROOT
BRANCH  10   9
ATOM      4  C   UNL     1      26.842  23.409  66.410  0.00  0.00    +0.077 A 
ATOM      5  C   UNL     1      25.965  23.163  67.518  0.00  0.00    +0.048 A 
ATOM      6  C   UNL     1      26.502  23.316  68.816  0.00  0.00    +0.116 A 
ATOM      7  N   UNL     1      27.819  23.688  68.981  0.00  0.00    -0.223 NA
ATOM      8  C   UNL     1      28.638  23.916  67.890  0.00  0.00    +0.220 A 
ATOM      9  N   UNL     1      29.963  24.298  68.033  0.00  0.00    -0.283 N 
ATOM     36  H   UNL     1      30.536  24.449  67.203  0.00  0.00    +0.155 HD
ATOM     37  N   UNL     1      28.149  23.775  66.641  0.00  0.00    -0.214 NA
BRANCH   4   3
ATOM      1  C   UNL     1      25.269  22.102  63.075  0.00  0.00    +0.020 A 
ATOM      2  C   UNL     1      25.651  22.165  64.467  0.00  0.00    +0.013 A 
ATOM      3  C   UNL     1      26.421  23.293  64.978  0.00  0.00    +0.019 A 
ATOM     38  C   UNL     1      26.790  24.348  64.046  0.00  0.00    +0.120 A 
ATOM     39  N   UNL     1      26.410  24.259  62.711  0.00  0.00    -0.263 NA
ATOM     40  C   UNL     1      25.671  23.178  62.208  0.00  0.00    +0.111 A 
ENDBRANCH   4   3
ENDBRANCH  10   9
BRANCH  12  13
ATOM     13  N   UNL     1      31.162  27.332  71.789  0.00  0.00    -0.281 N 
ATOM     14  C   UNL     1      32.035  28.373  71.518  0.00  0.00    +0.248 C 
ATOM     30  O   UNL     1      33.052  28.266  70.848  0.00  0.00    -0.270 OA
ATOM     31  H   UNL     1      30.467  27.508  72.514  0.00  0.00    +0.155 HD
BRANCH  14  15
ATOM     15  C   UNL     1      31.746  29.725  72.086  0.00  0.00    +0.037 A 
ATOM     16  C   UNL     1      32.662  30.849  71.877  0.00  0.00    +0.013 A 
ATOM     17  C   UNL     1      32.367  32.139  72.450  0.00  0.00    +0.005 A 
ATOM     18  C   UNL     1      31.148  32.311  73.237  0.00  0.00    -0.033 A 
ATOM     28  C   UNL     1      30.254  31.180  73.424  0.00  0.00    +0.005 A 
ATOM     29  C   UNL     1      30.540  29.914  72.865  0.00  0.00    +0.013 A 
BRANCH  18  19
ATOM     19  C   UNL     1      30.764  33.645  73.903  0.00  0.00    +0.119 C 
BRANCH  19  20
ATOM     20  N   UNL     1      31.088  34.899  73.159  0.00  0.00    -0.302 NA
ATOM     21  C   UNL     1      32.376  35.553  73.668  0.00  0.00    +0.066 C 
ATOM     22  C   UNL     1      32.712  36.851  72.864  0.00  0.00    -0.064 C 
ATOM     23  N   UNL     1      31.536  37.824  72.959  0.00  0.00    +0.379 N 
ATOM     24  C   UNL     1      31.872  39.069  72.252  0.00  0.00    -0.096 C 
ATOM     25  H   UNL     1      31.390  38.075  74.035  0.00  0.00    -0.082 HD
ATOM     26  C   UNL     1      30.251  37.182  72.457  0.00  0.00    -0.064 C 
ATOM     27  C   UNL     1      29.942  35.877  73.243  0.00  0.00    +0.066 C 
ENDBRANCH  19  20
ENDBRANCH  18  19
ENDBRANCH  14  15
ENDBRANCH  12  13
TORSDOF 6
ENDMDL
