MODEL 1
REMARK VINA RESULT:      -7.8      0.000      0.000
REMARK  Name = C:\Users\Docking\Desktop\test protocol\1iep_ligandH.pdb
REMARK  8 active torsions:
REMARK  status: ('A' for Active; 'I' for Inactive)
REMARK    1  A    between atoms: _5  and  _11
REMARK    2  A    between atoms: _19  and  _21
REMARK    3  A    between atoms: _22  and  _66
REMARK    4  A    between atoms: _27  and  _30
REMARK    5  A    between atoms: _32  and  _33
REMARK    6  A    between atoms: _38  and  _43
REMARK    7  A    between atoms: _43  and  _46
REMARK    8  A    between atoms: _53  and  _55
REMARK                            x       y       z     vdW  Elec       q    Type
REMARK                         _______ _______ _______ _____ _____    ______ ____
ROOT
ATOM     10  C   UNL     1      78.371  69.076   9.600  0.00  0.00    +0.038 A 
ATOM     11  C   UNL     1      77.704  68.434  10.674  0.00  0.00    +0.047 A 
ATOM     12  C   UNL     1      76.521  69.021  11.283  0.00  0.00    +0.035 A 
ATOM     32  C   UNL     1      76.042  70.262  10.771  0.00  0.00    +0.024 A 
ATOM     33  C   UNL     1      76.708  70.928   9.680  0.00  0.00    +0.007 A 
ATOM     34  C   UNL     1      77.878  70.356   9.077  0.00  0.00    -0.029 A 
ATOM     35  C   UNL     1      78.556  71.118   7.915  0.00  0.00    +0.045 C 
ENDROOT
BRANCH  10   9
ATOM      4  C   UNL     1      83.115  68.373   9.391  0.00  0.00    +0.077 A 
ATOM      5  C   UNL     1      83.361  69.317  10.442  0.00  0.00    +0.048 A 
ATOM      6  C   UNL     1      82.240  69.967  11.006  0.00  0.00    +0.116 A 
ATOM      7  N   UNL     1      80.972  69.686  10.544  0.00  0.00    -0.223 NA
ATOM      8  C   UNL     1      80.770  68.772   9.527  0.00  0.00    +0.220 A 
ATOM      9  N   UNL     1      79.503  68.468   9.053  0.00  0.00    -0.283 N 
ATOM     36  H   UNL     1      79.397  67.793   8.296  0.00  0.00    +0.155 HD
ATOM     37  N   UNL     1      81.824  68.138   8.972  0.00  0.00    -0.214 NA
BRANCH   4   3
ATOM      1  C   UNL     1      86.464  67.418   7.610  0.00  0.00    +0.020 A 
ATOM      2  C   UNL     1      85.453  68.207   8.275  0.00  0.00    +0.013 A 
ATOM      3  C   UNL     1      84.195  67.603   8.698  0.00  0.00    +0.019 A 
ATOM     38  C   UNL     1      83.992  66.187   8.431  0.00  0.00    +0.120 A 
ATOM     39  N   UNL     1      84.983  65.453   7.787  0.00  0.00    -0.263 NA
ATOM     40  C   UNL     1      86.196  66.024   7.374  0.00  0.00    +0.111 A 
ENDBRANCH   4   3
ENDBRANCH  10   9
BRANCH  12  13
ATOM     13  N   UNL     1      75.806  68.419  12.382  0.00  0.00    -0.281 N 
ATOM     14  C   UNL     1      75.784  68.823  13.707  0.00  0.00    +0.248 C 
ATOM     30  O   UNL     1      76.549  69.643  14.192  0.00  0.00    -0.270 OA
ATOM     31  H   UNL     1      75.250  67.595  12.155  0.00  0.00    +0.155 HD
BRANCH  14  15
ATOM     15  C   UNL     1      74.774  68.219  14.629  0.00  0.00    +0.037 A 
ATOM     16  C   UNL     1      75.159  67.212  15.621  0.00  0.00    +0.013 A 
ATOM     17  C   UNL     1      74.162  66.633  16.487  0.00  0.00    +0.005 A 
ATOM     18  C   UNL     1      72.771  67.062  16.365  0.00  0.00    -0.033 A 
ATOM     28  C   UNL     1      72.419  68.067  15.376  0.00  0.00    +0.005 A 
ATOM     29  C   UNL     1      73.392  68.636  14.525  0.00  0.00    +0.013 A 
BRANCH  18  19
ATOM     19  C   UNL     1      71.638  66.483  17.233  0.00  0.00    +0.119 C 
BRANCH  19  20
ATOM     20  N   UNL     1      70.525  65.783  16.526  0.00  0.00    -0.302 NA
ATOM     21  C   UNL     1      69.460  65.268  17.498  0.00  0.00    +0.066 C 
ATOM     22  C   UNL     1      68.291  64.558  16.740  0.00  0.00    -0.064 C 
ATOM     23  N   UNL     1      68.855  63.412  15.898  0.00  0.00    +0.379 N 
ATOM     24  C   UNL     1      67.753  62.706  15.229  0.00  0.00    -0.096 C 
ATOM     25  H   UNL     1      69.346  62.692  16.594  0.00  0.00    -0.082 HD
ATOM     26  C   UNL     1      69.917  63.914  14.930  0.00  0.00    -0.064 C 
ATOM     27  C   UNL     1      71.059  64.644  15.692  0.00  0.00    +0.066 C 
ENDBRANCH  19  20
ENDBRANCH  18  19
ENDBRANCH  14  15
ENDBRANCH  12  13
TORSDOF 6
ENDMDL
MODEL 2
REMARK VINA RESULT:      -7.7     22.353     24.304
REMARK  Name = C:\Users\Docking\Desktop\test protocol\1iep_ligandH.pdb
REMARK  8 active torsions:
REMARK  status: ('A' for Active; 'I' for Inactive)
REMARK    1  A    between atoms: _5  and  _11
REMARK    2  A    between atoms: _19  and  _21
REMARK    3  A    between atoms: _22  and  _66
REMARK    4  A    between atoms: _27  and  _30
REMARK    5  A    between atoms: _32  and  _33
REMARK    6  A    between atoms: _38  and  _43
REMARK    7  A    between atoms: _43  and  _46
REMARK    8  A    between atoms: _53  and  _55
REMARK                            x       y       z     vdW  Elec       q    Type
REMARK                         _______ _______ _______ _____ _____    ______ ____
ROOT
ATOM     10  C   UNL     1      83.585  44.772  15.815  0.00  0.00    +0.038 A 
ATOM     11  C   UNL     1      82.173  44.784  15.953  0.00  0.00    +0.047 A 
ATOM     12  C   UNL     1      81.326  43.968  15.097  0.00  0.00    +0.035 A 
ATOM     32  C   UNL     1      81.951  43.150  14.111  0.00  0.00    +0.024 A 
ATOM     33  C   UNL     1      83.384  43.127  13.956  0.00  0.00    +0.007 A 
ATOM     34  C   UNL     1      84.224  43.931  14.796  0.00  0.00    -0.029 A 
ATOM     35  C   UNL     1      85.755  43.871  14.580  0.00  0.00    +0.045 C 
ENDROOT
BRANCH  10   9
ATOM      4  C   UNL     1      86.411  45.392  19.644  0.00  0.00    +0.077 A 
ATOM      5  C   UNL     1      86.335  44.004  19.999  0.00  0.00    +0.048 A 
ATOM      6  C   UNL     1      85.553  43.165  19.174  0.00  0.00    +0.116 A 
ATOM      7  N   UNL     1      84.899  43.687  18.078  0.00  0.00    -0.223 NA
ATOM      8  C   UNL     1      84.992  45.030  17.765  0.00  0.00    +0.220 A 
ATOM      9  N   UNL     1      84.350  45.575  16.664  0.00  0.00    -0.283 N 
ATOM     36  H   UNL     1      84.437  46.572  16.471  0.00  0.00    +0.155 HD
ATOM     37  N   UNL     1      85.732  45.852  18.538  0.00  0.00    -0.214 NA
BRANCH   4   3
ATOM      1  C   UNL     1      89.175  47.945  20.714  0.00  0.00    +0.020 A 
ATOM      2  C   UNL     1      88.452  46.970  19.930  0.00  0.00    +0.013 A 
ATOM      3  C   UNL     1      87.200  46.403  20.416  0.00  0.00    +0.019 A 
ATOM     38  C   UNL     1      86.704  46.847  21.710  0.00  0.00    +0.120 A 
ATOM     39  N   UNL     1      87.423  47.786  22.444  0.00  0.00    -0.263 NA
ATOM     40  C   UNL     1      88.629  48.337  21.986  0.00  0.00    +0.111 A 
ENDBRANCH   4   3
ENDBRANCH  10   9
BRANCH  12  13
ATOM     13  N   UNL     1      79.887  43.945  15.186  0.00  0.00    -0.281 N 
ATOM     14  C   UNL     1      79.089  43.017  15.834  0.00  0.00    +0.248 C 
ATOM     30  O   UNL     1      79.484  41.942  16.258  0.00  0.00    -0.270 OA
ATOM     31  H   UNL     1      79.398  44.706  14.713  0.00  0.00    +0.155 HD
BRANCH  14  15
ATOM     15  C   UNL     1      77.638  43.322  16.026  0.00  0.00    +0.037 A 
ATOM     16  C   UNL     1      76.634  42.878  15.056  0.00  0.00    +0.013 A 
ATOM     17  C   UNL     1      75.243  43.200  15.256  0.00  0.00    +0.005 A 
ATOM     18  C   UNL     1      74.848  43.969  16.434  0.00  0.00    -0.033 A 
ATOM     28  C   UNL     1      75.865  44.392  17.383  0.00  0.00    +0.005 A 
ATOM     29  C   UNL     1      77.229  44.079  17.190  0.00  0.00    +0.013 A 
BRANCH  18  19
ATOM     19  C   UNL     1      73.390  44.376  16.717  0.00  0.00    +0.119 C 
BRANCH  19  20
ATOM     20  N   UNL     1      72.680  45.155  15.660  0.00  0.00    -0.302 NA
ATOM     21  C   UNL     1      71.834  46.287  16.251  0.00  0.00    +0.066 C 
ATOM     22  C   UNL     1      71.116  47.106  15.130  0.00  0.00    -0.064 C 
ATOM     23  N   UNL     1      70.251  46.165  14.289  0.00  0.00    +0.379 N 
ATOM     24  C   UNL     1      69.529  46.942  13.270  0.00  0.00    -0.096 C 
ATOM     25  H   UNL     1      69.493  45.708  14.967  0.00  0.00    -0.082 HD
ATOM     26  C   UNL     1      71.084  45.036  13.700  0.00  0.00    -0.064 C 
ATOM     27  C   UNL     1      71.816  44.246  14.821  0.00  0.00    +0.066 C 
ENDBRANCH  19  20
ENDBRANCH  18  19
ENDBRANCH  14  15
ENDBRANCH  12  13
TORSDOF 6
ENDMDL
MODEL 3
REMARK VINA RESULT:      -7.7      4.023     14.423
REMARK  Name = C:\Users\Docking\Desktop\test protocol\1iep_ligandH.pdb
REMARK  8 active torsions:
REMARK  status: ('A' for Active; 'I' for Inactive)
REMARK    1  A    between atoms: _5  and  _11
REMARK    2  A    between atoms: _19  and  _21
REMARK    3  A    between atoms: _22  and  _66
REMARK    4  A    between atoms: _27  and  _30
REMARK    5  A    between atoms: _32  and  _33
REMARK    6  A    between atoms: _38  and  _43
REMARK    7  A    between atoms: _43  and  _46
REMARK    8  A    between atoms: _53  and  _55
REMARK                            x       y       z     vdW  Elec       q    Type
REMARK                         _______ _______ _______ _____ _____    ______ ____
ROOT
ATOM     10  C   UNL     1      68.150  63.273  14.558  0.00  0.00    +0.038 A 
ATOM     11  C   UNL     1      69.121  64.278  14.314  0.00  0.00    +0.047 A 
ATOM     12  C   UNL     1      70.225  64.497  15.236  0.00  0.00    +0.035 A 
ATOM     32  C   UNL     1      70.312  63.671  16.394  0.00  0.00    +0.024 A 
ATOM     33  C   UNL     1      69.333  62.645  16.658  0.00  0.00    +0.007 A 
ATOM     34  C   UNL     1      68.240  62.427  15.754  0.00  0.00    -0.029 A 
ATOM     35  C   UNL     1      67.217  61.317  16.090  0.00  0.00    +0.045 C 
ENDROOT
BRANCH  10   9
ATOM      4  C   UNL     1      63.918  64.539  12.680  0.00  0.00    +0.077 A 
ATOM      5  C   UNL     1      63.750  65.604  13.626  0.00  0.00    +0.048 A 
ATOM      6  C   UNL     1      64.773  65.789  14.584  0.00  0.00    +0.116 A 
ATOM      7  N   UNL     1      65.876  64.964  14.586  0.00  0.00    -0.223 NA
ATOM      8  C   UNL     1      66.006  63.944  13.661  0.00  0.00    +0.220 A 
ATOM      9  N   UNL     1      67.111  63.107  13.639  0.00  0.00    -0.283 N 
ATOM     36  H   UNL     1      67.166  62.362  12.946  0.00  0.00    +0.155 HD
ATOM     37  N   UNL     1      65.043  63.746  12.737  0.00  0.00    -0.214 NA
BRANCH   4   3
ATOM      1  C   UNL     1      62.115  64.294   9.218  0.00  0.00    +0.020 A 
ATOM      2  C   UNL     1      63.103  64.628  10.218  0.00  0.00    +0.013 A 
ATOM      3  C   UNL     1      62.926  64.220  11.605  0.00  0.00    +0.019 A 
ATOM     38  C   UNL     1      61.729  63.468  11.951  0.00  0.00    +0.120 A 
ATOM     39  N   UNL     1      60.794  63.162  10.967  0.00  0.00    -0.263 NA
ATOM     40  C   UNL     1      60.953  63.551   9.629  0.00  0.00    +0.111 A 
ENDBRANCH   4   3
ENDBRANCH  10   9
BRANCH  12  13
ATOM     13  N   UNL     1      71.236  65.507  15.046  0.00  0.00    -0.281 N 
ATOM     14  C   UNL     1      71.467  66.636  15.814  0.00  0.00    +0.248 C 
ATOM     30  O   UNL     1      70.699  67.063  16.664  0.00  0.00    -0.270 OA
ATOM     31  H   UNL     1      71.857  65.374  14.247  0.00  0.00    +0.155 HD
BRANCH  14  15
ATOM     15  C   UNL     1      72.727  67.411  15.599  0.00  0.00    +0.037 A 
ATOM     16  C   UNL     1      72.731  68.655  14.826  0.00  0.00    +0.013 A 
ATOM     17  C   UNL     1      73.963  69.374  14.619  0.00  0.00    +0.005 A 
ATOM     18  C   UNL     1      75.202  68.850  15.187  0.00  0.00    -0.033 A 
ATOM     28  C   UNL     1      75.169  67.616  15.954  0.00  0.00    +0.005 A 
ATOM     29  C   UNL     1      73.963  66.908  16.159  0.00  0.00    +0.013 A 
BRANCH  18  19
ATOM     19  C   UNL     1      76.566  69.540  14.999  0.00  0.00    +0.119 C 
BRANCH  19  20
ATOM     20  N   UNL     1      77.102  69.627  13.607  0.00  0.00    -0.302 NA
ATOM     21  C   UNL     1      76.773  68.378  12.786  0.00  0.00    +0.066 C 
ATOM     22  C   UNL     1      77.321  68.496  11.326  0.00  0.00    -0.064 C 
ATOM     23  N   UNL     1      78.831  68.734  11.369  0.00  0.00    +0.379 N 
ATOM     24  C   UNL     1      79.359  68.787   9.998  0.00  0.00    -0.096 C 
ATOM     25  H   UNL     1      79.297  67.858  11.877  0.00  0.00    -0.082 HD
ATOM     26  C   UNL     1      79.167  69.973  12.187  0.00  0.00    -0.064 C 
ATOM     27  C   UNL     1      78.593  69.858  13.626  0.00  0.00    +0.066 C 
ENDBRANCH  19  20
ENDBRANCH  18  19
ENDBRANCH  14  15
ENDBRANCH  12  13
TORSDOF 6
ENDMDL
