MODEL 1
REMARK VINA RESULT:      -7.7      0.000      0.000
REMARK  Name = C:\Users\Docking\Desktop\test protocol\1iep_ligandH.pdb
REMARK  8 active torsions:
REMARK  status: ('A' for Active; 'I' for Inactive)
REMARK    1  A    between atoms: _5  and  _11
REMARK    2  A    between atoms: _19  and  _21
REMARK    3  A    between atoms: _22  and  _66
REMARK    4  A    between atoms: _27  and  _30
REMARK    5  A    between atoms: _32  and  _33
REMARK    6  A    between atoms: _38  and  _43
REMARK    7  A    between atoms: _43  and  _46
REMARK    8  A    between atoms: _53  and  _55
REMARK                            x       y       z     vdW  Elec       q    Type
REMARK                         _______ _______ _______ _____ _____    ______ ____
ROOT
ATOM     10  C   UNL     1       7.600  32.721  12.056  0.00  0.00    +0.038 A 
ATOM     11  C   UNL     1       7.451  31.627  11.165  0.00  0.00    +0.047 A 
ATOM     12  C   UNL     1       8.138  30.367  11.399  0.00  0.00    +0.035 A 
ATOM     32  C   UNL     1       8.967  30.254  12.553  0.00  0.00    +0.024 A 
ATOM     33  C   UNL     1       9.131  31.355  13.468  0.00  0.00    +0.007 A 
ATOM     34  C   UNL     1       8.458  32.602  13.241  0.00  0.00    -0.029 A 
ATOM     35  C   UNL     1       8.675  33.751  14.253  0.00  0.00    +0.045 C 
ENDROOT
BRANCH  10   9
ATOM      4  C   UNL     1       3.787  35.605  12.485  0.00  0.00    +0.077 A 
ATOM      5  C   UNL     1       3.086  34.655  13.300  0.00  0.00    +0.048 A 
ATOM      6  C   UNL     1       3.739  33.434  13.580  0.00  0.00    +0.116 A 
ATOM      7  N   UNL     1       4.999  33.191  13.077  0.00  0.00    -0.223 NA
ATOM      8  C   UNL     1       5.646  34.128  12.293  0.00  0.00    +0.220 A 
ATOM      9  N   UNL     1       6.917  33.908  11.783  0.00  0.00    -0.283 N 
ATOM     36  H   UNL     1       7.357  34.621  11.202  0.00  0.00    +0.155 HD
ATOM     37  N   UNL     1       5.044  35.301  12.010  0.00  0.00    -0.214 NA
BRANCH   4   3
ATOM      1  C   UNL     1       2.238  38.560  10.443  0.00  0.00    +0.020 A 
ATOM      2  C   UNL     1       2.767  37.253  10.758  0.00  0.00    +0.013 A 
ATOM      3  C   UNL     1       3.231  36.942  12.104  0.00  0.00    +0.019 A 
ATOM     38  C   UNL     1       3.145  37.984  13.117  0.00  0.00    +0.120 A 
ATOM     39  N   UNL     1       2.633  39.234  12.784  0.00  0.00    -0.263 NA
ATOM     40  C   UNL     1       2.184  39.545  11.491  0.00  0.00    +0.111 A 
ENDBRANCH   4   3
ENDBRANCH  10   9
BRANCH  12  13
ATOM     13  N   UNL     1       8.031  29.225  10.525  0.00  0.00    -0.281 N 
ATOM     14  C   UNL     1       8.955  28.774   9.597  0.00  0.00    +0.248 C 
ATOM     30  O   UNL     1       9.929  29.411   9.225  0.00  0.00    -0.270 OA
ATOM     31  H   UNL     1       7.170  28.684  10.600  0.00  0.00    +0.155 HD
BRANCH  14  15
ATOM     15  C   UNL     1       8.762  27.425   8.983  0.00  0.00    +0.037 A 
ATOM     16  C   UNL     1       9.286  27.114   7.651  0.00  0.00    +0.013 A 
ATOM     17  C   UNL     1       9.071  25.810   7.075  0.00  0.00    +0.005 A 
ATOM     18  C   UNL     1       8.328  24.806   7.833  0.00  0.00    -0.033 A 
ATOM     28  C   UNL     1       7.824  25.139   9.155  0.00  0.00    +0.005 A 
ATOM     29  C   UNL     1       8.032  26.416   9.722  0.00  0.00    +0.013 A 
BRANCH  18  19
ATOM     19  C   UNL     1       8.033  23.396   7.288  0.00  0.00    +0.119 C 
BRANCH  19  20
ATOM     20  N   UNL     1       9.135  22.390   7.362  0.00  0.00    -0.302 NA
ATOM     21  C   UNL     1      10.107  22.685   8.507  0.00  0.00    +0.066 C 
ATOM     22  C   UNL     1      11.240  21.611   8.584  0.00  0.00    -0.064 C 
ATOM     23  N   UNL     1      11.980  21.558   7.246  0.00  0.00    +0.379 N 
ATOM     24  C   UNL     1      13.083  20.590   7.333  0.00  0.00    -0.096 C 
ATOM     25  H   UNL     1      12.425  22.564   7.067  0.00  0.00    -0.082 HD
ATOM     26  C   UNL     1      11.020  21.268   6.101  0.00  0.00    -0.064 C 
ATOM     27  C   UNL     1       9.881  22.325   6.052  0.00  0.00    +0.066 C 
ENDBRANCH  19  20
ENDBRANCH  18  19
ENDBRANCH  14  15
ENDBRANCH  12  13
TORSDOF 6
ENDMDL
MODEL 2
REMARK VINA RESULT:      -7.5      8.028     14.956
REMARK  Name = C:\Users\Docking\Desktop\test protocol\1iep_ligandH.pdb
REMARK  8 active torsions:
REMARK  status: ('A' for Active; 'I' for Inactive)
REMARK    1  A    between atoms: _5  and  _11
REMARK    2  A    between atoms: _19  and  _21
REMARK    3  A    between atoms: _22  and  _66
REMARK    4  A    between atoms: _27  and  _30
REMARK    5  A    between atoms: _32  and  _33
REMARK    6  A    between atoms: _38  and  _43
REMARK    7  A    between atoms: _43  and  _46
REMARK    8  A    between atoms: _53  and  _55
REMARK                            x       y       z     vdW  Elec       q    Type
REMARK                         _______ _______ _______ _____ _____    ______ ____
ROOT
ATOM     10  C   UNL     1      13.006  19.275   7.245  0.00  0.00    +0.038 A 
ATOM     11  C   UNL     1      12.339  18.031   7.100  0.00  0.00    +0.047 A 
ATOM     12  C   UNL     1      12.991  16.898   6.463  0.00  0.00    +0.035 A 
ATOM     32  C   UNL     1      14.324  17.065   5.987  0.00  0.00    +0.024 A 
ATOM     33  C   UNL     1      15.017  18.322   6.125  0.00  0.00    +0.007 A 
ATOM     34  C   UNL     1      14.378  19.444   6.750  0.00  0.00    -0.029 A 
ATOM     35  C   UNL     1      15.166  20.770   6.865  0.00  0.00    +0.045 C 
ENDROOT
BRANCH  10   9
ATOM      4  C   UNL     1      10.030  23.039   7.141  0.00  0.00    +0.077 A 
ATOM      5  C   UNL     1       9.820  22.909   5.728  0.00  0.00    +0.048 A 
ATOM      6  C   UNL     1      10.502  21.865   5.064  0.00  0.00    +0.116 A 
ATOM      7  N   UNL     1      11.329  21.019   5.771  0.00  0.00    -0.223 NA
ATOM      8  C   UNL     1      11.511  21.173   7.133  0.00  0.00    +0.220 A 
ATOM      9  N   UNL     1      12.333  20.330   7.865  0.00  0.00    -0.283 N 
ATOM     36  H   UNL     1      12.447  20.481   8.866  0.00  0.00    +0.155 HD
ATOM     37  N   UNL     1      10.873  22.164   7.789  0.00  0.00    -0.214 NA
BRANCH   4   3
ATOM      1  C   UNL     1       7.622  24.877   9.616  0.00  0.00    +0.020 A 
ATOM      2  C   UNL     1       8.214  23.826   8.821  0.00  0.00    +0.013 A 
ATOM      3  C   UNL     1       9.378  24.091   7.984  0.00  0.00    +0.019 A 
ATOM     38  C   UNL     1       9.923  25.440   7.974  0.00  0.00    +0.120 A 
ATOM     39  N   UNL     1       9.331  26.432   8.749  0.00  0.00    -0.263 NA
ATOM     40  C   UNL     1       8.210  26.190   9.557  0.00  0.00    +0.111 A 
ENDBRANCH   4   3
ENDBRANCH  10   9
BRANCH  12  13
ATOM     13  N   UNL     1      12.361  15.613   6.281  0.00  0.00    -0.281 N 
ATOM     14  C   UNL     1      11.442  15.245   5.312  0.00  0.00    +0.248 C 
ATOM     30  O   UNL     1      10.857  16.031   4.581  0.00  0.00    -0.270 OA
ATOM     31  H   UNL     1      12.625  14.887   6.947  0.00  0.00    +0.155 HD
BRANCH  14  15
ATOM     15  C   UNL     1      11.114  13.797   5.141  0.00  0.00    +0.037 A 
ATOM     16  C   UNL     1      11.641  12.785   6.060  0.00  0.00    +0.013 A 
ATOM     17  C   UNL     1      11.323  11.393   5.862  0.00  0.00    +0.005 A 
ATOM     18  C   UNL     1      10.470  11.006   4.740  0.00  0.00    -0.033 A 
ATOM     28  C   UNL     1       9.957  12.031   3.848  0.00  0.00    +0.005 A 
ATOM     29  C   UNL     1      10.267  13.396   4.038  0.00  0.00    +0.013 A 
BRANCH  18  19
ATOM     19  C   UNL     1      10.096   9.542   4.441  0.00  0.00    +0.119 C 
BRANCH  19  20
ATOM     20  N   UNL     1       8.668   9.148   4.631  0.00  0.00    -0.302 NA
ATOM     21  C   UNL     1       8.453   8.383   5.940  0.00  0.00    +0.066 C 
ATOM     22  C   UNL     1       6.950   7.999   6.134  0.00  0.00    -0.064 C 
ATOM     23  N   UNL     1       6.480   7.169   4.938  0.00  0.00    +0.379 N 
ATOM     24  C   UNL     1       5.084   6.757   5.144  0.00  0.00    -0.096 C 
ATOM     25  H   UNL     1       7.104   6.246   4.901  0.00  0.00    -0.082 HD
ATOM     26  C   UNL     1       6.693   7.922   3.632  0.00  0.00    -0.064 C 
ATOM     27  C   UNL     1       8.185   8.324   3.463  0.00  0.00    +0.066 C 
ENDBRANCH  19  20
ENDBRANCH  18  19
ENDBRANCH  14  15
ENDBRANCH  12  13
TORSDOF 6
ENDMDL
MODEL 3
REMARK VINA RESULT:      -7.3      3.176     13.119
REMARK  Name = C:\Users\Docking\Desktop\test protocol\1iep_ligandH.pdb
REMARK  8 active torsions:
REMARK  status: ('A' for Active; 'I' for Inactive)
REMARK    1  A    between atoms: _5  and  _11
REMARK    2  A    between atoms: _19  and  _21
REMARK    3  A    between atoms: _22  and  _66
REMARK    4  A    between atoms: _27  and  _30
REMARK    5  A    between atoms: _32  and  _33
REMARK    6  A    between atoms: _38  and  _43
REMARK    7  A    between atoms: _43  and  _46
REMARK    8  A    between atoms: _53  and  _55
REMARK                            x       y       z     vdW  Elec       q    Type
REMARK                         _______ _______ _______ _____ _____    ______ ____
ROOT
ATOM     10  C   UNL     1       9.598  30.753  11.113  0.00  0.00    +0.038 A 
ATOM     11  C   UNL     1       8.472  31.390  11.693  0.00  0.00    +0.047 A 
ATOM     12  C   UNL     1       8.528  32.782  12.113  0.00  0.00    +0.035 A 
ATOM     32  C   UNL     1       9.748  33.495  11.924  0.00  0.00    +0.024 A 
ATOM     33  C   UNL     1      10.902  32.862  11.337  0.00  0.00    +0.007 A 
ATOM     34  C   UNL     1      10.853  31.489  10.923  0.00  0.00    -0.029 A 
ATOM     35  C   UNL     1      12.124  30.860  10.306  0.00  0.00    +0.045 C 
ENDROOT
BRANCH  10   9
ATOM      4  C   UNL     1       8.797  27.346   7.828  0.00  0.00    +0.077 A 
ATOM      5  C   UNL     1       8.551  28.314   6.798  0.00  0.00    +0.048 A 
ATOM      6  C   UNL     1       8.633  29.678   7.157  0.00  0.00    +0.116 A 
ATOM      7  N   UNL     1       8.940  30.036   8.451  0.00  0.00    -0.223 NA
ATOM      8  C   UNL     1       9.170  29.077   9.421  0.00  0.00    +0.220 A 
ATOM      9  N   UNL     1       9.488  29.415  10.727  0.00  0.00    -0.283 N 
ATOM     36  H   UNL     1       9.643  28.678  11.415  0.00  0.00    +0.155 HD
ATOM     37  N   UNL     1       9.096  27.768   9.104  0.00  0.00    -0.214 NA
BRANCH   4   3
ATOM      1  C   UNL     1       7.639  23.610   7.796  0.00  0.00    +0.020 A 
ATOM      2  C   UNL     1       7.635  25.034   8.037  0.00  0.00    +0.013 A 
ATOM      3  C   UNL     1       8.750  25.866   7.604  0.00  0.00    +0.019 A 
ATOM     38  C   UNL     1       9.863  25.221   6.924  0.00  0.00    +0.120 A 
ATOM     39  N   UNL     1       9.840  23.846   6.707  0.00  0.00    -0.263 NA
ATOM     40  C   UNL     1       8.773  23.035   7.121  0.00  0.00    +0.111 A 
ENDBRANCH   4   3
ENDBRANCH  10   9
BRANCH  12  13
ATOM     13  N   UNL     1       7.419  33.480  12.715  0.00  0.00    -0.281 N 
ATOM     14  C   UNL     1       6.381  34.139  12.078  0.00  0.00    +0.248 C 
ATOM     30  O   UNL     1       6.363  34.412  10.887  0.00  0.00    -0.270 OA
ATOM     31  H   UNL     1       7.398  33.489  13.735  0.00  0.00    +0.155 HD
BRANCH  14  15
ATOM     15  C   UNL     1       5.198  34.570  12.883  0.00  0.00    +0.037 A 
ATOM     16  C   UNL     1       5.034  35.962  13.308  0.00  0.00    +0.013 A 
ATOM     17  C   UNL     1       3.892  36.348  14.098  0.00  0.00    +0.005 A 
ATOM     18  C   UNL     1       2.903  35.338  14.468  0.00  0.00    -0.033 A 
ATOM     28  C   UNL     1       3.087  33.965  14.029  0.00  0.00    +0.005 A 
ATOM     29  C   UNL     1       4.206  33.583  13.255  0.00  0.00    +0.013 A 
BRANCH  18  19
ATOM     19  C   UNL     1       1.664  35.656  15.327  0.00  0.00    +0.119 C 
BRANCH  19  20
ATOM     20  N   UNL     1       1.881  36.456  16.569  0.00  0.00    -0.302 NA
ATOM     21  C   UNL     1       2.509  35.622  17.689  0.00  0.00    +0.066 C 
ATOM     22  C   UNL     1       2.749  36.481  18.973  0.00  0.00    -0.064 C 
ATOM     23  N   UNL     1       1.422  37.090  19.430  0.00  0.00    +0.379 N 
ATOM     24  C   UNL     1       1.634  37.851  20.670  0.00  0.00    -0.096 C 
ATOM     25  H   UNL     1       0.727  36.251  19.663  0.00  0.00    -0.082 HD
ATOM     26  C   UNL     1       0.790  37.920  18.322  0.00  0.00    -0.064 C 
ATOM     27  C   UNL     1       0.583  37.064  17.041  0.00  0.00    +0.066 C 
ENDBRANCH  19  20
ENDBRANCH  18  19
ENDBRANCH  14  15
ENDBRANCH  12  13
TORSDOF 6
ENDMDL
