MODEL 1
REMARK VINA RESULT:      -6.0      0.000      0.000
REMARK  Name = C:\Users\Docking\Desktop\test protocol\1iep_ligandH.pdb
REMARK  8 active torsions:
REMARK  status: ('A' for Active; 'I' for Inactive)
REMARK    1  A    between atoms: _5  and  _11
REMARK    2  A    between atoms: _19  and  _21
REMARK    3  A    between atoms: _22  and  _66
REMARK    4  A    between atoms: _27  and  _30
REMARK    5  A    between atoms: _32  and  _33
REMARK    6  A    between atoms: _38  and  _43
REMARK    7  A    between atoms: _43  and  _46
REMARK    8  A    between atoms: _53  and  _55
REMARK                            x       y       z     vdW  Elec       q    Type
REMARK                         _______ _______ _______ _____ _____    ______ ____
ROOT
ATOM     10  C   UNL     1       2.277  10.729  26.705  0.00  0.00    +0.038 A 
ATOM     11  C   UNL     1       1.907   9.775  25.723  0.00  0.00    +0.047 A 
ATOM     12  C   UNL     1       1.887   8.353  26.026  0.00  0.00    +0.035 A 
ATOM     32  C   UNL     1       2.248   7.937  27.341  0.00  0.00    +0.024 A 
ATOM     33  C   UNL     1       2.628   8.893  28.351  0.00  0.00    +0.007 A 
ATOM     34  C   UNL     1       2.651  10.297  28.057  0.00  0.00    -0.029 A 
ATOM     35  C   UNL     1       3.073  11.277  29.177  0.00  0.00    +0.045 C 
ENDROOT
BRANCH  10   9
ATOM      4  C   UNL     1       0.110  14.991  26.282  0.00  0.00    +0.077 A 
ATOM      5  C   UNL     1      -1.137  14.472  26.764  0.00  0.00    +0.048 A 
ATOM      6  C   UNL     1      -1.181  13.101  27.104  0.00  0.00    +0.116 A 
ATOM      7  N   UNL     1      -0.055  12.318  26.967  0.00  0.00    -0.223 NA
ATOM      8  C   UNL     1       1.132  12.850  26.498  0.00  0.00    +0.220 A 
ATOM      9  N   UNL     1       2.278  12.083  26.360  0.00  0.00    -0.283 N 
ATOM     36  H   UNL     1       3.132  12.511  26.003  0.00  0.00    +0.155 HD
ATOM     37  N   UNL     1       1.199  14.156  26.165  0.00  0.00    -0.214 NA
BRANCH   4   3
ATOM      1  C   UNL     1       1.607  18.259  24.738  0.00  0.00    +0.020 A 
ATOM      2  C   UNL     1       1.456  16.867  25.094  0.00  0.00    +0.013 A 
ATOM      3  C   UNL     1       0.316  16.420  25.886  0.00  0.00    +0.019 A 
ATOM     38  C   UNL     1      -0.660  17.415  26.303  0.00  0.00    +0.120 A 
ATOM     39  N   UNL     1      -0.487  18.749  25.946  0.00  0.00    -0.263 NA
ATOM     40  C   UNL     1       0.606  19.191  25.187  0.00  0.00    +0.111 A 
ENDBRANCH   4   3
ENDBRANCH  10   9
BRANCH  12  13
ATOM     13  N   UNL     1       1.528   7.337  25.068  0.00  0.00    -0.281 N 
ATOM     14  C   UNL     1       2.374   6.537  24.318  0.00  0.00    +0.248 C 
ATOM     30  O   UNL     1       3.576   6.721  24.200  0.00  0.00    -0.270 OA
ATOM     31  H   UNL     1       0.529   7.191  24.924  0.00  0.00    +0.155 HD
BRANCH  14  15
ATOM     15  C   UNL     1       1.799   5.371  23.580  0.00  0.00    +0.037 A 
ATOM     16  C   UNL     1       2.233   5.043  22.219  0.00  0.00    +0.013 A 
ATOM     17  C   UNL     1       1.650   3.923  21.524  0.00  0.00    +0.005 A 
ATOM     18  C   UNL     1       0.627   3.121  22.190  0.00  0.00    -0.033 A 
ATOM     28  C   UNL     1       0.219   3.465  23.542  0.00  0.00    +0.005 A 
ATOM     29  C   UNL     1       0.787   4.562  24.226  0.00  0.00    +0.013 A 
BRANCH  18  19
ATOM     19  C   UNL     1      -0.065   1.921  21.516  0.00  0.00    +0.119 C 
BRANCH  19  20
ATOM     20  N   UNL     1      -1.482   2.104  21.082  0.00  0.00    -0.302 NA
ATOM     21  C   UNL     1      -2.184   0.766  20.834  0.00  0.00    +0.066 C 
ATOM     22  C   UNL     1      -3.672   0.975  20.402  0.00  0.00    -0.064 C 
ATOM     23  N   UNL     1      -3.718   1.851  19.149  0.00  0.00    +0.379 N 
ATOM     24  C   UNL     1      -5.112   2.002  18.707  0.00  0.00    -0.096 C 
ATOM     25  H   UNL     1      -3.163   1.317  18.343  0.00  0.00    -0.082 HD
ATOM     26  C   UNL     1      -3.019   3.183  19.385  0.00  0.00    -0.064 C 
ATOM     27  C   UNL     1      -1.550   2.962  19.843  0.00  0.00    +0.066 C 
ENDBRANCH  19  20
ENDBRANCH  18  19
ENDBRANCH  14  15
ENDBRANCH  12  13
TORSDOF 6
ENDMDL
MODEL 2
REMARK VINA RESULT:      -5.9      4.555      7.359
REMARK  Name = C:\Users\Docking\Desktop\test protocol\1iep_ligandH.pdb
REMARK  8 active torsions:
REMARK  status: ('A' for Active; 'I' for Inactive)
REMARK    1  A    between atoms: _5  and  _11
REMARK    2  A    between atoms: _19  and  _21
REMARK    3  A    between atoms: _22  and  _66
REMARK    4  A    between atoms: _27  and  _30
REMARK    5  A    between atoms: _32  and  _33
REMARK    6  A    between atoms: _38  and  _43
REMARK    7  A    between atoms: _43  and  _46
REMARK    8  A    between atoms: _53  and  _55
REMARK                            x       y       z     vdW  Elec       q    Type
REMARK                         _______ _______ _______ _____ _____    ______ ____
ROOT
ATOM     10  C   UNL     1      -1.534  12.888  28.719  0.00  0.00    +0.038 A 
ATOM     11  C   UNL     1      -0.743  11.857  28.152  0.00  0.00    +0.047 A 
ATOM     12  C   UNL     1      -0.146  12.003  26.834  0.00  0.00    +0.035 A 
ATOM     32  C   UNL     1      -0.374  13.216  26.120  0.00  0.00    +0.024 A 
ATOM     33  C   UNL     1      -1.177  14.275  26.680  0.00  0.00    +0.007 A 
ATOM     34  C   UNL     1      -1.770  14.135  27.980  0.00  0.00    -0.029 A 
ATOM     35  C   UNL     1      -2.627  15.299  28.528  0.00  0.00    +0.045 C 
ENDROOT
BRANCH  10   9
ATOM      4  C   UNL     1      -4.427  10.574  31.771  0.00  0.00    +0.077 A 
ATOM      5  C   UNL     1      -4.906   9.695  30.743  0.00  0.00    +0.048 A 
ATOM      6  C   UNL     1      -4.388   9.876  29.441  0.00  0.00    +0.116 A 
ATOM      7  N   UNL     1      -3.460  10.866  29.197  0.00  0.00    -0.223 NA
ATOM      8  C   UNL     1      -3.021  11.698  30.210  0.00  0.00    +0.220 A 
ATOM      9  N   UNL     1      -2.083  12.694  29.988  0.00  0.00    -0.283 N 
ATOM     36  H   UNL     1      -1.790  13.292  30.761  0.00  0.00    +0.155 HD
ATOM     37  N   UNL     1      -3.501  11.546  31.462  0.00  0.00    -0.214 NA
BRANCH   4   3
ATOM      1  C   UNL     1      -5.882  11.522  35.276  0.00  0.00    +0.020 A 
ATOM      2  C   UNL     1      -5.463  11.641  33.898  0.00  0.00    +0.013 A 
ATOM      3  C   UNL     1      -4.876  10.506  33.197  0.00  0.00    +0.019 A 
ATOM     38  C   UNL     1      -4.727   9.254  33.924  0.00  0.00    +0.120 A 
ATOM     39  N   UNL     1      -5.137   9.170  35.251  0.00  0.00    -0.263 NA
ATOM     40  C   UNL     1      -5.702  10.256  35.937  0.00  0.00    +0.111 A 
ENDBRANCH   4   3
ENDBRANCH  10   9
BRANCH  12  13
ATOM     13  N   UNL     1       0.660  10.987  26.204  0.00  0.00    -0.281 N 
ATOM     14  C   UNL     1       1.475  10.048  26.814  0.00  0.00    +0.248 C 
ATOM     30  O   UNL     1       1.802  10.077  27.991  0.00  0.00    -0.270 OA
ATOM     31  H   UNL     1       0.625  10.956  25.185  0.00  0.00    +0.155 HD
BRANCH  14  15
ATOM     15  C   UNL     1       2.017   8.921  25.995  0.00  0.00    +0.037 A 
ATOM     16  C   UNL     1       1.677   8.781  24.577  0.00  0.00    +0.013 A 
ATOM     17  C   UNL     1       2.200   7.675  23.814  0.00  0.00    +0.005 A 
ATOM     18  C   UNL     1       3.070   6.701  24.468  0.00  0.00    -0.033 A 
ATOM     28  C   UNL     1       3.396   6.868  25.875  0.00  0.00    +0.005 A 
ATOM     29  C   UNL     1       2.884   7.950  26.626  0.00  0.00    +0.013 A 
BRANCH  18  19
ATOM     19  C   UNL     1       3.656   5.479  23.737  0.00  0.00    +0.119 C 
BRANCH  19  20
ATOM     20  N   UNL     1       2.690   4.472  23.206  0.00  0.00    -0.302 NA
ATOM     21  C   UNL     1       2.379   4.700  21.724  0.00  0.00    +0.066 C 
ATOM     22  C   UNL     1       1.384   3.624  21.179  0.00  0.00    -0.064 C 
ATOM     23  N   UNL     1       0.102   3.651  22.012  0.00  0.00    +0.379 N 
ATOM     24  C   UNL     1      -0.859   2.681  21.466  0.00  0.00    -0.096 C 
ATOM     25  H   UNL     1      -0.347   4.667  21.908  0.00  0.00    -0.082 HD
ATOM     26  C   UNL     1       0.402   3.428  23.487  0.00  0.00    -0.064 C 
ATOM     27  C   UNL     1       1.414   4.485  24.011  0.00  0.00    +0.066 C 
ENDBRANCH  19  20
ENDBRANCH  18  19
ENDBRANCH  14  15
ENDBRANCH  12  13
TORSDOF 6
ENDMDL
MODEL 3
REMARK VINA RESULT:      -5.9      1.916      2.384
REMARK  Name = C:\Users\Docking\Desktop\test protocol\1iep_ligandH.pdb
REMARK  8 active torsions:
REMARK  status: ('A' for Active; 'I' for Inactive)
REMARK    1  A    between atoms: _5  and  _11
REMARK    2  A    between atoms: _19  and  _21
REMARK    3  A    between atoms: _22  and  _66
REMARK    4  A    between atoms: _27  and  _30
REMARK    5  A    between atoms: _32  and  _33
REMARK    6  A    between atoms: _38  and  _43
REMARK    7  A    between atoms: _43  and  _46
REMARK    8  A    between atoms: _53  and  _55
REMARK                            x       y       z     vdW  Elec       q    Type
REMARK                         _______ _______ _______ _____ _____    ______ ____
ROOT
ATOM     10  C   UNL     1       1.792  10.666  26.502  0.00  0.00    +0.038 A 
ATOM     11  C   UNL     1       1.451   9.496  25.775  0.00  0.00    +0.047 A 
ATOM     12  C   UNL     1       1.839   8.177  26.249  0.00  0.00    +0.035 A 
ATOM     32  C   UNL     1       2.571   8.085  27.469  0.00  0.00    +0.024 A 
ATOM     33  C   UNL     1       2.926   9.264  28.219  0.00  0.00    +0.007 A 
ATOM     34  C   UNL     1       2.549  10.568  27.756  0.00  0.00    -0.029 A 
ATOM     35  C   UNL     1       2.962  11.797  28.598  0.00  0.00    +0.045 C 
ENDROOT
BRANCH  10   9
ATOM      4  C   UNL     1      -1.141  14.465  26.445  0.00  0.00    +0.077 A 
ATOM      5  C   UNL     1      -1.966  13.918  27.483  0.00  0.00    +0.048 A 
ATOM      6  C   UNL     1      -1.606  12.653  28.000  0.00  0.00    +0.116 A 
ATOM      7  N   UNL     1      -0.500  11.994  27.508  0.00  0.00    -0.223 NA
ATOM      8  C   UNL     1       0.273  12.549  26.505  0.00  0.00    +0.220 A 
ATOM      9  N   UNL     1       1.394  11.908  26.001  0.00  0.00    -0.283 N 
ATOM     36  H   UNL     1       1.934  12.347  25.256  0.00  0.00    +0.155 HD
ATOM     37  N   UNL     1      -0.051  13.755  25.994  0.00  0.00    -0.214 NA
BRANCH   4   3
ATOM      1  C   UNL     1      -0.642  17.829  24.512  0.00  0.00    +0.020 A 
ATOM      2  C   UNL     1      -0.348  16.551  25.119  0.00  0.00    +0.013 A 
ATOM      3  C   UNL     1      -1.390  15.793  25.800  0.00  0.00    +0.019 A 
ATOM     38  C   UNL     1      -2.730  16.360  25.849  0.00  0.00    +0.120 A 
ATOM     39  N   UNL     1      -2.982  17.593  25.257  0.00  0.00    -0.263 NA
ATOM     40  C   UNL     1      -1.987  18.333  24.600  0.00  0.00    +0.111 A 
ENDBRANCH   4   3
ENDBRANCH  10   9
BRANCH  12  13
ATOM     13  N   UNL     1       1.529   6.955  25.550  0.00  0.00    -0.281 N 
ATOM     14  C   UNL     1       1.967   6.555  24.298  0.00  0.00    +0.248 C 
ATOM     30  O   UNL     1       2.524   7.287  23.494  0.00  0.00    -0.270 OA
ATOM     31  H   UNL     1       0.911   6.305  26.037  0.00  0.00    +0.155 HD
BRANCH  14  15
ATOM     15  C   UNL     1       1.740   5.140  23.871  0.00  0.00    +0.037 A 
ATOM     16  C   UNL     1       0.506   4.431  24.218  0.00  0.00    +0.013 A 
ATOM     17  C   UNL     1       0.319   3.061  23.808  0.00  0.00    +0.005 A 
ATOM     18  C   UNL     1       1.371   2.393  23.046  0.00  0.00    -0.033 A 
ATOM     28  C   UNL     1       2.583   3.122  22.711  0.00  0.00    +0.005 A 
ATOM     29  C   UNL     1       2.769   4.464  23.111  0.00  0.00    +0.013 A 
BRANCH  18  19
ATOM     19  C   UNL     1       1.266   0.927  22.585  0.00  0.00    +0.119 C 
BRANCH  19  20
ATOM     20  N   UNL     1      -0.079   0.282  22.656  0.00  0.00    -0.302 NA
ATOM     21  C   UNL     1      -0.020  -1.100  23.314  0.00  0.00    +0.066 C 
ATOM     22  C   UNL     1      -1.439  -1.750  23.400  0.00  0.00    -0.064 C 
ATOM     23  N   UNL     1      -2.040  -1.844  21.997  0.00  0.00    +0.379 N 
ATOM     24  C   UNL     1      -3.350  -2.508  22.067  0.00  0.00    -0.096 C 
ATOM     25  H   UNL     1      -1.367  -2.487  21.383  0.00  0.00    -0.082 HD
ATOM     26  C   UNL     1      -2.100  -0.475  21.334  0.00  0.00    -0.064 C 
ATOM     27  C   UNL     1      -0.689   0.175  21.280  0.00  0.00    +0.066 C 
ENDBRANCH  19  20
ENDBRANCH  18  19
ENDBRANCH  14  15
ENDBRANCH  12  13
TORSDOF 6
ENDMDL
