MODEL 1
REMARK VINA RESULT:      -8.7      0.000      0.000
REMARK  Name = C:\Users\Docking\Desktop\test protocol\1iep_ligandH.pdb
REMARK  8 active torsions:
REMARK  status: ('A' for Active; 'I' for Inactive)
REMARK    1  A    between atoms: _5  and  _11
REMARK    2  A    between atoms: _19  and  _21
REMARK    3  A    between atoms: _22  and  _66
REMARK    4  A    between atoms: _27  and  _30
REMARK    5  A    between atoms: _32  and  _33
REMARK    6  A    between atoms: _38  and  _43
REMARK    7  A    between atoms: _43  and  _46
REMARK    8  A    between atoms: _53  and  _55
REMARK                            x       y       z     vdW  Elec       q    Type
REMARK                         _______ _______ _______ _____ _____    ______ ____
ROOT
ATOM     10  C   UNL     1      29.083  22.213  16.563  0.00  0.00    +0.038 A 
ATOM     11  C   UNL     1      28.625  22.501  15.252  0.00  0.00    +0.047 A 
ATOM     12  C   UNL     1      28.715  23.845  14.702  0.00  0.00    +0.035 A 
ATOM     32  C   UNL     1      29.280  24.871  15.514  0.00  0.00    +0.024 A 
ATOM     33  C   UNL     1      29.749  24.596  16.849  0.00  0.00    +0.007 A 
ATOM     34  C   UNL     1      29.661  23.273  17.398  0.00  0.00    -0.029 A 
ATOM     35  C   UNL     1      30.174  23.037  18.837  0.00  0.00    +0.045 C 
ENDROOT
BRANCH  10   9
ATOM      4  C   UNL     1      30.809  17.780  17.200  0.00  0.00    +0.077 A 
ATOM      5  C   UNL     1      32.022  18.088  16.499  0.00  0.00    +0.048 A 
ATOM      6  C   UNL     1      32.160  19.396  15.984  0.00  0.00    +0.116 A 
ATOM      7  N   UNL     1      31.153  20.320  16.162  0.00  0.00    -0.223 NA
ATOM      8  C   UNL     1      29.995  19.990  16.842  0.00  0.00    +0.220 A 
ATOM      9  N   UNL     1      28.973  20.905  17.040  0.00  0.00    -0.283 N 
ATOM     36  H   UNL     1      28.131  20.621  17.541  0.00  0.00    +0.155 HD
ATOM     37  N   UNL     1      29.839  18.747  17.343  0.00  0.00    -0.214 NA
BRANCH   4   3
ATOM      1  C   UNL     1      30.750  14.714  19.629  0.00  0.00    +0.020 A 
ATOM      2  C   UNL     1      31.063  16.017  19.088  0.00  0.00    +0.013 A 
ATOM      3  C   UNL     1      30.517  16.442  17.806  0.00  0.00    +0.019 A 
ATOM     38  C   UNL     1      29.650  15.519  17.090  0.00  0.00    +0.120 A 
ATOM     39  N   UNL     1      29.367  14.270  17.635  0.00  0.00    -0.263 NA
ATOM     40  C   UNL     1      29.888  13.849  18.867  0.00  0.00    +0.111 A 
ENDBRANCH   4   3
ENDBRANCH  10   9
BRANCH  12  13
ATOM     13  N   UNL     1      28.259  24.199  13.381  0.00  0.00    -0.281 N 
ATOM     14  C   UNL     1      26.980  24.559  12.989  0.00  0.00    +0.248 C 
ATOM     30  O   UNL     1      25.981  24.424  13.681  0.00  0.00    -0.270 OA
ATOM     31  H   UNL     1      28.965  24.182  12.644  0.00  0.00    +0.155 HD
BRANCH  14  15
ATOM     15  C   UNL     1      26.778  25.140  11.627  0.00  0.00    +0.037 A 
ATOM     16  C   UNL     1      27.024  24.349  10.419  0.00  0.00    +0.013 A 
ATOM     17  C   UNL     1      26.838  24.939   9.117  0.00  0.00    +0.005 A 
ATOM     18  C   UNL     1      26.402  26.329   9.017  0.00  0.00    -0.033 A 
ATOM     28  C   UNL     1      26.160  27.091  10.232  0.00  0.00    +0.005 A 
ATOM     29  C   UNL     1      26.343  26.516  11.509  0.00  0.00    +0.013 A 
BRANCH  18  19
ATOM     19  C   UNL     1      26.198  27.047   7.669  0.00  0.00    +0.119 C 
BRANCH  19  20
ATOM     20  N   UNL     1      26.613  28.480   7.588  0.00  0.00    -0.302 NA
ATOM     21  C   UNL     1      25.902  29.220   6.452  0.00  0.00    +0.066 C 
ATOM     22  C   UNL     1      26.330  30.722   6.395  0.00  0.00    -0.064 C 
ATOM     23  N   UNL     1      27.848  30.811   6.233  0.00  0.00    +0.379 N 
ATOM     24  C   UNL     1      28.248  32.222   6.122  0.00  0.00    -0.096 C 
ATOM     25  H   UNL     1      28.116  30.307   5.276  0.00  0.00    -0.082 HD
ATOM     26  C   UNL     1      28.563  30.076   7.358  0.00  0.00    -0.064 C 
ATOM     27  C   UNL     1      28.108  28.591   7.424  0.00  0.00    +0.066 C 
ENDBRANCH  19  20
ENDBRANCH  18  19
ENDBRANCH  14  15
ENDBRANCH  12  13
TORSDOF 6
ENDMDL
MODEL 2
REMARK VINA RESULT:      -8.6      5.242      7.902
REMARK  Name = C:\Users\Docking\Desktop\test protocol\1iep_ligandH.pdb
REMARK  8 active torsions:
REMARK  status: ('A' for Active; 'I' for Inactive)
REMARK    1  A    between atoms: _5  and  _11
REMARK    2  A    between atoms: _19  and  _21
REMARK    3  A    between atoms: _22  and  _66
REMARK    4  A    between atoms: _27  and  _30
REMARK    5  A    between atoms: _32  and  _33
REMARK    6  A    between atoms: _38  and  _43
REMARK    7  A    between atoms: _43  and  _46
REMARK    8  A    between atoms: _53  and  _55
REMARK                            x       y       z     vdW  Elec       q    Type
REMARK                         _______ _______ _______ _____ _____    ______ ____
ROOT
ATOM     10  C   UNL     1      30.025  19.542  23.150  0.00  0.00    +0.038 A 
ATOM     11  C   UNL     1      30.216  20.235  21.928  0.00  0.00    +0.047 A 
ATOM     12  C   UNL     1      29.405  21.392  21.584  0.00  0.00    +0.035 A 
ATOM     32  C   UNL     1      28.409  21.818  22.511  0.00  0.00    +0.024 A 
ATOM     33  C   UNL     1      28.200  21.124  23.757  0.00  0.00    +0.007 A 
ATOM     34  C   UNL     1      28.996  19.981  24.100  0.00  0.00    -0.029 A 
ATOM     35  C   UNL     1      28.724  19.271  25.447  0.00  0.00    +0.045 C 
ENDROOT
BRANCH  10   9
ATOM      4  C   UNL     1      34.170  17.577  24.561  0.00  0.00    +0.077 A 
ATOM      5  C   UNL     1      34.789  18.860  24.732  0.00  0.00    +0.048 A 
ATOM      6  C   UNL     1      34.008  20.000  24.439  0.00  0.00    +0.116 A 
ATOM      7  N   UNL     1      32.707  19.857  24.009  0.00  0.00    -0.223 NA
ATOM      8  C   UNL     1      32.141  18.604  23.853  0.00  0.00    +0.220 A 
ATOM      9  N   UNL     1      30.832  18.436  23.429  0.00  0.00    -0.283 N 
ATOM     36  H   UNL     1      30.455  17.496  23.319  0.00  0.00    +0.155 HD
ATOM     37  N   UNL     1      32.867  17.500  24.125  0.00  0.00    -0.214 NA
BRANCH   4   3
ATOM      1  C   UNL     1      35.888  14.093  24.098  0.00  0.00    +0.020 A 
ATOM      2  C   UNL     1      35.217  15.333  23.782  0.00  0.00    +0.013 A 
ATOM      3  C   UNL     1      34.865  16.278  24.833  0.00  0.00    +0.019 A 
ATOM     38  C   UNL     1      35.208  15.937  26.205  0.00  0.00    +0.120 A 
ATOM     39  N   UNL     1      35.853  14.734  26.480  0.00  0.00    -0.263 NA
ATOM     40  C   UNL     1      36.195  13.816  25.476  0.00  0.00    +0.111 A 
ENDBRANCH   4   3
ENDBRANCH  10   9
BRANCH  12  13
ATOM     13  N   UNL     1      29.548  22.131  20.354  0.00  0.00    -0.281 N 
ATOM     14  C   UNL     1      29.823  21.636  19.090  0.00  0.00    +0.248 C 
ATOM     30  O   UNL     1      30.201  20.497  18.862  0.00  0.00    -0.270 OA
ATOM     31  H   UNL     1      29.433  23.143  20.424  0.00  0.00    +0.155 HD
BRANCH  14  15
ATOM     15  C   UNL     1      29.671  22.541  17.911  0.00  0.00    +0.037 A 
ATOM     16  C   UNL     1      29.428  23.976  18.081  0.00  0.00    +0.013 A 
ATOM     17  C   UNL     1      29.267  24.824  16.926  0.00  0.00    +0.005 A 
ATOM     18  C   UNL     1      29.350  24.239  15.590  0.00  0.00    -0.033 A 
ATOM     28  C   UNL     1      29.597  22.813  15.451  0.00  0.00    +0.005 A 
ATOM     29  C   UNL     1      29.754  21.979  16.580  0.00  0.00    +0.013 A 
BRANCH  18  19
ATOM     19  C   UNL     1      29.170  25.064  14.303  0.00  0.00    +0.119 C 
BRANCH  19  20
ATOM     20  N   UNL     1      27.878  24.914  13.570  0.00  0.00    -0.302 NA
ATOM     21  C   UNL     1      28.034  24.080  12.295  0.00  0.00    +0.066 C 
ATOM     22  C   UNL     1      26.668  23.915  11.552  0.00  0.00    -0.064 C 
ATOM     23  N   UNL     1      26.095  25.296  11.229  0.00  0.00    +0.379 N 
ATOM     24  C   UNL     1      24.840  25.144  10.480  0.00  0.00    -0.096 C 
ATOM     25  H   UNL     1      26.824  25.817  10.566  0.00  0.00    -0.082 HD
ATOM     26  C   UNL     1      25.940  26.133  12.491  0.00  0.00    -0.064 C 
ATOM     27  C   UNL     1      27.297  26.267  13.237  0.00  0.00    +0.066 C 
ENDBRANCH  19  20
ENDBRANCH  18  19
ENDBRANCH  14  15
ENDBRANCH  12  13
TORSDOF 6
ENDMDL
MODEL 3
REMARK VINA RESULT:      -8.4      6.058     16.002
REMARK  Name = C:\Users\Docking\Desktop\test protocol\1iep_ligandH.pdb
REMARK  8 active torsions:
REMARK  status: ('A' for Active; 'I' for Inactive)
REMARK    1  A    between atoms: _5  and  _11
REMARK    2  A    between atoms: _19  and  _21
REMARK    3  A    between atoms: _22  and  _66
REMARK    4  A    between atoms: _27  and  _30
REMARK    5  A    between atoms: _32  and  _33
REMARK    6  A    between atoms: _38  and  _43
REMARK    7  A    between atoms: _43  and  _46
REMARK    8  A    between atoms: _53  and  _55
REMARK                            x       y       z     vdW  Elec       q    Type
REMARK                         _______ _______ _______ _____ _____    ______ ____
ROOT
ATOM     10  C   UNL     1      28.695  21.650  21.401  0.00  0.00    +0.038 A 
ATOM     11  C   UNL     1      29.897  20.934  21.631  0.00  0.00    +0.047 A 
ATOM     12  C   UNL     1      30.008  19.981  22.724  0.00  0.00    +0.035 A 
ATOM     32  C   UNL     1      28.873  19.779  23.562  0.00  0.00    +0.024 A 
ATOM     33  C   UNL     1      27.643  20.499  23.343  0.00  0.00    +0.007 A 
ATOM     34  C   UNL     1      27.529  21.443  22.268  0.00  0.00    -0.029 A 
ATOM     35  C   UNL     1      26.188  22.191  22.084  0.00  0.00    +0.045 C 
ENDROOT
BRANCH  10   9
ATOM      4  C   UNL     1      28.146  22.678  16.745  0.00  0.00    +0.077 A 
ATOM      5  C   UNL     1      27.973  21.297  16.399  0.00  0.00    +0.048 A 
ATOM      6  C   UNL     1      28.039  20.352  17.448  0.00  0.00    +0.116 A 
ATOM      7  N   UNL     1      28.262  20.770  18.743  0.00  0.00    -0.223 NA
ATOM      8  C   UNL     1      28.426  22.110  19.041  0.00  0.00    +0.220 A 
ATOM      9  N   UNL     1      28.644  22.553  20.337  0.00  0.00    -0.283 N 
ATOM     36  H   UNL     1      28.768  23.550  20.515  0.00  0.00    +0.155 HD
ATOM     37  N   UNL     1      28.369  23.031  18.057  0.00  0.00    -0.214 NA
BRANCH   4   3
ATOM      1  C   UNL     1      29.196  25.461  14.204  0.00  0.00    +0.020 A 
ATOM      2  C   UNL     1      29.296  24.384  15.162  0.00  0.00    +0.013 A 
ATOM      3  C   UNL     1      28.099  23.795  15.748  0.00  0.00    +0.019 A 
ATOM     38  C   UNL     1      26.806  24.321  15.340  0.00  0.00    +0.120 A 
ATOM     39  N   UNL     1      26.740  25.359  14.416  0.00  0.00    -0.263 NA
ATOM     40  C   UNL     1      27.885  25.936  13.846  0.00  0.00    +0.111 A 
ENDBRANCH   4   3
ENDBRANCH  10   9
BRANCH  12  13
ATOM     13  N   UNL     1      31.206  19.231  23.011  0.00  0.00    -0.281 N 
ATOM     14  C   UNL     1      32.313  19.640  23.738  0.00  0.00    +0.248 C 
ATOM     30  O   UNL     1      32.532  20.794  24.073  0.00  0.00    -0.270 OA
ATOM     31  H   UNL     1      31.242  18.285  22.633  0.00  0.00    +0.155 HD
BRANCH  14  15
ATOM     15  C   UNL     1      33.330  18.621  24.138  0.00  0.00    +0.037 A 
ATOM     16  C   UNL     1      34.517  18.995  24.910  0.00  0.00    +0.013 A 
ATOM     17  C   UNL     1      35.492  17.994  25.269  0.00  0.00    +0.005 A 
ATOM     18  C   UNL     1      35.281  16.609  24.855  0.00  0.00    -0.033 A 
ATOM     28  C   UNL     1      34.092  16.265  24.094  0.00  0.00    +0.005 A 
ATOM     29  C   UNL     1      33.135  17.243  23.740  0.00  0.00    +0.013 A 
BRANCH  18  19
ATOM     19  C   UNL     1      36.279  15.480  25.175  0.00  0.00    +0.119 C 
BRANCH  19  20
ATOM     20  N   UNL     1      35.729  14.098  25.304  0.00  0.00    -0.302 NA
ATOM     21  C   UNL     1      35.796  13.584  26.745  0.00  0.00    +0.066 C 
ATOM     22  C   UNL     1      35.196  12.146  26.865  0.00  0.00    -0.064 C 
ATOM     23  N   UNL     1      35.943  11.204  25.919  0.00  0.00    +0.379 N 
ATOM     24  C   UNL     1      35.420   9.838  26.072  0.00  0.00    -0.096 C 
ATOM     25  H   UNL     1      37.014  11.193  26.229  0.00  0.00    -0.082 HD
ATOM     26  C   UNL     1      35.884  11.708  24.484  0.00  0.00    -0.064 C 
ATOM     27  C   UNL     1      36.455  13.150  24.381  0.00  0.00    +0.066 C 
ENDBRANCH  19  20
ENDBRANCH  18  19
ENDBRANCH  14  15
ENDBRANCH  12  13
TORSDOF 6
ENDMDL
