MODEL 1
REMARK VINA RESULT:      -8.4      0.000      0.000
REMARK  Name = C:\Users\Docking\Desktop\test protocol\1iep_ligandH.pdb
REMARK  8 active torsions:
REMARK  status: ('A' for Active; 'I' for Inactive)
REMARK    1  A    between atoms: _5  and  _11
REMARK    2  A    between atoms: _19  and  _21
REMARK    3  A    between atoms: _22  and  _66
REMARK    4  A    between atoms: _27  and  _30
REMARK    5  A    between atoms: _32  and  _33
REMARK    6  A    between atoms: _38  and  _43
REMARK    7  A    between atoms: _43  and  _46
REMARK    8  A    between atoms: _53  and  _55
REMARK                            x       y       z     vdW  Elec       q    Type
REMARK                         _______ _______ _______ _____ _____    ______ ____
ROOT
ATOM     10  C   UNL     1      94.285  39.923  84.004  0.00  0.00    +0.038 A 
ATOM     11  C   UNL     1      94.206  40.808  85.109  0.00  0.00    +0.047 A 
ATOM     12  C   UNL     1      92.982  40.937  85.884  0.00  0.00    +0.035 A 
ATOM     32  C   UNL     1      91.857  40.148  85.506  0.00  0.00    +0.024 A 
ATOM     33  C   UNL     1      91.919  39.244  84.385  0.00  0.00    +0.007 A 
ATOM     34  C   UNL     1      93.123  39.114  83.615  0.00  0.00    -0.029 A 
ATOM     35  C   UNL     1      93.130  38.134  82.419  0.00  0.00    +0.045 C 
ENDROOT
BRANCH  10   9
ATOM      4  C   UNL     1      97.122  41.129  80.325  0.00  0.00    +0.077 A 
ATOM      5  C   UNL     1      96.119  41.979  79.753  0.00  0.00    +0.048 A 
ATOM      6  C   UNL     1      94.883  42.073  80.432  0.00  0.00    +0.116 A 
ATOM      7  N   UNL     1      94.678  41.365  81.597  0.00  0.00    -0.223 NA
ATOM      8  C   UNL     1      95.667  40.553  82.121  0.00  0.00    +0.220 A 
ATOM      9  N   UNL     1      95.485  39.838  83.295  0.00  0.00    -0.283 N 
ATOM     36  H   UNL     1      96.236  39.244  83.645  0.00  0.00    +0.155 HD
ATOM     37  N   UNL     1      96.855  40.445  81.490  0.00  0.00    -0.214 NA
BRANCH   4   3
ATOM      1  C   UNL     1     100.720  39.775  79.601  0.00  0.00    +0.020 A 
ATOM      2  C   UNL     1      99.421  39.929  80.215  0.00  0.00    +0.013 A 
ATOM      3  C   UNL     1      98.480  40.928  79.727  0.00  0.00    +0.019 A 
ATOM     38  C   UNL     1      98.886  41.763  78.606  0.00  0.00    +0.120 A 
ATOM     39  N   UNL     1     100.144  41.594  78.036  0.00  0.00    -0.263 NA
ATOM     40  C   UNL     1     101.059  40.636  78.498  0.00  0.00    +0.111 A 
ENDBRANCH   4   3
ENDBRANCH  10   9
BRANCH  12  13
ATOM     13  N   UNL     1      92.841  41.825  87.011  0.00  0.00    -0.281 N 
ATOM     14  C   UNL     1      92.001  42.920  87.133  0.00  0.00    +0.248 C 
ATOM     30  O   UNL     1      91.394  43.432  86.204  0.00  0.00    -0.270 OA
ATOM     31  H   UNL     1      93.432  41.622  87.817  0.00  0.00    +0.155 HD
BRANCH  14  15
ATOM     15  C   UNL     1      91.820  43.545  88.478  0.00  0.00    +0.037 A 
ATOM     16  C   UNL     1      92.079  44.971  88.694  0.00  0.00    +0.013 A 
ATOM     17  C   UNL     1      91.913  45.546  90.006  0.00  0.00    +0.005 A 
ATOM     18  C   UNL     1      91.485  44.693  91.113  0.00  0.00    -0.033 A 
ATOM     28  C   UNL     1      91.231  43.283  90.869  0.00  0.00    +0.005 A 
ATOM     29  C   UNL     1      91.393  42.716  89.585  0.00  0.00    +0.013 A 
BRANCH  18  19
ATOM     19  C   UNL     1      91.303  45.216  92.550  0.00  0.00    +0.119 C 
BRANCH  19  20
ATOM     20  N   UNL     1      92.026  46.470  92.917  0.00  0.00    -0.302 NA
ATOM     21  C   UNL     1      92.800  46.323  94.230  0.00  0.00    +0.066 C 
ATOM     22  C   UNL     1      93.568  47.637  94.588  0.00  0.00    -0.064 C 
ATOM     23  N   UNL     1      92.576  48.798  94.672  0.00  0.00    +0.379 N 
ATOM     24  C   UNL     1      93.286  50.024  95.065  0.00  0.00    -0.096 C 
ATOM     25  H   UNL     1      91.843  48.559  95.477  0.00  0.00    -0.082 HD
ATOM     26  C   UNL     1      91.799  48.950  93.371  0.00  0.00    -0.064 C 
ATOM     27  C   UNL     1      91.064  47.629  93.010  0.00  0.00    +0.066 C 
ENDBRANCH  19  20
ENDBRANCH  18  19
ENDBRANCH  14  15
ENDBRANCH  12  13
TORSDOF 6
ENDMDL
MODEL 2
REMARK VINA RESULT:      -8.2     22.708     25.777
REMARK  Name = C:\Users\Docking\Desktop\test protocol\1iep_ligandH.pdb
REMARK  8 active torsions:
REMARK  status: ('A' for Active; 'I' for Inactive)
REMARK    1  A    between atoms: _5  and  _11
REMARK    2  A    between atoms: _19  and  _21
REMARK    3  A    between atoms: _22  and  _66
REMARK    4  A    between atoms: _27  and  _30
REMARK    5  A    between atoms: _32  and  _33
REMARK    6  A    between atoms: _38  and  _43
REMARK    7  A    between atoms: _43  and  _46
REMARK    8  A    between atoms: _53  and  _55
REMARK                            x       y       z     vdW  Elec       q    Type
REMARK                         _______ _______ _______ _____ _____    ______ ____
ROOT
ATOM     10  C   UNL     1     106.612  30.873 107.689  0.00  0.00    +0.038 A 
ATOM     11  C   UNL     1     106.051  32.137 107.374  0.00  0.00    +0.047 A 
ATOM     12  C   UNL     1     106.629  33.367 107.893  0.00  0.00    +0.035 A 
ATOM     32  C   UNL     1     107.781  33.273 108.727  0.00  0.00    +0.024 A 
ATOM     33  C   UNL     1     108.364  31.997 109.058  0.00  0.00    +0.007 A 
ATOM     34  C   UNL     1     107.796  30.780 108.552  0.00  0.00    -0.029 A 
ATOM     35  C   UNL     1     108.459  29.439 108.945  0.00  0.00    +0.045 C 
ENDROOT
BRANCH  10   9
ATOM      4  C   UNL     1     106.290  27.404 104.388  0.00  0.00    +0.077 A 
ATOM      5  C   UNL     1     107.384  27.941 103.631  0.00  0.00    +0.048 A 
ATOM      6  C   UNL     1     107.997  29.116 104.121  0.00  0.00    +0.116 A 
ATOM      7  N   UNL     1     107.543  29.700 105.284  0.00  0.00    -0.223 NA
ATOM      8  C   UNL     1     106.485  29.157 105.989  0.00  0.00    +0.220 A 
ATOM      9  N   UNL     1     106.017  29.724 107.164  0.00  0.00    -0.283 N 
ATOM     36  H   UNL     1     105.229  29.297 107.651  0.00  0.00    +0.155 HD
ATOM     37  N   UNL     1     105.881  28.037 105.540  0.00  0.00    -0.214 NA
BRANCH   4   3
ATOM      1  C   UNL     1     104.815  23.781 104.382  0.00  0.00    +0.020 A 
ATOM      2  C   UNL     1     105.556  24.949 104.800  0.00  0.00    +0.013 A 
ATOM      3  C   UNL     1     105.541  26.167 104.000  0.00  0.00    +0.019 A 
ATOM     38  C   UNL     1     104.760  26.171 102.773  0.00  0.00    +0.120 A 
ATOM     39  N   UNL     1     104.058  25.031 102.394  0.00  0.00    -0.263 NA
ATOM     40  C   UNL     1     104.066  23.852 103.155  0.00  0.00    +0.111 A 
ENDBRANCH   4   3
ENDBRANCH  10   9
BRANCH  12  13
ATOM     13  N   UNL     1     106.099  34.678 107.613  0.00  0.00    -0.281 N 
ATOM     14  C   UNL     1     105.145  35.382 108.331  0.00  0.00    +0.248 C 
ATOM     30  O   UNL     1     104.445  34.899 109.208  0.00  0.00    -0.270 OA
ATOM     31  H   UNL     1     106.471  35.145 106.786  0.00  0.00    +0.155 HD
BRANCH  14  15
ATOM     15  C   UNL     1     104.929  36.828 108.021  0.00  0.00    +0.037 A 
ATOM     16  C   UNL     1     105.655  37.488 106.932  0.00  0.00    +0.013 A 
ATOM     17  C   UNL     1     105.440  38.888 106.665  0.00  0.00    +0.005 A 
ATOM     18  C   UNL     1     104.493  39.637 107.487  0.00  0.00    -0.033 A 
ATOM     28  C   UNL     1     103.783  38.956 108.557  0.00  0.00    +0.005 A 
ATOM     29  C   UNL     1     103.991  37.584 108.823  0.00  0.00    +0.013 A 
BRANCH  18  19
ATOM     19  C   UNL     1     104.217  41.139 107.286  0.00  0.00    +0.119 C 
BRANCH  19  20
ATOM     20  N   UNL     1     103.117  41.513 106.348  0.00  0.00    -0.302 NA
ATOM     21  C   UNL     1     103.523  42.655 105.412  0.00  0.00    +0.066 C 
ATOM     22  C   UNL     1     102.369  43.017 104.422  0.00  0.00    -0.064 C 
ATOM     23  N   UNL     1     101.116  43.389 105.217  0.00  0.00    +0.379 N 
ATOM     24  C   UNL     1     100.046  43.786 104.291  0.00  0.00    -0.096 C 
ATOM     25  H   UNL     1     101.366  44.275 105.847  0.00  0.00    -0.082 HD
ATOM     26  C   UNL     1     100.707  42.260 106.152  0.00  0.00    -0.064 C 
ATOM     27  C   UNL     1     101.871  41.887 107.112  0.00  0.00    +0.066 C 
ENDBRANCH  19  20
ENDBRANCH  18  19
ENDBRANCH  14  15
ENDBRANCH  12  13
TORSDOF 6
ENDMDL
MODEL 3
REMARK VINA RESULT:      -7.8      1.464      2.023
REMARK  Name = C:\Users\Docking\Desktop\test protocol\1iep_ligandH.pdb
REMARK  8 active torsions:
REMARK  status: ('A' for Active; 'I' for Inactive)
REMARK    1  A    between atoms: _5  and  _11
REMARK    2  A    between atoms: _19  and  _21
REMARK    3  A    between atoms: _22  and  _66
REMARK    4  A    between atoms: _27  and  _30
REMARK    5  A    between atoms: _32  and  _33
REMARK    6  A    between atoms: _38  and  _43
REMARK    7  A    between atoms: _43  and  _46
REMARK    8  A    between atoms: _53  and  _55
REMARK                            x       y       z     vdW  Elec       q    Type
REMARK                         _______ _______ _______ _____ _____    ______ ____
ROOT
ATOM     10  C   UNL     1      94.163  40.056  84.639  0.00  0.00    +0.038 A 
ATOM     11  C   UNL     1      94.127  41.176  85.508  0.00  0.00    +0.047 A 
ATOM     12  C   UNL     1      93.002  41.396  86.404  0.00  0.00    +0.035 A 
ATOM     32  C   UNL     1      91.932  40.455  86.390  0.00  0.00    +0.024 A 
ATOM     33  C   UNL     1      91.952  39.311  85.511  0.00  0.00    +0.007 A 
ATOM     34  C   UNL     1      93.058  39.090  84.624  0.00  0.00    -0.029 A 
ATOM     35  C   UNL     1      93.024  37.851  83.699  0.00  0.00    +0.045 C 
ENDROOT
BRANCH  10   9
ATOM      4  C   UNL     1      96.572  40.964  80.587  0.00  0.00    +0.077 A 
ATOM      5  C   UNL     1      95.529  41.814  80.088  0.00  0.00    +0.048 A 
ATOM      6  C   UNL     1      94.387  41.986  80.902  0.00  0.00    +0.116 A 
ATOM      7  N   UNL     1      94.304  41.350  82.122  0.00  0.00    -0.223 NA
ATOM      8  C   UNL     1      95.326  40.536  82.572  0.00  0.00    +0.220 A 
ATOM      9  N   UNL     1      95.268  39.893  83.799  0.00  0.00    -0.283 N 
ATOM     36  H   UNL     1      96.040  39.295  84.093  0.00  0.00    +0.155 HD
ATOM     37  N   UNL     1      96.427  40.355  81.814  0.00  0.00    -0.214 NA
BRANCH   4   3
ATOM      1  C   UNL     1      99.743  41.368  78.333  0.00  0.00    +0.020 A 
ATOM      2  C   UNL     1      98.518  41.688  79.029  0.00  0.00    +0.013 A 
ATOM      3  C   UNL     1      97.842  40.687  79.846  0.00  0.00    +0.019 A 
ATOM     38  C   UNL     1      98.438  39.363  79.939  0.00  0.00    +0.120 A 
ATOM     39  N   UNL     1      99.618  39.084  79.257  0.00  0.00    -0.263 NA
ATOM     40  C   UNL     1     100.276  40.038  78.466  0.00  0.00    +0.111 A 
ENDBRANCH   4   3
ENDBRANCH  10   9
BRANCH  12  13
ATOM     13  N   UNL     1      92.906  42.519  87.303  0.00  0.00    -0.281 N 
ATOM     14  C   UNL     1      91.905  43.475  87.369  0.00  0.00    +0.248 C 
ATOM     30  O   UNL     1      91.043  43.632  86.517  0.00  0.00    -0.270 OA
ATOM     31  H   UNL     1      93.668  42.622  87.973  0.00  0.00    +0.155 HD
BRANCH  14  15
ATOM     15  C   UNL     1      91.864  44.399  88.543  0.00  0.00    +0.037 A 
ATOM     16  C   UNL     1      92.265  45.803  88.419  0.00  0.00    +0.013 A 
ATOM     17  C   UNL     1      92.233  46.669  89.571  0.00  0.00    +0.005 A 
ATOM     18  C   UNL     1      91.796  46.132  90.858  0.00  0.00    -0.033 A 
ATOM     28  C   UNL     1      91.399  44.737  90.951  0.00  0.00    +0.005 A 
ATOM     29  C   UNL     1      91.430  43.885  89.824  0.00  0.00    +0.013 A 
BRANCH  18  19
ATOM     19  C   UNL     1      91.750  46.978  92.144  0.00  0.00    +0.119 C 
BRANCH  19  20
ATOM     20  N   UNL     1      91.255  46.310  93.384  0.00  0.00    -0.302 NA
ATOM     21  C   UNL     1      89.853  46.787  93.773  0.00  0.00    +0.066 C 
ATOM     22  C   UNL     1      89.341  46.062  95.060  0.00  0.00    -0.064 C 
ATOM     23  N   UNL     1      90.330  46.298  96.203  0.00  0.00    +0.379 N 
ATOM     24  C   UNL     1      89.822  45.665  97.429  0.00  0.00    -0.096 C 
ATOM     25  H   UNL     1      90.380  47.396  96.384  0.00  0.00    -0.082 HD
ATOM     26  C   UNL     1      91.727  45.828  95.823  0.00  0.00    -0.064 C 
ATOM     27  C   UNL     1      92.214  46.533  94.527  0.00  0.00    +0.066 C 
ENDBRANCH  19  20
ENDBRANCH  18  19
ENDBRANCH  14  15
ENDBRANCH  12  13
TORSDOF 6
ENDMDL
