MODEL 1
REMARK VINA RESULT:      -7.8      0.000      0.000
REMARK  Name = C:\Users\Docking\Desktop\test protocol\1iep_ligandH.pdb
REMARK  8 active torsions:
REMARK  status: ('A' for Active; 'I' for Inactive)
REMARK    1  A    between atoms: _5  and  _11
REMARK    2  A    between atoms: _19  and  _21
REMARK    3  A    between atoms: _22  and  _66
REMARK    4  A    between atoms: _27  and  _30
REMARK    5  A    between atoms: _32  and  _33
REMARK    6  A    between atoms: _38  and  _43
REMARK    7  A    between atoms: _43  and  _46
REMARK    8  A    between atoms: _53  and  _55
REMARK                            x       y       z     vdW  Elec       q    Type
REMARK                         _______ _______ _______ _____ _____    ______ ____
ROOT
ATOM     10  C   UNL     1      20.271  31.823  -0.129  0.00  0.00    +0.038 A 
ATOM     11  C   UNL     1      19.048  31.955  -0.833  0.00  0.00    +0.047 A 
ATOM     12  C   UNL     1      18.970  31.697  -2.263  0.00  0.00    +0.035 A 
ATOM     32  C   UNL     1      20.159  31.303  -2.943  0.00  0.00    +0.024 A 
ATOM     33  C   UNL     1      21.412  31.165  -2.243  0.00  0.00    +0.007 A 
ATOM     34  C   UNL     1      21.495  31.420  -0.833  0.00  0.00    -0.029 A 
ATOM     35  C   UNL     1      22.866  31.262  -0.135  0.00  0.00    +0.045 C 
ENDROOT
BRANCH  10   9
ATOM      4  C   UNL     1      20.843  34.774   3.613  0.00  0.00    +0.077 A 
ATOM      5  C   UNL     1      21.162  35.885   2.763  0.00  0.00    +0.048 A 
ATOM      6  C   UNL     1      21.175  35.653   1.370  0.00  0.00    +0.116 A 
ATOM      7  N   UNL     1      20.889  34.400   0.874  0.00  0.00    -0.223 NA
ATOM      8  C   UNL     1      20.587  33.350   1.721  0.00  0.00    +0.220 A 
ATOM      9  N   UNL     1      20.288  32.083   1.243  0.00  0.00    -0.283 N 
ATOM     36  H   UNL     1      20.078  31.333   1.901  0.00  0.00    +0.155 HD
ATOM     37  N   UNL     1      20.569  33.545   3.056  0.00  0.00    -0.214 NA
BRANCH   4   3
ATOM      1  C   UNL     1      19.886  34.153   7.355  0.00  0.00    +0.020 A 
ATOM      2  C   UNL     1      19.903  34.030   5.915  0.00  0.00    +0.013 A 
ATOM      3  C   UNL     1      20.786  34.861   5.106  0.00  0.00    +0.019 A 
ATOM     38  C   UNL     1      21.647  35.814   5.791  0.00  0.00    +0.120 A 
ATOM     39  N   UNL     1      21.608  35.911   7.178  0.00  0.00    -0.263 NA
ATOM     40  C   UNL     1      20.761  35.118   7.967  0.00  0.00    +0.111 A 
ENDBRANCH   4   3
ENDBRANCH  10   9
BRANCH  12  13
ATOM     13  N   UNL     1      17.758  31.823  -3.033  0.00  0.00    -0.281 N 
ATOM     14  C   UNL     1      17.031  32.973  -3.295  0.00  0.00    +0.248 C 
ATOM     30  O   UNL     1      17.198  34.041  -2.726  0.00  0.00    -0.270 OA
ATOM     31  H   UNL     1      17.391  30.959  -3.433  0.00  0.00    +0.155 HD
BRANCH  14  15
ATOM     15  C   UNL     1      15.953  32.925  -4.329  0.00  0.00    +0.037 A 
ATOM     16  C   UNL     1      15.909  31.859  -5.333  0.00  0.00    +0.013 A 
ATOM     17  C   UNL     1      14.868  31.846  -6.329  0.00  0.00    +0.005 A 
ATOM     18  C   UNL     1      13.860  32.904  -6.326  0.00  0.00    -0.033 A 
ATOM     28  C   UNL     1      13.925  33.947  -5.316  0.00  0.00    +0.005 A 
ATOM     29  C   UNL     1      14.944  33.963  -4.338  0.00  0.00    +0.013 A 
BRANCH  18  19
ATOM     19  C   UNL     1      12.726  32.982  -7.365  0.00  0.00    +0.119 C 
BRANCH  19  20
ATOM     20  N   UNL     1      11.493  33.730  -6.977  0.00  0.00    -0.302 NA
ATOM     21  C   UNL     1      10.236  32.863  -7.087  0.00  0.00    +0.066 C 
ATOM     22  C   UNL     1       8.959  33.655  -6.656  0.00  0.00    -0.064 C 
ATOM     23  N   UNL     1       8.827  34.913  -7.516  0.00  0.00    +0.379 N 
ATOM     24  C   UNL     1       7.596  35.629  -7.152  0.00  0.00    -0.096 C 
ATOM     25  H   UNL     1       8.728  34.587  -8.578  0.00  0.00    -0.082 HD
ATOM     26  C   UNL     1      10.074  35.779  -7.414  0.00  0.00    -0.064 C 
ATOM     27  C   UNL     1      11.341  34.974  -7.817  0.00  0.00    +0.066 C 
ENDBRANCH  19  20
ENDBRANCH  18  19
ENDBRANCH  14  15
ENDBRANCH  12  13
TORSDOF 6
ENDMDL
MODEL 2
REMARK VINA RESULT:      -7.7      6.264      9.448
REMARK  Name = C:\Users\Docking\Desktop\test protocol\1iep_ligandH.pdb
REMARK  8 active torsions:
REMARK  status: ('A' for Active; 'I' for Inactive)
REMARK    1  A    between atoms: _5  and  _11
REMARK    2  A    between atoms: _19  and  _21
REMARK    3  A    between atoms: _22  and  _66
REMARK    4  A    between atoms: _27  and  _30
REMARK    5  A    between atoms: _32  and  _33
REMARK    6  A    between atoms: _38  and  _43
REMARK    7  A    between atoms: _43  and  _46
REMARK    8  A    between atoms: _53  and  _55
REMARK                            x       y       z     vdW  Elec       q    Type
REMARK                         _______ _______ _______ _____ _____    ______ ____
ROOT
ATOM     10  C   UNL     1      18.671  31.910  -0.651  0.00  0.00    +0.038 A 
ATOM     11  C   UNL     1      18.935  30.530  -0.845  0.00  0.00    +0.047 A 
ATOM     12  C   UNL     1      18.699  29.893  -2.131  0.00  0.00    +0.035 A 
ATOM     32  C   UNL     1      18.196  30.692  -3.199  0.00  0.00    +0.024 A 
ATOM     33  C   UNL     1      17.922  32.096  -3.019  0.00  0.00    +0.007 A 
ATOM     34  C   UNL     1      18.150  32.729  -1.752  0.00  0.00    -0.029 A 
ATOM     35  C   UNL     1      17.832  34.237  -1.614  0.00  0.00    +0.045 C 
ENDROOT
BRANCH  10   9
ATOM      4  C   UNL     1      21.415  34.371   2.424  0.00  0.00    +0.077 A 
ATOM      5  C   UNL     1      22.461  34.530   1.455  0.00  0.00    +0.048 A 
ATOM      6  C   UNL     1      22.256  33.958   0.180  0.00  0.00    +0.116 A 
ATOM      7  N   UNL     1      21.089  33.279  -0.095  0.00  0.00    -0.223 NA
ATOM      8  C   UNL     1      20.101  33.142   0.862  0.00  0.00    +0.220 A 
ATOM      9  N   UNL     1      18.916  32.471   0.605  0.00  0.00    -0.283 N 
ATOM     36  H   UNL     1      18.215  32.385   1.341  0.00  0.00    +0.155 HD
ATOM     37  N   UNL     1      20.273  33.679   2.089  0.00  0.00    -0.214 NA
BRANCH   4   3
ATOM      1  C   UNL     1      20.656  35.096   6.192  0.00  0.00    +0.020 A 
ATOM      2  C   UNL     1      20.548  34.535   4.865  0.00  0.00    +0.013 A 
ATOM      3  C   UNL     1      21.481  34.921   3.815  0.00  0.00    +0.019 A 
ATOM     38  C   UNL     1      22.522  35.885   4.143  0.00  0.00    +0.120 A 
ATOM     39  N   UNL     1      22.600  36.409   5.429  0.00  0.00    -0.263 NA
ATOM     40  C   UNL     1      21.706  36.046   6.448  0.00  0.00    +0.111 A 
ENDBRANCH   4   3
ENDBRANCH  10   9
BRANCH  12  13
ATOM     13  N   UNL     1      18.940  28.494  -2.385  0.00  0.00    -0.281 N 
ATOM     14  C   UNL     1      19.814  27.934  -3.302  0.00  0.00    +0.248 C 
ATOM     30  O   UNL     1      20.367  28.554  -4.198  0.00  0.00    -0.270 OA
ATOM     31  H   UNL     1      18.402  27.838  -1.819  0.00  0.00    +0.155 HD
BRANCH  14  15
ATOM     15  C   UNL     1      20.103  26.469  -3.223  0.00  0.00    +0.037 A 
ATOM     16  C   UNL     1      21.113  25.943  -2.302  0.00  0.00    +0.013 A 
ATOM     17  C   UNL     1      21.385  24.528  -2.257  0.00  0.00    +0.005 A 
ATOM     18  C   UNL     1      20.642  23.629  -3.136  0.00  0.00    -0.033 A 
ATOM     28  C   UNL     1      19.641  24.177  -4.037  0.00  0.00    +0.005 A 
ATOM     29  C   UNL     1      19.373  25.563  -4.084  0.00  0.00    +0.013 A 
BRANCH  18  19
ATOM     19  C   UNL     1      20.881  22.107  -3.171  0.00  0.00    +0.119 C 
BRANCH  19  20
ATOM     20  N   UNL     1      19.700  21.224  -2.933  0.00  0.00    -0.302 NA
ATOM     21  C   UNL     1      19.914  20.289  -1.739  0.00  0.00    +0.066 C 
ATOM     22  C   UNL     1      18.661  19.389  -1.490  0.00  0.00    -0.064 C 
ATOM     23  N   UNL     1      18.351  18.588  -2.756  0.00  0.00    +0.379 N 
ATOM     24  C   UNL     1      17.209  17.697  -2.506  0.00  0.00    -0.096 C 
ATOM     25  H   UNL     1      19.237  17.949  -2.976  0.00  0.00    -0.082 HD
ATOM     26  C   UNL     1      18.140  19.510  -3.948  0.00  0.00    -0.064 C 
ATOM     27  C   UNL     1      19.379  20.421  -4.169  0.00  0.00    +0.066 C 
ENDBRANCH  19  20
ENDBRANCH  18  19
ENDBRANCH  14  15
ENDBRANCH  12  13
TORSDOF 6
ENDMDL
MODEL 3
REMARK VINA RESULT:      -7.6      1.625      1.837
REMARK  Name = C:\Users\Docking\Desktop\test protocol\1iep_ligandH.pdb
REMARK  8 active torsions:
REMARK  status: ('A' for Active; 'I' for Inactive)
REMARK    1  A    between atoms: _5  and  _11
REMARK    2  A    between atoms: _19  and  _21
REMARK    3  A    between atoms: _22  and  _66
REMARK    4  A    between atoms: _27  and  _30
REMARK    5  A    between atoms: _32  and  _33
REMARK    6  A    between atoms: _38  and  _43
REMARK    7  A    between atoms: _43  and  _46
REMARK    8  A    between atoms: _53  and  _55
REMARK                            x       y       z     vdW  Elec       q    Type
REMARK                         _______ _______ _______ _____ _____    ______ ____
ROOT
ATOM     10  C   UNL     1      20.112  32.357  -0.382  0.00  0.00    +0.038 A 
ATOM     11  C   UNL     1      18.980  32.815  -1.103  0.00  0.00    +0.047 A 
ATOM     12  C   UNL     1      18.918  32.711  -2.553  0.00  0.00    +0.035 A 
ATOM     32  C   UNL     1      20.026  32.131  -3.236  0.00  0.00    +0.024 A 
ATOM     33  C   UNL     1      21.186  31.661  -2.519  0.00  0.00    +0.007 A 
ATOM     34  C   UNL     1      21.253  31.764  -1.090  0.00  0.00    -0.029 A 
ATOM     35  C   UNL     1      22.524  31.249  -0.374  0.00  0.00    +0.045 C 
ENDROOT
BRANCH  10   9
ATOM      4  C   UNL     1      20.882  34.861   3.639  0.00  0.00    +0.077 A 
ATOM      5  C   UNL     1      21.336  36.009   2.908  0.00  0.00    +0.048 A 
ATOM      6  C   UNL     1      21.363  35.911   1.499  0.00  0.00    +0.116 A 
ATOM      7  N   UNL     1      20.963  34.748   0.878  0.00  0.00    -0.223 NA
ATOM      8  C   UNL     1      20.533  33.659   1.613  0.00  0.00    +0.220 A 
ATOM      9  N   UNL     1      20.118  32.482   1.009  0.00  0.00    -0.283 N 
ATOM     36  H   UNL     1      19.815  31.698   1.587  0.00  0.00    +0.155 HD
ATOM     37  N   UNL     1      20.499  33.726   2.960  0.00  0.00    -0.214 NA
BRANCH   4   3
ATOM      1  C   UNL     1      19.883  33.869   7.289  0.00  0.00    +0.020 A 
ATOM      2  C   UNL     1      19.931  33.877   5.845  0.00  0.00    +0.013 A 
ATOM      3  C   UNL     1      20.794  34.811   5.133  0.00  0.00    +0.019 A 
ATOM     38  C   UNL     1      21.603  35.731   5.918  0.00  0.00    +0.120 A 
ATOM     39  N   UNL     1      21.535  35.701   7.308  0.00  0.00    -0.263 NA
ATOM     40  C   UNL     1      20.707  34.808   8.003  0.00  0.00    +0.111 A 
ENDBRANCH   4   3
ENDBRANCH  10   9
BRANCH  12  13
ATOM     13  N   UNL     1      17.798  33.166  -3.339  0.00  0.00    -0.281 N 
ATOM     14  C   UNL     1      16.663  32.456  -3.696  0.00  0.00    +0.248 C 
ATOM     30  O   UNL     1      16.537  31.247  -3.572  0.00  0.00    -0.270 OA
ATOM     31  H   UNL     1      17.848  34.129  -3.672  0.00  0.00    +0.155 HD
BRANCH  14  15
ATOM     15  C   UNL     1      15.507  33.194  -4.290  0.00  0.00    +0.037 A 
ATOM     16  C   UNL     1      14.638  32.567  -5.288  0.00  0.00    +0.013 A 
ATOM     17  C   UNL     1      13.540  33.307  -5.858  0.00  0.00    +0.005 A 
ATOM     18  C   UNL     1      13.305  34.684  -5.429  0.00  0.00    -0.033 A 
ATOM     28  C   UNL     1      14.180  35.280  -4.433  0.00  0.00    +0.005 A 
ATOM     29  C   UNL     1      15.258  34.558  -3.873  0.00  0.00    +0.013 A 
BRANCH  18  19
ATOM     19  C   UNL     1      12.170  35.555  -5.999  0.00  0.00    +0.119 C 
BRANCH  19  20
ATOM     20  N   UNL     1      10.885  35.588  -5.238  0.00  0.00    -0.302 NA
ATOM     21  C   UNL     1       9.675  35.761  -6.161  0.00  0.00    +0.066 C 
ATOM     22  C   UNL     1       8.338  35.770  -5.351  0.00  0.00    -0.064 C 
ATOM     23  N   UNL     1       8.386  36.886  -4.306  0.00  0.00    +0.379 N 
ATOM     24  C   UNL     1       7.108  36.935  -3.581  0.00  0.00    -0.096 C 
ATOM     25  H   UNL     1       8.505  37.853  -4.849  0.00  0.00    -0.082 HD
ATOM     26  C   UNL     1       9.587  36.723  -3.386  0.00  0.00    -0.064 C 
ATOM     27  C   UNL     1      10.909  36.685  -4.203  0.00  0.00    +0.066 C 
ENDBRANCH  19  20
ENDBRANCH  18  19
ENDBRANCH  14  15
ENDBRANCH  12  13
TORSDOF 6
ENDMDL
