MODEL 1
REMARK VINA RESULT:      -7.7      0.000      0.000
REMARK  Name = C:\Users\Docking\Desktop\test protocol\1iep_ligandH.pdb
REMARK  8 active torsions:
REMARK  status: ('A' for Active; 'I' for Inactive)
REMARK    1  A    between atoms: _5  and  _11
REMARK    2  A    between atoms: _19  and  _21
REMARK    3  A    between atoms: _22  and  _66
REMARK    4  A    between atoms: _27  and  _30
REMARK    5  A    between atoms: _32  and  _33
REMARK    6  A    between atoms: _38  and  _43
REMARK    7  A    between atoms: _43  and  _46
REMARK    8  A    between atoms: _53  and  _55
REMARK                            x       y       z     vdW  Elec       q    Type
REMARK                         _______ _______ _______ _____ _____    ______ ____
ROOT
ATOM     10  C   UNL     1      29.431  14.120  29.536  0.00  0.00    +0.038 A 
ATOM     11  C   UNL     1      30.121  14.794  28.497  0.00  0.00    +0.047 A 
ATOM     12  C   UNL     1      30.245  16.243  28.491  0.00  0.00    +0.035 A 
ATOM     32  C   UNL     1      29.655  16.976  29.562  0.00  0.00    +0.024 A 
ATOM     33  C   UNL     1      28.949  16.307  30.627  0.00  0.00    +0.007 A 
ATOM     34  C   UNL     1      28.821  14.878  30.636  0.00  0.00    -0.029 A 
ATOM     35  C   UNL     1      28.048  14.215  31.800  0.00  0.00    +0.045 C 
ENDROOT
BRANCH  10   9
ATOM      4  C   UNL     1      31.185   9.738  30.406  0.00  0.00    +0.077 A 
ATOM      5  C   UNL     1      32.391  10.269  30.974  0.00  0.00    +0.048 A 
ATOM      6  C   UNL     1      32.523  11.675  31.017  0.00  0.00    +0.116 A 
ATOM      7  N   UNL     1      31.519  12.480  30.526  0.00  0.00    -0.223 NA
ATOM      8  C   UNL     1      30.369  11.936  29.984  0.00  0.00    +0.220 A 
ATOM      9  N   UNL     1      29.342  12.727  29.492  0.00  0.00    -0.283 N 
ATOM     36  H   UNL     1      28.514  12.287  29.093  0.00  0.00    +0.155 HD
ATOM     37  N   UNL     1      30.219  10.596  29.930  0.00  0.00    -0.214 NA
BRANCH   4   3
ATOM      1  C   UNL     1      29.824   6.286  29.168  0.00  0.00    +0.020 A 
ATOM      2  C   UNL     1      30.073   7.708  29.231  0.00  0.00    +0.013 A 
ATOM      3  C   UNL     1      30.895   8.273  30.293  0.00  0.00    +0.019 A 
ATOM     38  C   UNL     1      31.457   7.366  31.282  0.00  0.00    +0.120 A 
ATOM     39  N   UNL     1      31.199   6.001  31.196  0.00  0.00    -0.263 NA
ATOM     40  C   UNL     1      30.408   5.446  30.180  0.00  0.00    +0.111 A 
ENDBRANCH   4   3
ENDBRANCH  10   9
BRANCH  12  13
ATOM     13  N   UNL     1      30.927  16.983  27.458  0.00  0.00    -0.281 N 
ATOM     14  C   UNL     1      30.517  17.197  26.152  0.00  0.00    +0.248 C 
ATOM     30  O   UNL     1      29.598  16.601  25.610  0.00  0.00    -0.270 OA
ATOM     31  H   UNL     1      31.820  17.399  27.722  0.00  0.00    +0.155 HD
BRANCH  14  15
ATOM     15  C   UNL     1      31.243  18.208  25.324  0.00  0.00    +0.037 A 
ATOM     16  C   UNL     1      30.780  18.563  23.981  0.00  0.00    +0.013 A 
ATOM     17  C   UNL     1      31.508  19.529  23.197  0.00  0.00    +0.005 A 
ATOM     18  C   UNL     1      32.707  20.148  23.756  0.00  0.00    -0.033 A 
ATOM     28  C   UNL     1      33.141  19.781  25.094  0.00  0.00    +0.005 A 
ATOM     29  C   UNL     1      32.431  18.834  25.865  0.00  0.00    +0.013 A 
BRANCH  18  19
ATOM     19  C   UNL     1      33.558  21.173  22.983  0.00  0.00    +0.119 C 
BRANCH  19  20
ATOM     20  N   UNL     1      34.924  20.745  22.557  0.00  0.00    -0.302 NA
ATOM     21  C   UNL     1      35.930  21.898  22.611  0.00  0.00    +0.066 C 
ATOM     22  C   UNL     1      37.358  21.428  22.184  0.00  0.00    -0.064 C 
ATOM     23  N   UNL     1      37.296  20.829  20.778  0.00  0.00    +0.379 N 
ATOM     24  C   UNL     1      38.647  20.439  20.350  0.00  0.00    -0.096 C 
ATOM     25  H   UNL     1      36.940  21.627  20.086  0.00  0.00    -0.082 HD
ATOM     26  C   UNL     1      36.296  19.683  20.714  0.00  0.00    -0.064 C 
ATOM     27  C   UNL     1      34.886  20.154  21.169  0.00  0.00    +0.066 C 
ENDBRANCH  19  20
ENDBRANCH  18  19
ENDBRANCH  14  15
ENDBRANCH  12  13
TORSDOF 6
ENDMDL
MODEL 2
REMARK VINA RESULT:      -7.6     26.675     32.384
REMARK  Name = C:\Users\Docking\Desktop\test protocol\1iep_ligandH.pdb
REMARK  8 active torsions:
REMARK  status: ('A' for Active; 'I' for Inactive)
REMARK    1  A    between atoms: _5  and  _11
REMARK    2  A    between atoms: _19  and  _21
REMARK    3  A    between atoms: _22  and  _66
REMARK    4  A    between atoms: _27  and  _30
REMARK    5  A    between atoms: _32  and  _33
REMARK    6  A    between atoms: _38  and  _43
REMARK    7  A    between atoms: _43  and  _46
REMARK    8  A    between atoms: _53  and  _55
REMARK                            x       y       z     vdW  Elec       q    Type
REMARK                         _______ _______ _______ _____ _____    ______ ____
ROOT
ATOM     10  C   UNL     1      21.625  30.580   0.096  0.00  0.00    +0.038 A 
ATOM     11  C   UNL     1      22.710  30.038  -0.639  0.00  0.00    +0.047 A 
ATOM     12  C   UNL     1      22.762  30.138  -2.089  0.00  0.00    +0.035 A 
ATOM     32  C   UNL     1      21.691  30.799  -2.759  0.00  0.00    +0.024 A 
ATOM     33  C   UNL     1      20.580  31.355  -2.028  0.00  0.00    +0.007 A 
ATOM     34  C   UNL     1      20.523  31.257  -0.597  0.00  0.00    -0.029 A 
ATOM     35  C   UNL     1      19.303  31.865   0.135  0.00  0.00    +0.045 C 
ENDROOT
BRANCH  10   9
ATOM      4  C   UNL     1      20.434  28.288   4.142  0.00  0.00    +0.077 A 
ATOM      5  C   UNL     1      19.725  27.268   3.425  0.00  0.00    +0.048 A 
ATOM      6  C   UNL     1      19.685  27.373   2.017  0.00  0.00    +0.116 A 
ATOM      7  N   UNL     1      20.310  28.424   1.383  0.00  0.00    -0.223 NA
ATOM      8  C   UNL     1      20.984  29.393   2.105  0.00  0.00    +0.220 A 
ATOM      9  N   UNL     1      21.627  30.455   1.487  0.00  0.00    -0.283 N 
ATOM     36  H   UNL     1      22.107  31.153   2.055  0.00  0.00    +0.155 HD
ATOM     37  N   UNL     1      21.036  29.316   3.451  0.00  0.00    -0.214 NA
BRANCH   4   3
ATOM      1  C   UNL     1      20.030  27.452   7.942  0.00  0.00    +0.020 A 
ATOM      2  C   UNL     1      19.864  27.385   6.508  0.00  0.00    +0.013 A 
ATOM      3  C   UNL     1      20.569  28.314   5.633  0.00  0.00    +0.019 A 
ATOM     38  C   UNL     1      21.440  29.305   6.245  0.00  0.00    +0.120 A 
ATOM     39  N   UNL     1      21.579  29.347   7.629  0.00  0.00    -0.263 NA
ATOM     40  C   UNL     1      20.905  28.460   8.481  0.00  0.00    +0.111 A 
ENDBRANCH   4   3
ENDBRANCH  10   9
BRANCH  12  13
ATOM     13  N   UNL     1      23.834  29.600  -2.889  0.00  0.00    -0.281 N 
ATOM     14  C   UNL     1      24.977  30.249  -3.328  0.00  0.00    +0.248 C 
ATOM     30  O   UNL     1      25.148  31.458  -3.278  0.00  0.00    -0.270 OA
ATOM     31  H   UNL     1      23.739  28.623  -3.165  0.00  0.00    +0.155 HD
BRANCH  14  15
ATOM     15  C   UNL     1      26.084  29.439  -3.922  0.00  0.00    +0.037 A 
ATOM     16  C   UNL     1      26.355  28.073  -3.466  0.00  0.00    +0.013 A 
ATOM     17  C   UNL     1      27.439  27.320  -4.044  0.00  0.00    +0.005 A 
ATOM     18  C   UNL     1      28.261  27.931  -5.086  0.00  0.00    -0.033 A 
ATOM     28  C   UNL     1      27.966  29.285  -5.523  0.00  0.00    +0.005 A 
ATOM     29  C   UNL     1      26.905  30.027  -4.958  0.00  0.00    +0.013 A 
BRANCH  18  19
ATOM     19  C   UNL     1      29.452  27.209  -5.743  0.00  0.00    +0.119 C 
BRANCH  19  20
ATOM     20  N   UNL     1      30.770  27.292  -5.047  0.00  0.00    -0.302 NA
ATOM     21  C   UNL     1      31.943  27.104  -6.014  0.00  0.00    +0.066 C 
ATOM     22  C   UNL     1      33.315  27.216  -5.273  0.00  0.00    -0.064 C 
ATOM     23  N   UNL     1      33.370  26.182  -4.148  0.00  0.00    +0.379 N 
ATOM     24  C   UNL     1      34.682  26.246  -3.487  0.00  0.00    -0.096 C 
ATOM     25  H   UNL     1      33.274  25.173  -4.612  0.00  0.00    -0.082 HD
ATOM     26  C   UNL     1      32.206  26.360  -3.184  0.00  0.00    -0.064 C 
ATOM     27  C   UNL     1      30.848  26.276  -3.935  0.00  0.00    +0.066 C 
ENDBRANCH  19  20
ENDBRANCH  18  19
ENDBRANCH  14  15
ENDBRANCH  12  13
TORSDOF 6
ENDMDL
MODEL 3
REMARK VINA RESULT:      -7.6     27.520     33.256
REMARK  Name = C:\Users\Docking\Desktop\test protocol\1iep_ligandH.pdb
REMARK  8 active torsions:
REMARK  status: ('A' for Active; 'I' for Inactive)
REMARK    1  A    between atoms: _5  and  _11
REMARK    2  A    between atoms: _19  and  _21
REMARK    3  A    between atoms: _22  and  _66
REMARK    4  A    between atoms: _27  and  _30
REMARK    5  A    between atoms: _32  and  _33
REMARK    6  A    between atoms: _38  and  _43
REMARK    7  A    between atoms: _43  and  _46
REMARK    8  A    between atoms: _53  and  _55
REMARK                            x       y       z     vdW  Elec       q    Type
REMARK                         _______ _______ _______ _____ _____    ______ ____
ROOT
ATOM     10  C   UNL     1      21.403  31.420   0.201  0.00  0.00    +0.038 A 
ATOM     11  C   UNL     1      22.597  31.159  -0.518  0.00  0.00    +0.047 A 
ATOM     12  C   UNL     1      22.685  31.415  -1.947  0.00  0.00    +0.035 A 
ATOM     32  C   UNL     1      21.539  31.939  -2.612  0.00  0.00    +0.024 A 
ATOM     33  C   UNL     1      20.316  32.209  -1.896  0.00  0.00    +0.007 A 
ATOM     34  C   UNL     1      20.222  31.956  -0.487  0.00  0.00    -0.029 A 
ATOM     35  C   UNL     1      18.885  32.258   0.228  0.00  0.00    +0.045 C 
ENDROOT
BRANCH  10   9
ATOM      4  C   UNL     1      20.570  28.523   3.937  0.00  0.00    +0.077 A 
ATOM      5  C   UNL     1      20.131  27.455   3.087  0.00  0.00    +0.048 A 
ATOM      6  C   UNL     1      20.128  27.693   1.694  0.00  0.00    +0.116 A 
ATOM      7  N   UNL     1      20.536  28.914   1.200  0.00  0.00    -0.223 NA
ATOM      8  C   UNL     1      20.952  29.923   2.048  0.00  0.00    +0.220 A 
ATOM      9  N   UNL     1      21.373  31.156   1.573  0.00  0.00    -0.283 N 
ATOM     36  H   UNL     1      21.666  31.877   2.231  0.00  0.00    +0.155 HD
ATOM     37  N   UNL     1      20.963  29.721   3.382  0.00  0.00    -0.214 NA
BRANCH   4   3
ATOM      1  C   UNL     1      21.488  29.160   7.686  0.00  0.00    +0.020 A 
ATOM      2  C   UNL     1      21.464  29.298   6.248  0.00  0.00    +0.013 A 
ATOM      3  C   UNL     1      20.634  28.423   5.430  0.00  0.00    +0.019 A 
ATOM     38  C   UNL     1      19.833  27.411   6.103  0.00  0.00    +0.120 A 
ATOM     39  N   UNL     1      19.878  27.301   7.489  0.00  0.00    -0.263 NA
ATOM     40  C   UNL     1      20.675  28.136   8.287  0.00  0.00    +0.111 A 
ENDBRANCH   4   3
ENDBRANCH  10   9
BRANCH  12  13
ATOM     13  N   UNL     1      23.868  31.162  -2.732  0.00  0.00    -0.281 N 
ATOM     14  C   UNL     1      24.443  29.939  -3.036  0.00  0.00    +0.248 C 
ATOM     30  O   UNL     1      24.146  28.883  -2.499  0.00  0.00    -0.270 OA
ATOM     31  H   UNL     1      24.339  31.985  -3.108  0.00  0.00    +0.155 HD
BRANCH  14  15
ATOM     15  C   UNL     1      25.513  29.883  -4.078  0.00  0.00    +0.037 A 
ATOM     16  C   UNL     1      26.619  28.927  -3.982  0.00  0.00    +0.013 A 
ATOM     17  C   UNL     1      27.647  28.906  -4.992  0.00  0.00    +0.005 A 
ATOM     18  C   UNL     1      27.573  29.845  -6.109  0.00  0.00    -0.033 A 
ATOM     28  C   UNL     1      26.462  30.780  -6.183  0.00  0.00    +0.005 A 
ATOM     29  C   UNL     1      25.453  30.804  -5.194  0.00  0.00    +0.013 A 
BRANCH  18  19
ATOM     19  C   UNL     1      28.637  29.908  -7.221  0.00  0.00    +0.119 C 
BRANCH  19  20
ATOM     20  N   UNL     1      29.934  29.212  -6.966  0.00  0.00    -0.302 NA
ATOM     21  C   UNL     1      31.117  30.184  -6.970  0.00  0.00    +0.066 C 
ATOM     22  C   UNL     1      32.463  29.442  -6.680  0.00  0.00    -0.064 C 
ATOM     23  N   UNL     1      32.667  28.337  -7.717  0.00  0.00    +0.379 N 
ATOM     24  C   UNL     1      33.959  27.676  -7.482  0.00  0.00    -0.096 C 
ATOM     25  H   UNL     1      32.711  28.819  -8.721  0.00  0.00    -0.082 HD
ATOM     26  C   UNL     1      31.493  27.368  -7.722  0.00  0.00    -0.064 C 
ATOM     27  C   UNL     1      30.158  28.119  -7.982  0.00  0.00    +0.066 C 
ENDBRANCH  19  20
ENDBRANCH  18  19
ENDBRANCH  14  15
ENDBRANCH  12  13
TORSDOF 6
ENDMDL
