MODEL 1
REMARK VINA RESULT:     -10.3      0.000      0.000
REMARK  Name = C:\Users\Docking\Desktop\test protocol\1iep_ligandH.pdb
REMARK  8 active torsions:
REMARK  status: ('A' for Active; 'I' for Inactive)
REMARK    1  A    between atoms: _5  and  _11
REMARK    2  A    between atoms: _19  and  _21
REMARK    3  A    between atoms: _22  and  _66
REMARK    4  A    between atoms: _27  and  _30
REMARK    5  A    between atoms: _32  and  _33
REMARK    6  A    between atoms: _38  and  _43
REMARK    7  A    between atoms: _43  and  _46
REMARK    8  A    between atoms: _53  and  _55
REMARK                            x       y       z     vdW  Elec       q    Type
REMARK                         _______ _______ _______ _____ _____    ______ ____
ROOT
ATOM     10  C   UNL     1     -21.085  57.176  96.248  0.00  0.00    +0.038 A 
ATOM     11  C   UNL     1     -21.092  58.330  97.071  0.00  0.00    +0.047 A 
ATOM     12  C   UNL     1     -21.726  58.317  98.380  0.00  0.00    +0.035 A 
ATOM     32  C   UNL     1     -22.342  57.109  98.820  0.00  0.00    +0.024 A 
ATOM     33  C   UNL     1     -22.345  55.926  97.995  0.00  0.00    +0.007 A 
ATOM     34  C   UNL     1     -21.723  55.935  96.702  0.00  0.00    -0.029 A 
ATOM     35  C   UNL     1     -21.763  54.640  95.858  0.00  0.00    +0.045 C 
ENDROOT
BRANCH  10   9
ATOM      4  C   UNL     1     -20.981  58.499  91.635  0.00  0.00    +0.077 A 
ATOM      5  C   UNL     1     -22.291  59.078  91.710  0.00  0.00    +0.048 A 
ATOM      6  C   UNL     1     -22.961  59.008  92.952  0.00  0.00    +0.116 A 
ATOM      7  N   UNL     1     -22.356  58.402  94.032  0.00  0.00    -0.223 NA
ATOM      8  C   UNL     1     -21.092  57.852  93.925  0.00  0.00    +0.220 A 
ATOM      9  N   UNL     1     -20.461  57.245  95.000  0.00  0.00    -0.283 N 
ATOM     36  H   UNL     1     -19.531  56.844  94.878  0.00  0.00    +0.155 HD
ATOM     37  N   UNL     1     -20.432  57.904  92.749  0.00  0.00    -0.214 NA
BRANCH   4   3
ATOM      1  C   UNL     1     -18.552  59.585  88.767  0.00  0.00    +0.020 A 
ATOM      2  C   UNL     1     -19.342  59.639  89.976  0.00  0.00    +0.013 A 
ATOM      3  C   UNL     1     -20.145  58.496  90.393  0.00  0.00    +0.019 A 
ATOM     38  C   UNL     1     -20.126  57.304  89.559  0.00  0.00    +0.120 A 
ATOM     39  N   UNL     1     -19.357  57.281  88.399  0.00  0.00    -0.263 NA
ATOM     40  C   UNL     1     -18.581  58.376  87.987  0.00  0.00    +0.111 A 
ENDBRANCH   4   3
ENDBRANCH  10   9
BRANCH  12  13
ATOM     13  N   UNL     1     -21.771  59.460  99.258  0.00  0.00    -0.281 N 
ATOM     14  C   UNL     1     -22.880  60.017  99.875  0.00  0.00    +0.248 C 
ATOM     30  O   UNL     1     -24.037  59.743  99.594  0.00  0.00    -0.270 OA
ATOM     31  H   UNL     1     -20.878  59.915  99.446  0.00  0.00    +0.155 HD
BRANCH  14  15
ATOM     15  C   UNL     1     -22.673  61.036 100.948  0.00  0.00    +0.037 A 
ATOM     16  C   UNL     1     -22.058  60.676 102.229  0.00  0.00    +0.013 A 
ATOM     17  C   UNL     1     -21.886  61.674 103.254  0.00  0.00    +0.005 A 
ATOM     18  C   UNL     1     -22.328  63.044 103.002  0.00  0.00    -0.033 A 
ATOM     28  C   UNL     1     -22.929  63.374 101.720  0.00  0.00    +0.005 A 
ATOM     29  C   UNL     1     -23.101  62.398 100.714  0.00  0.00    +0.013 A 
BRANCH  18  19
ATOM     19  C   UNL     1     -22.203  64.169 104.046  0.00  0.00    +0.119 C 
BRANCH  19  20
ATOM     20  N   UNL     1     -21.431  65.385 103.651  0.00  0.00    -0.302 NA
ATOM     21  C   UNL     1     -20.186  65.583 104.521  0.00  0.00    +0.066 C 
ATOM     22  C   UNL     1     -19.379  66.847 104.080  0.00  0.00    -0.064 C 
ATOM     23  N   UNL     1     -20.286  68.077 104.145  0.00  0.00    +0.379 N 
ATOM     24  C   UNL     1     -19.514  69.275 103.787  0.00  0.00    -0.096 C 
ATOM     25  H   UNL     1     -20.621  68.193 105.202  0.00  0.00    -0.082 HD
ATOM     26  C   UNL     1     -21.527  67.887 103.285  0.00  0.00    -0.064 C 
ATOM     27  C   UNL     1     -22.307  66.612 103.713  0.00  0.00    +0.066 C 
ENDBRANCH  19  20
ENDBRANCH  18  19
ENDBRANCH  14  15
ENDBRANCH  12  13
TORSDOF 6
ENDMDL
MODEL 2
REMARK VINA RESULT:     -10.2      1.571      2.133
REMARK  Name = C:\Users\Docking\Desktop\test protocol\1iep_ligandH.pdb
REMARK  8 active torsions:
REMARK  status: ('A' for Active; 'I' for Inactive)
REMARK    1  A    between atoms: _5  and  _11
REMARK    2  A    between atoms: _19  and  _21
REMARK    3  A    between atoms: _22  and  _66
REMARK    4  A    between atoms: _27  and  _30
REMARK    5  A    between atoms: _32  and  _33
REMARK    6  A    between atoms: _38  and  _43
REMARK    7  A    between atoms: _43  and  _46
REMARK    8  A    between atoms: _53  and  _55
REMARK                            x       y       z     vdW  Elec       q    Type
REMARK                         _______ _______ _______ _____ _____    ______ ____
ROOT
ATOM     10  C   UNL     1     -21.171  57.509  96.690  0.00  0.00    +0.038 A 
ATOM     11  C   UNL     1     -21.408  58.608  97.555  0.00  0.00    +0.047 A 
ATOM     12  C   UNL     1     -22.132  58.440  98.805  0.00  0.00    +0.035 A 
ATOM     32  C   UNL     1     -22.599  57.137  99.145  0.00  0.00    +0.024 A 
ATOM     33  C   UNL     1     -22.369  56.009  98.278  0.00  0.00    +0.007 A 
ATOM     34  C   UNL     1     -21.657  56.169  97.042  0.00  0.00    -0.029 A 
ATOM     35  C   UNL     1     -21.445  54.926  96.147  0.00  0.00    +0.045 C 
ENDROOT
BRANCH  10   9
ATOM      4  C   UNL     1     -20.888  59.125  92.179  0.00  0.00    +0.077 A 
ATOM      5  C   UNL     1     -22.259  59.545  92.181  0.00  0.00    +0.048 A 
ATOM      6  C   UNL     1     -23.005  59.321  93.360  0.00  0.00    +0.116 A 
ATOM      7  N   UNL     1     -22.413  58.721  94.450  0.00  0.00    -0.223 NA
ATOM      8  C   UNL     1     -21.089  58.326  94.415  0.00  0.00    +0.220 A 
ATOM      9  N   UNL     1     -20.471  57.728  95.502  0.00  0.00    -0.283 N 
ATOM     36  H   UNL     1     -19.493  57.444  95.434  0.00  0.00    +0.155 HD
ATOM     37  N   UNL     1     -20.355  58.528  93.300  0.00  0.00    -0.214 NA
BRANCH   4   3
ATOM      1  C   UNL     1     -18.162  60.523  89.747  0.00  0.00    +0.020 A 
ATOM      2  C   UNL     1     -19.028  60.404  90.897  0.00  0.00    +0.013 A 
ATOM      3  C   UNL     1     -19.969  59.296  91.010  0.00  0.00    +0.019 A 
ATOM     38  C   UNL     1     -20.007  58.318  89.934  0.00  0.00    +0.120 A 
ATOM     39  N   UNL     1     -19.162  58.460  88.837  0.00  0.00    -0.263 NA
ATOM     40  C   UNL     1     -18.255  59.522  88.717  0.00  0.00    +0.111 A 
ENDBRANCH   4   3
ENDBRANCH  10   9
BRANCH  12  13
ATOM     13  N   UNL     1     -22.408  59.521  99.719  0.00  0.00    -0.281 N 
ATOM     14  C   UNL     1     -22.027  59.632 101.046  0.00  0.00    +0.248 C 
ATOM     30  O   UNL     1     -21.569  58.716 101.713  0.00  0.00    -0.270 OA
ATOM     31  H   UNL     1     -22.952  60.297  99.342  0.00  0.00    +0.155 HD
BRANCH  14  15
ATOM     15  C   UNL     1     -22.191  60.948 101.737  0.00  0.00    +0.037 A 
ATOM     16  C   UNL     1     -22.711  62.119 101.026  0.00  0.00    +0.013 A 
ATOM     17  C   UNL     1     -22.843  63.380 101.711  0.00  0.00    +0.005 A 
ATOM     18  C   UNL     1     -22.457  63.476 103.117  0.00  0.00    -0.033 A 
ATOM     28  C   UNL     1     -21.949  62.297 103.799  0.00  0.00    +0.005 A 
ATOM     29  C   UNL     1     -21.817  61.059 103.130  0.00  0.00    +0.013 A 
BRANCH  18  19
ATOM     19  C   UNL     1     -22.545  64.787 103.921  0.00  0.00    +0.119 C 
BRANCH  19  20
ATOM     20  N   UNL     1     -21.905  64.805 105.270  0.00  0.00    -0.302 NA
ATOM     21  C   UNL     1     -22.616  65.764 106.230  0.00  0.00    +0.066 C 
ATOM     22  C   UNL     1     -21.948  65.754 107.643  0.00  0.00    -0.064 C 
ATOM     23  N   UNL     1     -20.469  66.120 107.508  0.00  0.00    +0.379 N 
ATOM     24  C   UNL     1     -19.852  66.168 108.841  0.00  0.00    -0.096 C 
ATOM     25  H   UNL     1     -20.413  67.145 107.072  0.00  0.00    -0.082 HD
ATOM     26  C   UNL     1     -19.755  65.173 106.554  0.00  0.00    -0.064 C 
ATOM     27  C   UNL     1     -20.445  65.169 105.161  0.00  0.00    +0.066 C 
ENDBRANCH  19  20
ENDBRANCH  18  19
ENDBRANCH  14  15
ENDBRANCH  12  13
TORSDOF 6
ENDMDL
MODEL 3
REMARK VINA RESULT:      -9.8      3.398     12.992
REMARK  Name = C:\Users\Docking\Desktop\test protocol\1iep_ligandH.pdb
REMARK  8 active torsions:
REMARK  status: ('A' for Active; 'I' for Inactive)
REMARK    1  A    between atoms: _5  and  _11
REMARK    2  A    between atoms: _19  and  _21
REMARK    3  A    between atoms: _22  and  _66
REMARK    4  A    between atoms: _27  and  _30
REMARK    5  A    between atoms: _32  and  _33
REMARK    6  A    between atoms: _38  and  _43
REMARK    7  A    between atoms: _43  and  _46
REMARK    8  A    between atoms: _53  and  _55
REMARK                            x       y       z     vdW  Elec       q    Type
REMARK                         _______ _______ _______ _____ _____    ______ ____
ROOT
ATOM     10  C   UNL     1     -20.858  57.031  95.425  0.00  0.00    +0.038 A 
ATOM     11  C   UNL     1     -20.547  57.750  94.242  0.00  0.00    +0.047 A 
ATOM     12  C   UNL     1     -20.612  57.114  92.936  0.00  0.00    +0.035 A 
ATOM     32  C   UNL     1     -21.001  55.744  92.870  0.00  0.00    +0.024 A 
ATOM     33  C   UNL     1     -21.320  54.998  94.062  0.00  0.00    +0.007 A 
ATOM     34  C   UNL     1     -21.255  55.619  95.354  0.00  0.00    -0.029 A 
ATOM     35  C   UNL     1     -21.601  54.769  96.598  0.00  0.00    +0.045 C 
ENDROOT
BRANCH  10   9
ATOM      4  C   UNL     1     -22.791  59.638  98.961  0.00  0.00    +0.077 A 
ATOM      5  C   UNL     1     -24.058  59.714  98.292  0.00  0.00    +0.048 A 
ATOM      6  C   UNL     1     -24.168  59.075  97.037  0.00  0.00    +0.116 A 
ATOM      7  N   UNL     1     -23.086  58.412  96.500  0.00  0.00    -0.223 NA
ATOM      8  C   UNL     1     -21.878  58.359  97.170  0.00  0.00    +0.220 A 
ATOM      9  N   UNL     1     -20.779  57.691  96.653  0.00  0.00    -0.283 N 
ATOM     36  H   UNL     1     -19.903  57.681  97.175  0.00  0.00    +0.155 HD
ATOM     37  N   UNL     1     -21.746  58.963  98.370  0.00  0.00    -0.214 NA
BRANCH   4   3
ATOM      1  C   UNL     1     -22.644  62.169 101.940  0.00  0.00    +0.020 A 
ATOM      2  C   UNL     1     -22.932  61.616 100.637  0.00  0.00    +0.013 A 
ATOM      3  C   UNL     1     -22.518  60.260 100.295  0.00  0.00    +0.019 A 
ATOM     38  C   UNL     1     -21.810  59.485 101.303  0.00  0.00    +0.120 A 
ATOM     39  N   UNL     1     -21.546  60.045 102.549  0.00  0.00    -0.263 NA
ATOM     40  C   UNL     1     -21.937  61.349 102.888  0.00  0.00    +0.111 A 
ENDBRANCH   4   3
ENDBRANCH  10   9
BRANCH  12  13
ATOM     13  N   UNL     1     -20.300  57.791  91.702  0.00  0.00    -0.281 N 
ATOM     14  C   UNL     1     -19.789  59.068  91.537  0.00  0.00    +0.248 C 
ATOM     30  O   UNL     1     -19.722  59.905  92.424  0.00  0.00    -0.270 OA
ATOM     31  H   UNL     1     -20.478  57.265  90.846  0.00  0.00    +0.155 HD
BRANCH  14  15
ATOM     15  C   UNL     1     -19.293  59.478  90.188  0.00  0.00    +0.037 A 
ATOM     16  C   UNL     1     -19.042  60.885  89.866  0.00  0.00    +0.013 A 
ATOM     17  C   UNL     1     -18.580  61.256  88.552  0.00  0.00    +0.005 A 
ATOM     18  C   UNL     1     -18.366  60.216  87.549  0.00  0.00    -0.033 A 
ATOM     28  C   UNL     1     -18.618  58.827  87.896  0.00  0.00    +0.005 A 
ATOM     29  C   UNL     1     -19.071  58.460  89.183  0.00  0.00    +0.013 A 
BRANCH  18  19
ATOM     19  C   UNL     1     -17.895  60.521  86.115  0.00  0.00    +0.119 C 
BRANCH  19  20
ATOM     20  N   UNL     1     -18.937  60.926  85.124  0.00  0.00    -0.302 NA
ATOM     21  C   UNL     1     -19.014  59.955  83.943  0.00  0.00    +0.066 C 
ATOM     22  C   UNL     1     -20.124  60.381  82.928  0.00  0.00    -0.064 C 
ATOM     23  N   UNL     1     -19.848  61.804  82.442  0.00  0.00    +0.379 N 
ATOM     24  C   UNL     1     -20.858  62.186  81.444  0.00  0.00    -0.096 C 
ATOM     25  H   UNL     1     -18.856  61.802  81.935  0.00  0.00    -0.082 HD
ATOM     26  C   UNL     1     -19.767  62.776  83.611  0.00  0.00    -0.064 C 
ATOM     27  C   UNL     1     -18.681  62.328  84.628  0.00  0.00    +0.066 C 
ENDBRANCH  19  20
ENDBRANCH  18  19
ENDBRANCH  14  15
ENDBRANCH  12  13
TORSDOF 6
ENDMDL
