MODEL 1
REMARK VINA RESULT:      -8.8      0.000      0.000
REMARK  Name = C:\Users\Docking\Desktop\test protocol\1iep_ligandH.pdb
REMARK  8 active torsions:
REMARK  status: ('A' for Active; 'I' for Inactive)
REMARK    1  A    between atoms: _5  and  _11
REMARK    2  A    between atoms: _19  and  _21
REMARK    3  A    between atoms: _22  and  _66
REMARK    4  A    between atoms: _27  and  _30
REMARK    5  A    between atoms: _32  and  _33
REMARK    6  A    between atoms: _38  and  _43
REMARK    7  A    between atoms: _43  and  _46
REMARK    8  A    between atoms: _53  and  _55
REMARK                            x       y       z     vdW  Elec       q    Type
REMARK                         _______ _______ _______ _____ _____    ______ ____
ROOT
ATOM     10  C   UNL     1      32.590  17.253  17.142  0.00  0.00    +0.038 A 
ATOM     11  C   UNL     1      31.671  18.280  16.808  0.00  0.00    +0.047 A 
ATOM     12  C   UNL     1      31.750  18.975  15.532  0.00  0.00    +0.035 A 
ATOM     32  C   UNL     1      32.776  18.596  14.619  0.00  0.00    +0.024 A 
ATOM     33  C   UNL     1      33.720  17.555  14.942  0.00  0.00    +0.007 A 
ATOM     34  C   UNL     1      33.648  16.868  16.200  0.00  0.00    -0.029 A 
ATOM     35  C   UNL     1      34.690  15.764  16.496  0.00  0.00    +0.045 C 
ENDROOT
BRANCH  10   9
ATOM      4  C   UNL     1      30.482  14.119  20.103  0.00  0.00    +0.077 A 
ATOM      5  C   UNL     1      29.525  13.731  19.107  0.00  0.00    +0.048 A 
ATOM      6  C   UNL     1      29.605  14.367  17.848  0.00  0.00    +0.116 A 
ATOM      7  N   UNL     1      30.574  15.319  17.614  0.00  0.00    -0.223 NA
ATOM      8  C   UNL     1      31.481  15.671  18.597  0.00  0.00    +0.220 A 
ATOM      9  N   UNL     1      32.468  16.619  18.380  0.00  0.00    -0.283 N 
ATOM     36  H   UNL     1      33.113  16.857  19.134  0.00  0.00    +0.155 HD
ATOM     37  N   UNL     1      31.424  15.079  19.808  0.00  0.00    -0.214 NA
BRANCH   4   3
ATOM      1  C   UNL     1      31.724  12.958  23.626  0.00  0.00    +0.020 A 
ATOM      2  C   UNL     1      31.733  13.534  22.301  0.00  0.00    +0.013 A 
ATOM      3  C   UNL     1      30.528  13.536  21.481  0.00  0.00    +0.019 A 
ATOM     38  C   UNL     1      29.321  12.942  22.036  0.00  0.00    +0.120 A 
ATOM     39  N   UNL     1      29.342  12.393  23.315  0.00  0.00    -0.263 NA
ATOM     40  C   UNL     1      30.497  12.385  24.112  0.00  0.00    +0.111 A 
ENDBRANCH   4   3
ENDBRANCH  10   9
BRANCH  12  13
ATOM     13  N   UNL     1      30.850  20.032  15.141  0.00  0.00    -0.281 N 
ATOM     14  C   UNL     1      30.219  20.958  15.956  0.00  0.00    +0.248 C 
ATOM     30  O   UNL     1      30.166  20.884  17.175  0.00  0.00    -0.270 OA
ATOM     31  H   UNL     1      30.654  20.106  14.143  0.00  0.00    +0.155 HD
BRANCH  14  15
ATOM     15  C   UNL     1      29.536  22.128  15.325  0.00  0.00    +0.037 A 
ATOM     16  C   UNL     1      28.919  23.178  16.139  0.00  0.00    +0.013 A 
ATOM     17  C   UNL     1      28.251  24.287  15.505  0.00  0.00    +0.005 A 
ATOM     18  C   UNL     1      28.200  24.352  14.046  0.00  0.00    -0.033 A 
ATOM     28  C   UNL     1      28.825  23.300  13.263  0.00  0.00    +0.005 A 
ATOM     29  C   UNL     1      29.479  22.211  13.881  0.00  0.00    +0.013 A 
BRANCH  18  19
ATOM     19  C   UNL     1      27.491  25.488  13.285  0.00  0.00    +0.119 C 
BRANCH  19  20
ATOM     20  N   UNL     1      26.427  25.098  12.311  0.00  0.00    -0.302 NA
ATOM     21  C   UNL     1      26.151  26.204  11.288  0.00  0.00    +0.066 C 
ATOM     22  C   UNL     1      25.052  25.771  10.265  0.00  0.00    -0.064 C 
ATOM     23  N   UNL     1      23.774  25.400  11.019  0.00  0.00    +0.379 N 
ATOM     24  C   UNL     1      22.720  25.048  10.056  0.00  0.00    -0.096 C 
ATOM     25  H   UNL     1      23.436  26.305  11.575  0.00  0.00    -0.082 HD
ATOM     26  C   UNL     1      24.039  24.303  12.040  0.00  0.00    -0.064 C 
ATOM     27  C   UNL     1      25.154  24.732  13.035  0.00  0.00    +0.066 C 
ENDBRANCH  19  20
ENDBRANCH  18  19
ENDBRANCH  14  15
ENDBRANCH  12  13
TORSDOF 6
ENDMDL
MODEL 2
REMARK VINA RESULT:      -8.6      4.327      5.701
REMARK  Name = C:\Users\Docking\Desktop\test protocol\1iep_ligandH.pdb
REMARK  8 active torsions:
REMARK  status: ('A' for Active; 'I' for Inactive)
REMARK    1  A    between atoms: _5  and  _11
REMARK    2  A    between atoms: _19  and  _21
REMARK    3  A    between atoms: _22  and  _66
REMARK    4  A    between atoms: _27  and  _30
REMARK    5  A    between atoms: _32  and  _33
REMARK    6  A    between atoms: _38  and  _43
REMARK    7  A    between atoms: _43  and  _46
REMARK    8  A    between atoms: _53  and  _55
REMARK                            x       y       z     vdW  Elec       q    Type
REMARK                         _______ _______ _______ _____ _____    ______ ____
ROOT
ATOM     10  C   UNL     1      30.201  18.919  23.091  0.00  0.00    +0.038 A 
ATOM     11  C   UNL     1      30.349  19.656  21.888  0.00  0.00    +0.047 A 
ATOM     12  C   UNL     1      29.575  20.864  21.647  0.00  0.00    +0.035 A 
ATOM     32  C   UNL     1      28.662  21.294  22.653  0.00  0.00    +0.024 A 
ATOM     33  C   UNL     1      28.499  20.556  23.881  0.00  0.00    +0.007 A 
ATOM     34  C   UNL     1      29.257  19.362  24.124  0.00  0.00    -0.029 A 
ATOM     35  C   UNL     1      29.036  18.607  25.455  0.00  0.00    +0.045 C 
ENDROOT
BRANCH  10   9
ATOM      4  C   UNL     1      34.247  16.688  24.393  0.00  0.00    +0.077 A 
ATOM      5  C   UNL     1      34.895  17.926  24.718  0.00  0.00    +0.048 A 
ATOM      6  C   UNL     1      34.155  19.115  24.529  0.00  0.00    +0.116 A 
ATOM      7  N   UNL     1      32.864  19.058  24.050  0.00  0.00    -0.223 NA
ATOM      8  C   UNL     1      32.269  17.847  23.745  0.00  0.00    +0.220 A 
ATOM      9  N   UNL     1      30.969  17.766  23.270  0.00  0.00    -0.283 N 
ATOM     36  H   UNL     1      30.569  16.854  23.050  0.00  0.00    +0.155 HD
ATOM     37  N   UNL     1      32.955  16.698  23.916  0.00  0.00    -0.214 NA
BRANCH   4   3
ATOM      1  C   UNL     1      36.887  13.802  24.423  0.00  0.00    +0.020 A 
ATOM      2  C   UNL     1      36.309  15.117  24.263  0.00  0.00    +0.013 A 
ATOM      3  C   UNL     1      34.897  15.348  24.542  0.00  0.00    +0.019 A 
ATOM     38  C   UNL     1      34.092  14.219  24.985  0.00  0.00    +0.120 A 
ATOM     39  N   UNL     1      34.676  12.965  25.129  0.00  0.00    -0.263 NA
ATOM     40  C   UNL     1      36.033  12.730  24.862  0.00  0.00    +0.111 A 
ENDBRANCH   4   3
ENDBRANCH  10   9
BRANCH  12  13
ATOM     13  N   UNL     1      29.677  21.650  20.442  0.00  0.00    -0.281 N 
ATOM     14  C   UNL     1      30.156  21.252  19.204  0.00  0.00    +0.248 C 
ATOM     30  O   UNL     1      30.771  20.216  19.001  0.00  0.00    -0.270 OA
ATOM     31  H   UNL     1      29.357  22.616  20.510  0.00  0.00    +0.155 HD
BRANCH  14  15
ATOM     15  C   UNL     1      29.930  22.141  18.024  0.00  0.00    +0.037 A 
ATOM     16  C   UNL     1      30.012  23.599  18.144  0.00  0.00    +0.013 A 
ATOM     17  C   UNL     1      29.774  24.434  16.993  0.00  0.00    +0.005 A 
ATOM     18  C   UNL     1      29.453  23.812  15.711  0.00  0.00    -0.033 A 
ATOM     28  C   UNL     1      29.383  22.363  15.619  0.00  0.00    +0.005 A 
ATOM     29  C   UNL     1      29.615  21.541  16.745  0.00  0.00    +0.013 A 
BRANCH  18  19
ATOM     19  C   UNL     1      29.163  24.625  14.436  0.00  0.00    +0.119 C 
BRANCH  19  20
ATOM     20  N   UNL     1      27.907  24.307  13.692  0.00  0.00    -0.302 NA
ATOM     21  C   UNL     1      28.184  23.519  12.409  0.00  0.00    +0.066 C 
ATOM     22  C   UNL     1      26.858  23.175  11.655  0.00  0.00    -0.064 C 
ATOM     23  N   UNL     1      26.100  24.467  11.345  0.00  0.00    +0.379 N 
ATOM     24  C   UNL     1      24.882  24.152  10.586  0.00  0.00    -0.096 C 
ATOM     25  H   UNL     1      26.753  25.093  10.693  0.00  0.00    -0.082 HD
ATOM     26  C   UNL     1      25.824  25.258  12.616  0.00  0.00    -0.064 C 
ATOM     27  C   UNL     1      27.145  25.569  13.372  0.00  0.00    +0.066 C 
ENDBRANCH  19  20
ENDBRANCH  18  19
ENDBRANCH  14  15
ENDBRANCH  12  13
TORSDOF 6
ENDMDL
MODEL 3
REMARK VINA RESULT:      -8.6     16.648     18.169
REMARK  Name = C:\Users\Docking\Desktop\test protocol\1iep_ligandH.pdb
REMARK  8 active torsions:
REMARK  status: ('A' for Active; 'I' for Inactive)
REMARK    1  A    between atoms: _5  and  _11
REMARK    2  A    between atoms: _19  and  _21
REMARK    3  A    between atoms: _22  and  _66
REMARK    4  A    between atoms: _27  and  _30
REMARK    5  A    between atoms: _32  and  _33
REMARK    6  A    between atoms: _38  and  _43
REMARK    7  A    between atoms: _43  and  _46
REMARK    8  A    between atoms: _53  and  _55
REMARK                            x       y       z     vdW  Elec       q    Type
REMARK                         _______ _______ _______ _____ _____    ______ ____
ROOT
ATOM     10  C   UNL     1      41.854  19.368   5.599  0.00  0.00    +0.038 A 
ATOM     11  C   UNL     1      41.186  20.433   4.944  0.00  0.00    +0.047 A 
ATOM     12  C   UNL     1      40.282  20.184   3.832  0.00  0.00    +0.035 A 
ATOM     32  C   UNL     1      40.079  18.837   3.414  0.00  0.00    +0.024 A 
ATOM     33  C   UNL     1      40.752  17.741   4.068  0.00  0.00    +0.007 A 
ATOM     34  C   UNL     1      41.647  17.981   5.164  0.00  0.00    -0.029 A 
ATOM     35  C   UNL     1      42.345  16.769   5.823  0.00  0.00    +0.045 C 
ENDROOT
BRANCH  10   9
ATOM      4  C   UNL     1      46.202  20.343   7.384  0.00  0.00    +0.077 A 
ATOM      5  C   UNL     1      46.822  20.225   6.096  0.00  0.00    +0.048 A 
ATOM      6  C   UNL     1      45.988  19.905   5.001  0.00  0.00    +0.116 A 
ATOM      7  N   UNL     1      44.636  19.720   5.191  0.00  0.00    -0.223 NA
ATOM      8  C   UNL     1      44.070  19.839   6.447  0.00  0.00    +0.220 A 
ATOM      9  N   UNL     1      42.712  19.664   6.661  0.00  0.00    -0.283 N 
ATOM     36  H   UNL     1      42.334  19.754   7.604  0.00  0.00    +0.155 HD
ATOM     37  N   UNL     1      44.845  20.142   7.509  0.00  0.00    -0.214 NA
BRANCH   4   3
ATOM      1  C   UNL     1      48.790  20.286  10.316  0.00  0.00    +0.020 A 
ATOM      2  C   UNL     1      48.104  19.919   9.099  0.00  0.00    +0.013 A 
ATOM      3  C   UNL     1      46.949  20.679   8.637  0.00  0.00    +0.019 A 
ATOM     38  C   UNL     1      46.511  21.814   9.436  0.00  0.00    +0.120 A 
ATOM     39  N   UNL     1      47.191  22.142  10.605  0.00  0.00    -0.263 NA
ATOM     40  C   UNL     1      48.302  21.417  11.060  0.00  0.00    +0.111 A 
ENDBRANCH   4   3
ENDBRANCH  10   9
BRANCH  12  13
ATOM     13  N   UNL     1      39.581  21.227   3.123  0.00  0.00    -0.281 N 
ATOM     14  C   UNL     1      39.190  22.467   3.601  0.00  0.00    +0.248 C 
ATOM     30  O   UNL     1      39.194  22.786   4.781  0.00  0.00    -0.270 OA
ATOM     31  H   UNL     1      39.345  21.026   2.151  0.00  0.00    +0.155 HD
BRANCH  14  15
ATOM     15  C   UNL     1      38.710  23.496   2.630  0.00  0.00    +0.037 A 
ATOM     16  C   UNL     1      39.649  24.377   1.930  0.00  0.00    +0.013 A 
ATOM     17  C   UNL     1      39.158  25.373   1.011  0.00  0.00    +0.005 A 
ATOM     18  C   UNL     1      37.720  25.493   0.785  0.00  0.00    -0.033 A 
ATOM     28  C   UNL     1      36.811  24.603   1.489  0.00  0.00    +0.005 A 
ATOM     29  C   UNL     1      37.288  23.626   2.391  0.00  0.00    +0.013 A 
BRANCH  18  19
ATOM     19  C   UNL     1      37.106  26.541  -0.162  0.00  0.00    +0.119 C 
BRANCH  19  20
ATOM     20  N   UNL     1      37.756  27.885  -0.208  0.00  0.00    -0.302 NA
ATOM     21  C   UNL     1      37.007  28.915   0.641  0.00  0.00    +0.066 C 
ATOM     22  C   UNL     1      37.713  30.309   0.600  0.00  0.00    -0.064 C 
ATOM     23  N   UNL     1      37.822  30.779  -0.852  0.00  0.00    +0.379 N 
ATOM     24  C   UNL     1      38.434  32.116  -0.890  0.00  0.00    -0.096 C 
ATOM     25  H   UNL     1      36.788  30.869  -1.257  0.00  0.00    -0.082 HD
ATOM     26  C   UNL     1      38.564  29.759  -1.703  0.00  0.00    -0.064 C 
ATOM     27  C   UNL     1      37.871  28.370  -1.632  0.00  0.00    +0.066 C 
ENDBRANCH  19  20
ENDBRANCH  18  19
ENDBRANCH  14  15
ENDBRANCH  12  13
TORSDOF 6
ENDMDL
