MODEL 1
REMARK VINA RESULT:      -8.8      0.000      0.000
REMARK  Name = C:\Users\Docking\Desktop\test protocol\1iep_ligandH.pdb
REMARK  8 active torsions:
REMARK  status: ('A' for Active; 'I' for Inactive)
REMARK    1  A    between atoms: _5  and  _11
REMARK    2  A    between atoms: _19  and  _21
REMARK    3  A    between atoms: _22  and  _66
REMARK    4  A    between atoms: _27  and  _30
REMARK    5  A    between atoms: _32  and  _33
REMARK    6  A    between atoms: _38  and  _43
REMARK    7  A    between atoms: _43  and  _46
REMARK    8  A    between atoms: _53  and  _55
REMARK                            x       y       z     vdW  Elec       q    Type
REMARK                         _______ _______ _______ _____ _____    ______ ____
ROOT
ATOM     10  C   UNL     1      29.270  20.558  24.171  0.00  0.00    +0.038 A 
ATOM     11  C   UNL     1      29.586  21.209  22.951  0.00  0.00    +0.047 A 
ATOM     12  C   UNL     1      28.549  21.554  21.991  0.00  0.00    +0.035 A 
ATOM     32  C   UNL     1      27.199  21.222  22.307  0.00  0.00    +0.024 A 
ATOM     33  C   UNL     1      26.860  20.559  23.541  0.00  0.00    +0.007 A 
ATOM     34  C   UNL     1      27.879  20.214  24.491  0.00  0.00    -0.029 A 
ATOM     35  C   UNL     1      27.459  19.498  25.795  0.00  0.00    +0.045 C 
ENDROOT
BRANCH  10   9
ATOM      4  C   UNL     1      33.190  18.076  25.402  0.00  0.00    +0.077 A 
ATOM      5  C   UNL     1      33.156  17.308  24.190  0.00  0.00    +0.048 A 
ATOM      6  C   UNL     1      32.110  17.578  23.280  0.00  0.00    +0.116 A 
ATOM      7  N   UNL     1      31.172  18.545  23.570  0.00  0.00    -0.223 NA
ATOM      8  C   UNL     1      31.233  19.267  24.748  0.00  0.00    +0.220 A 
ATOM      9  N   UNL     1      30.306  20.250  25.056  0.00  0.00    -0.283 N 
ATOM     36  H   UNL     1      30.381  20.755  25.939  0.00  0.00    +0.155 HD
ATOM     37  N   UNL     1      32.222  19.027  25.634  0.00  0.00    -0.214 NA
BRANCH   4   3
ATOM      1  C   UNL     1      36.577  18.192  27.355  0.00  0.00    +0.020 A 
ATOM      2  C   UNL     1      35.606  18.377  26.301  0.00  0.00    +0.013 A 
ATOM      3  C   UNL     1      34.235  17.909  26.461  0.00  0.00    +0.019 A 
ATOM     38  C   UNL     1      33.875  17.254  27.709  0.00  0.00    +0.120 A 
ATOM     39  N   UNL     1      34.832  17.089  28.706  0.00  0.00    -0.263 NA
ATOM     40  C   UNL     1      36.155  17.533  28.563  0.00  0.00    +0.111 A 
ENDBRANCH   4   3
ENDBRANCH  10   9
BRANCH  12  13
ATOM     13  N   UNL     1      28.811  22.209  20.734  0.00  0.00    -0.281 N 
ATOM     14  C   UNL     1      29.391  21.669  19.597  0.00  0.00    +0.248 C 
ATOM     30  O   UNL     1      29.970  20.593  19.561  0.00  0.00    -0.270 OA
ATOM     31  H   UNL     1      28.535  23.189  20.674  0.00  0.00    +0.155 HD
BRANCH  14  15
ATOM     15  C   UNL     1      29.331  22.442  18.319  0.00  0.00    +0.037 A 
ATOM     16  C   UNL     1      29.686  23.863  18.273  0.00  0.00    +0.013 A 
ATOM     17  C   UNL     1      29.603  24.589  17.031  0.00  0.00    +0.005 A 
ATOM     18  C   UNL     1      29.163  23.894  15.823  0.00  0.00    -0.033 A 
ATOM     28  C   UNL     1      28.822  22.483  15.896  0.00  0.00    +0.005 A 
ATOM     29  C   UNL     1      28.901  21.768  17.112  0.00  0.00    +0.013 A 
BRANCH  18  19
ATOM     19  C   UNL     1      29.025  24.595  14.459  0.00  0.00    +0.119 C 
BRANCH  19  20
ATOM     20  N   UNL     1      27.766  24.356  13.692  0.00  0.00    -0.302 NA
ATOM     21  C   UNL     1      28.021  23.584  12.394  0.00  0.00    +0.066 C 
ATOM     22  C   UNL     1      26.691  23.323  11.616  0.00  0.00    -0.064 C 
ATOM     23  N   UNL     1      26.003  24.659  11.325  0.00  0.00    +0.379 N 
ATOM     24  C   UNL     1      24.781  24.421  10.543  0.00  0.00    -0.096 C 
ATOM     25  H   UNL     1      26.695  25.265  10.696  0.00  0.00    -0.082 HD
ATOM     26  C   UNL     1      25.748  25.434  12.610  0.00  0.00    -0.064 C 
ATOM     27  C   UNL     1      27.073  25.662  13.390  0.00  0.00    +0.066 C 
ENDBRANCH  19  20
ENDBRANCH  18  19
ENDBRANCH  14  15
ENDBRANCH  12  13
TORSDOF 6
ENDMDL
MODEL 2
REMARK VINA RESULT:      -8.8      2.378      2.991
REMARK  Name = C:\Users\Docking\Desktop\test protocol\1iep_ligandH.pdb
REMARK  8 active torsions:
REMARK  status: ('A' for Active; 'I' for Inactive)
REMARK    1  A    between atoms: _5  and  _11
REMARK    2  A    between atoms: _19  and  _21
REMARK    3  A    between atoms: _22  and  _66
REMARK    4  A    between atoms: _27  and  _30
REMARK    5  A    between atoms: _32  and  _33
REMARK    6  A    between atoms: _38  and  _43
REMARK    7  A    between atoms: _43  and  _46
REMARK    8  A    between atoms: _53  and  _55
REMARK                            x       y       z     vdW  Elec       q    Type
REMARK                         _______ _______ _______ _____ _____    ______ ____
ROOT
ATOM     10  C   UNL     1      31.048  18.743  23.945  0.00  0.00    +0.038 A 
ATOM     11  C   UNL     1      30.885  19.179  22.605  0.00  0.00    +0.047 A 
ATOM     12  C   UNL     1      30.226  20.439  22.299  0.00  0.00    +0.035 A 
ATOM     32  C   UNL     1      29.746  21.231  23.383  0.00  0.00    +0.024 A 
ATOM     33  C   UNL     1      29.902  20.802  24.751  0.00  0.00    +0.007 A 
ATOM     34  C   UNL     1      30.549  19.559  25.058  0.00  0.00    -0.029 A 
ATOM     35  C   UNL     1      30.683  19.146  26.543  0.00  0.00    +0.045 C 
ENDROOT
BRANCH  10   9
ATOM      4  C   UNL     1      34.958  16.137  24.925  0.00  0.00    +0.077 A 
ATOM      5  C   UNL     1      35.800  17.298  24.941  0.00  0.00    +0.048 A 
ATOM      6  C   UNL     1      35.189  18.547  24.685  0.00  0.00    +0.116 A 
ATOM      7  N   UNL     1      33.836  18.616  24.434  0.00  0.00    -0.223 NA
ATOM      8  C   UNL     1      33.053  17.477  24.424  0.00  0.00    +0.220 A 
ATOM      9  N   UNL     1      31.689  17.524  24.181  0.00  0.00    -0.283 N 
ATOM     36  H   UNL     1      31.147  16.660  24.175  0.00  0.00    +0.155 HD
ATOM     37  N   UNL     1      33.613  16.273  24.664  0.00  0.00    -0.214 NA
BRANCH   4   3
ATOM      1  C   UNL     1      35.920  12.782  26.691  0.00  0.00    +0.020 A 
ATOM      2  C   UNL     1      35.428  14.126  26.498  0.00  0.00    +0.013 A 
ATOM      3  C   UNL     1      35.455  14.748  25.180  0.00  0.00    +0.019 A 
ATOM     38  C   UNL     1      35.990  13.976  24.069  0.00  0.00    +0.120 A 
ATOM     39  N   UNL     1      36.458  12.683  24.285  0.00  0.00    -0.263 NA
ATOM     40  C   UNL     1      36.439  12.075  25.549  0.00  0.00    +0.111 A 
ENDBRANCH   4   3
ENDBRANCH  10   9
BRANCH  12  13
ATOM     13  N   UNL     1      30.025  20.930  20.959  0.00  0.00    -0.281 N 
ATOM     14  C   UNL     1      28.825  21.147  20.302  0.00  0.00    +0.248 C 
ATOM     30  O   UNL     1      27.739  20.746  20.696  0.00  0.00    -0.270 OA
ATOM     31  H   UNL     1      30.870  21.144  20.429  0.00  0.00    +0.155 HD
BRANCH  14  15
ATOM     15  C   UNL     1      28.833  21.905  19.014  0.00  0.00    +0.037 A 
ATOM     16  C   UNL     1      28.080  21.433  17.849  0.00  0.00    +0.013 A 
ATOM     17  C   UNL     1      28.119  22.174  16.614  0.00  0.00    +0.005 A 
ATOM     18  C   UNL     1      28.913  23.398  16.538  0.00  0.00    -0.033 A 
ATOM     28  C   UNL     1      29.646  23.847  17.710  0.00  0.00    +0.005 A 
ATOM     29  C   UNL     1      29.611  23.122  18.922  0.00  0.00    +0.013 A 
BRANCH  18  19
ATOM     19  C   UNL     1      29.029  24.242  15.254  0.00  0.00    +0.119 C 
BRANCH  19  20
ATOM     20  N   UNL     1      27.911  24.146  14.269  0.00  0.00    -0.302 NA
ATOM     21  C   UNL     1      28.360  23.511  12.950  0.00  0.00    +0.066 C 
ATOM     22  C   UNL     1      27.172  23.398  11.940  0.00  0.00    -0.064 C 
ATOM     23  N   UNL     1      26.577  24.786  11.698  0.00  0.00    +0.379 N 
ATOM     24  C   UNL     1      25.498  24.691  10.704  0.00  0.00    -0.096 C 
ATOM     25  H   UNL     1      27.380  25.427  11.265  0.00  0.00    -0.082 HD
ATOM     26  C   UNL     1      26.130  25.425  13.005  0.00  0.00    -0.064 C 
ATOM     27  C   UNL     1      27.311  25.506  14.013  0.00  0.00    +0.066 C 
ENDBRANCH  19  20
ENDBRANCH  18  19
ENDBRANCH  14  15
ENDBRANCH  12  13
TORSDOF 6
ENDMDL
MODEL 3
REMARK VINA RESULT:      -8.5      1.766      2.236
REMARK  Name = C:\Users\Docking\Desktop\test protocol\1iep_ligandH.pdb
REMARK  8 active torsions:
REMARK  status: ('A' for Active; 'I' for Inactive)
REMARK    1  A    between atoms: _5  and  _11
REMARK    2  A    between atoms: _19  and  _21
REMARK    3  A    between atoms: _22  and  _66
REMARK    4  A    between atoms: _27  and  _30
REMARK    5  A    between atoms: _32  and  _33
REMARK    6  A    between atoms: _38  and  _43
REMARK    7  A    between atoms: _43  and  _46
REMARK    8  A    between atoms: _53  and  _55
REMARK                            x       y       z     vdW  Elec       q    Type
REMARK                         _______ _______ _______ _____ _____    ______ ____
ROOT
ATOM     10  C   UNL     1      29.504  19.481  22.644  0.00  0.00    +0.038 A 
ATOM     11  C   UNL     1      29.512  20.122  21.379  0.00  0.00    +0.047 A 
ATOM     12  C   UNL     1      28.604  21.220  21.086  0.00  0.00    +0.035 A 
ATOM     32  C   UNL     1      27.703  21.641  22.106  0.00  0.00    +0.024 A 
ATOM     33  C   UNL     1      27.681  21.001  23.398  0.00  0.00    +0.007 A 
ATOM     34  C   UNL     1      28.572  19.915  23.692  0.00  0.00    -0.029 A 
ATOM     35  C   UNL     1      28.500  19.261  25.091  0.00  0.00    +0.045 C 
ENDROOT
BRANCH  10   9
ATOM      4  C   UNL     1      33.690  17.756  24.241  0.00  0.00    +0.077 A 
ATOM      5  C   UNL     1      34.145  19.060  24.630  0.00  0.00    +0.048 A 
ATOM      6  C   UNL     1      33.276  20.148  24.396  0.00  0.00    +0.116 A 
ATOM      7  N   UNL     1      32.044  19.937  23.816  0.00  0.00    -0.223 NA
ATOM      8  C   UNL     1      31.636  18.668  23.450  0.00  0.00    +0.220 A 
ATOM      9  N   UNL     1      30.398  18.432  22.872  0.00  0.00    -0.283 N 
ATOM     36  H   UNL     1      30.137  17.481  22.609  0.00  0.00    +0.155 HD
ATOM     37  N   UNL     1      32.449  17.612  23.661  0.00  0.00    -0.214 NA
BRANCH   4   3
ATOM      1  C   UNL     1      36.657  15.282  24.852  0.00  0.00    +0.020 A 
ATOM      2  C   UNL     1      35.928  16.518  24.680  0.00  0.00    +0.013 A 
ATOM      3  C   UNL     1      34.493  16.507  24.426  0.00  0.00    +0.019 A 
ATOM     38  C   UNL     1      33.820  15.218  24.351  0.00  0.00    +0.120 A 
ATOM     39  N   UNL     1      34.549  14.045  24.519  0.00  0.00    -0.263 NA
ATOM     40  C   UNL     1      35.930  14.043  24.763  0.00  0.00    +0.111 A 
ENDBRANCH   4   3
ENDBRANCH  10   9
BRANCH  12  13
ATOM     13  N   UNL     1      28.561  21.903  19.817  0.00  0.00    -0.281 N 
ATOM     14  C   UNL     1      29.622  22.225  18.987  0.00  0.00    +0.248 C 
ATOM     30  O   UNL     1      30.798  22.164  19.313  0.00  0.00    -0.270 OA
ATOM     31  H   UNL     1      27.636  22.183  19.491  0.00  0.00    +0.155 HD
BRANCH  14  15
ATOM     15  C   UNL     1      29.335  22.699  17.599  0.00  0.00    +0.037 A 
ATOM     16  C   UNL     1      28.987  21.757  16.531  0.00  0.00    +0.013 A 
ATOM     17  C   UNL     1      28.731  22.239  15.197  0.00  0.00    +0.005 A 
ATOM     18  C   UNL     1      28.821  23.671  14.923  0.00  0.00    -0.033 A 
ATOM     28  C   UNL     1      29.163  24.584  16.002  0.00  0.00    +0.005 A 
ATOM     29  C   UNL     1      29.415  24.115  17.311  0.00  0.00    +0.013 A 
BRANCH  18  19
ATOM     19  C   UNL     1      28.585  24.272  13.525  0.00  0.00    +0.119 C 
BRANCH  19  20
ATOM     20  N   UNL     1      27.204  24.180  12.965  0.00  0.00    -0.302 NA
ATOM     21  C   UNL     1      27.196  23.606  11.546  0.00  0.00    +0.066 C 
ATOM     22  C   UNL     1      25.741  23.496  10.984  0.00  0.00    -0.064 C 
ATOM     23  N   UNL     1      25.080  24.875  11.015  0.00  0.00    +0.379 N 
ATOM     24  C   UNL     1      23.732  24.786  10.434  0.00  0.00    -0.096 C 
ATOM     25  H   UNL     1      25.683  25.553  10.368  0.00  0.00    -0.082 HD
ATOM     26  C   UNL     1      25.086  25.454  12.422  0.00  0.00    -0.064 C 
ATOM     27  C   UNL     1      26.534  25.532  12.982  0.00  0.00    +0.066 C 
ENDBRANCH  19  20
ENDBRANCH  18  19
ENDBRANCH  14  15
ENDBRANCH  12  13
TORSDOF 6
ENDMDL
