MODEL 1
REMARK VINA RESULT:      -9.2      0.000      0.000
REMARK  Name = C:\Users\Docking\Desktop\test protocol\1iep_ligandH.pdb
REMARK  8 active torsions:
REMARK  status: ('A' for Active; 'I' for Inactive)
REMARK    1  A    between atoms: _5  and  _11
REMARK    2  A    between atoms: _19  and  _21
REMARK    3  A    between atoms: _22  and  _66
REMARK    4  A    between atoms: _27  and  _30
REMARK    5  A    between atoms: _32  and  _33
REMARK    6  A    between atoms: _38  and  _43
REMARK    7  A    between atoms: _43  and  _46
REMARK    8  A    between atoms: _53  and  _55
REMARK                            x       y       z     vdW  Elec       q    Type
REMARK                         _______ _______ _______ _____ _____    ______ ____
ROOT
ATOM     10  C   UNL     1      29.829  23.552  15.821  0.00  0.00    +0.038 A 
ATOM     11  C   UNL     1      29.544  22.166  15.724  0.00  0.00    +0.047 A 
ATOM     12  C   UNL     1      29.607  21.301  16.892  0.00  0.00    +0.035 A 
ATOM     32  C   UNL     1      29.962  21.882  18.144  0.00  0.00    +0.024 A 
ATOM     33  C   UNL     1      30.257  23.289  18.260  0.00  0.00    +0.007 A 
ATOM     34  C   UNL     1      30.199  24.146  17.111  0.00  0.00    -0.029 A 
ATOM     35  C   UNL     1      30.531  25.645  17.293  0.00  0.00    +0.045 C 
ENDROOT
BRANCH  10   9
ATOM      4  C   UNL     1      27.349  26.036  12.548  0.00  0.00    +0.077 A 
ATOM      5  C   UNL     1      26.096  25.725  13.175  0.00  0.00    +0.048 A 
ATOM      6  C   UNL     1      26.133  24.916  14.333  0.00  0.00    +0.116 A 
ATOM      7  N   UNL     1      27.339  24.459  14.820  0.00  0.00    -0.223 NA
ATOM      8  C   UNL     1      28.528  24.777  14.191  0.00  0.00    +0.220 A 
ATOM      9  N   UNL     1      29.753  24.335  14.667  0.00  0.00    -0.283 N 
ATOM     36  H   UNL     1      30.608  24.585  14.170  0.00  0.00    +0.155 HD
ATOM     37  N   UNL     1      28.520  25.547  13.082  0.00  0.00    -0.214 NA
BRANCH   4   3
ATOM      1  C   UNL     1      27.615  27.186   8.819  0.00  0.00    +0.020 A 
ATOM      2  C   UNL     1      27.493  26.325   9.973  0.00  0.00    +0.013 A 
ATOM      3  C   UNL     1      27.474  26.882  11.319  0.00  0.00    +0.019 A 
ATOM     38  C   UNL     1      27.580  28.326  11.465  0.00  0.00    +0.120 A 
ATOM     39  N   UNL     1      27.699  29.130  10.336  0.00  0.00    -0.263 NA
ATOM     40  C   UNL     1      27.720  28.605   9.035  0.00  0.00    +0.111 A 
ENDBRANCH   4   3
ENDBRANCH  10   9
BRANCH  12  13
ATOM     13  N   UNL     1      29.335  19.886  16.853  0.00  0.00    -0.281 N 
ATOM     14  C   UNL     1      30.222  18.842  17.062  0.00  0.00    +0.248 C 
ATOM     30  O   UNL     1      31.437  18.966  17.104  0.00  0.00    -0.270 OA
ATOM     31  H   UNL     1      28.372  19.621  16.647  0.00  0.00    +0.155 HD
BRANCH  14  15
ATOM     15  C   UNL     1      29.682  17.459  17.235  0.00  0.00    +0.037 A 
ATOM     16  C   UNL     1      30.553  16.285  17.131  0.00  0.00    +0.013 A 
ATOM     17  C   UNL     1      30.003  14.961  17.285  0.00  0.00    +0.005 A 
ATOM     18  C   UNL     1      28.574  14.805  17.547  0.00  0.00    -0.033 A 
ATOM     28  C   UNL     1      27.735  15.988  17.651  0.00  0.00    +0.005 A 
ATOM     29  C   UNL     1      28.270  17.286  17.499  0.00  0.00    +0.013 A 
BRANCH  18  19
ATOM     19  C   UNL     1      27.898  13.431  17.705  0.00  0.00    +0.119 C 
BRANCH  19  20
ATOM     20  N   UNL     1      28.200  12.398  16.669  0.00  0.00    -0.302 NA
ATOM     21  C   UNL     1      27.690  12.807  15.284  0.00  0.00    +0.066 C 
ATOM     22  C   UNL     1      28.034  11.726  14.208  0.00  0.00    -0.064 C 
ATOM     23  N   UNL     1      27.435  10.383  14.630  0.00  0.00    +0.379 N 
ATOM     24  C   UNL     1      27.707   9.377  13.593  0.00  0.00    -0.096 C 
ATOM     25  H   UNL     1      26.330  10.511  14.696  0.00  0.00    -0.082 HD
ATOM     26  C   UNL     1      27.934   9.969  16.008  0.00  0.00    -0.064 C 
ATOM     27  C   UNL     1      27.614  11.064  17.063  0.00  0.00    +0.066 C 
ENDBRANCH  19  20
ENDBRANCH  18  19
ENDBRANCH  14  15
ENDBRANCH  12  13
TORSDOF 6
ENDMDL
MODEL 2
REMARK VINA RESULT:      -9.1      2.879     13.043
REMARK  Name = C:\Users\Docking\Desktop\test protocol\1iep_ligandH.pdb
REMARK  8 active torsions:
REMARK  status: ('A' for Active; 'I' for Inactive)
REMARK    1  A    between atoms: _5  and  _11
REMARK    2  A    between atoms: _19  and  _21
REMARK    3  A    between atoms: _22  and  _66
REMARK    4  A    between atoms: _27  and  _30
REMARK    5  A    between atoms: _32  and  _33
REMARK    6  A    between atoms: _38  and  _43
REMARK    7  A    between atoms: _43  and  _46
REMARK    8  A    between atoms: _53  and  _55
REMARK                            x       y       z     vdW  Elec       q    Type
REMARK                         _______ _______ _______ _____ _____    ______ ____
ROOT
ATOM     10  C   UNL     1      29.361  22.655  16.211  0.00  0.00    +0.038 A 
ATOM     11  C   UNL     1      29.001  23.142  14.928  0.00  0.00    +0.047 A 
ATOM     12  C   UNL     1      29.249  24.525  14.552  0.00  0.00    +0.035 A 
ATOM     32  C   UNL     1      29.868  25.384  15.506  0.00  0.00    +0.024 A 
ATOM     33  C   UNL     1      30.240  24.906  16.814  0.00  0.00    +0.007 A 
ATOM     34  C   UNL     1      29.996  23.543  17.192  0.00  0.00    -0.029 A 
ATOM     35  C   UNL     1      30.410  23.087  18.610  0.00  0.00    +0.045 C 
ENDROOT
BRANCH  10   9
ATOM      4  C   UNL     1      30.668  18.046  16.504  0.00  0.00    +0.077 A 
ATOM      5  C   UNL     1      31.972  18.320  15.973  0.00  0.00    +0.048 A 
ATOM      6  C   UNL     1      32.264  19.659  15.630  0.00  0.00    +0.116 A 
ATOM      7  N   UNL     1      31.316  20.643  15.809  0.00  0.00    -0.223 NA
ATOM      8  C   UNL     1      30.067  20.344  16.323  0.00  0.00    +0.220 A 
ATOM      9  N   UNL     1      29.100  21.318  16.519  0.00  0.00    -0.283 N 
ATOM     36  H   UNL     1      28.189  21.055  16.893  0.00  0.00    +0.155 HD
ATOM     37  N   UNL     1      29.763  19.072  16.656  0.00  0.00    -0.214 NA
BRANCH   4   3
ATOM      1  C   UNL     1      28.462  14.873  17.112  0.00  0.00    +0.020 A 
ATOM      2  C   UNL     1      28.853  16.200  16.695  0.00  0.00    +0.013 A 
ATOM      3  C   UNL     1      30.211  16.681  16.916  0.00  0.00    +0.019 A 
ATOM     38  C   UNL     1      31.157  15.787  17.566  0.00  0.00    +0.120 A 
ATOM     39  N   UNL     1      30.752  14.515  17.958  0.00  0.00    -0.263 NA
ATOM     40  C   UNL     1      29.447  14.042  17.752  0.00  0.00    +0.111 A 
ENDBRANCH   4   3
ENDBRANCH  10   9
BRANCH  12  13
ATOM     13  N   UNL     1      28.897  25.078  13.268  0.00  0.00    -0.281 N 
ATOM     14  C   UNL     1      27.824  25.898  12.958  0.00  0.00    +0.248 C 
ATOM     30  O   UNL     1      26.878  26.109  13.702  0.00  0.00    -0.270 OA
ATOM     31  H   UNL     1      29.514  24.835  12.492  0.00  0.00    +0.155 HD
BRANCH  14  15
ATOM     15  C   UNL     1      27.791  26.571  11.624  0.00  0.00    +0.037 A 
ATOM     16  C   UNL     1      27.794  28.031  11.509  0.00  0.00    +0.013 A 
ATOM     17  C   UNL     1      27.744  28.655  10.210  0.00  0.00    +0.005 A 
ATOM     18  C   UNL     1      27.692  27.816   9.015  0.00  0.00    -0.033 A 
ATOM     28  C   UNL     1      27.696  26.370   9.158  0.00  0.00    +0.005 A 
ATOM     29  C   UNL     1      27.744  25.755  10.429  0.00  0.00    +0.013 A 
BRANCH  18  19
ATOM     19  C   UNL     1      27.616  28.395   7.590  0.00  0.00    +0.119 C 
BRANCH  19  20
ATOM     20  N   UNL     1      26.262  28.506   6.969  0.00  0.00    -0.302 NA
ATOM     21  C   UNL     1      26.089  27.543   5.791  0.00  0.00    +0.066 C 
ATOM     22  C   UNL     1      24.660  27.656   5.168  0.00  0.00    -0.064 C 
ATOM     23  N   UNL     1      24.412  29.100   4.727  0.00  0.00    +0.379 N 
ATOM     24  C   UNL     1      23.092  29.198   4.088  0.00  0.00    -0.096 C 
ATOM     25  H   UNL     1      25.180  29.356   3.960  0.00  0.00    -0.082 HD
ATOM     26  C   UNL     1      24.585  30.065   5.891  0.00  0.00    -0.064 C 
ATOM     27  C   UNL     1      25.998  29.923   6.522  0.00  0.00    +0.066 C 
ENDBRANCH  19  20
ENDBRANCH  18  19
ENDBRANCH  14  15
ENDBRANCH  12  13
TORSDOF 6
ENDMDL
MODEL 3
REMARK VINA RESULT:      -9.0      1.576      2.451
REMARK  Name = C:\Users\Docking\Desktop\test protocol\1iep_ligandH.pdb
REMARK  8 active torsions:
REMARK  status: ('A' for Active; 'I' for Inactive)
REMARK    1  A    between atoms: _5  and  _11
REMARK    2  A    between atoms: _19  and  _21
REMARK    3  A    between atoms: _22  and  _66
REMARK    4  A    between atoms: _27  and  _30
REMARK    5  A    between atoms: _32  and  _33
REMARK    6  A    between atoms: _38  and  _43
REMARK    7  A    between atoms: _43  and  _46
REMARK    8  A    between atoms: _53  and  _55
REMARK                            x       y       z     vdW  Elec       q    Type
REMARK                         _______ _______ _______ _____ _____    ______ ____
ROOT
ATOM     10  C   UNL     1      29.880  23.597  15.770  0.00  0.00    +0.038 A 
ATOM     11  C   UNL     1      29.642  22.203  15.661  0.00  0.00    +0.047 A 
ATOM     12  C   UNL     1      29.734  21.331  16.821  0.00  0.00    +0.035 A 
ATOM     32  C   UNL     1      30.069  21.912  18.079  0.00  0.00    +0.024 A 
ATOM     33  C   UNL     1      30.315  23.327  18.208  0.00  0.00    +0.007 A 
ATOM     34  C   UNL     1      30.228  24.192  17.066  0.00  0.00    -0.029 A 
ATOM     35  C   UNL     1      30.509  25.700  17.262  0.00  0.00    +0.045 C 
ENDROOT
BRANCH  10   9
ATOM      4  C   UNL     1      27.319  26.037  12.526  0.00  0.00    +0.077 A 
ATOM      5  C   UNL     1      26.078  25.685  13.154  0.00  0.00    +0.048 A 
ATOM      6  C   UNL     1      26.142  24.868  14.305  0.00  0.00    +0.116 A 
ATOM      7  N   UNL     1      27.362  24.442  14.784  0.00  0.00    -0.223 NA
ATOM      8  C   UNL     1      28.540  24.798  14.154  0.00  0.00    +0.220 A 
ATOM      9  N   UNL     1      29.778  24.388  14.624  0.00  0.00    -0.283 N 
ATOM     36  H   UNL     1      30.623  24.666  14.126  0.00  0.00    +0.155 HD
ATOM     37  N   UNL     1      28.505  25.576  13.053  0.00  0.00    -0.214 NA
BRANCH   4   3
ATOM      1  C   UNL     1      27.343  27.249   8.807  0.00  0.00    +0.020 A 
ATOM      2  C   UNL     1      27.240  26.377   9.954  0.00  0.00    +0.013 A 
ATOM      3  C   UNL     1      27.416  26.897  11.304  0.00  0.00    +0.019 A 
ATOM     38  C   UNL     1      27.697  28.316  11.461  0.00  0.00    +0.120 A 
ATOM     39  N   UNL     1      27.793  29.132  10.338  0.00  0.00    -0.263 NA
ATOM     40  C   UNL     1      27.627  28.642   9.034  0.00  0.00    +0.111 A 
ENDBRANCH   4   3
ENDBRANCH  10   9
BRANCH  12  13
ATOM     13  N   UNL     1      29.511  19.907  16.770  0.00  0.00    -0.281 N 
ATOM     14  C   UNL     1      30.453  18.902  16.620  0.00  0.00    +0.248 C 
ATOM     30  O   UNL     1      31.615  19.088  16.291  0.00  0.00    -0.270 OA
ATOM     31  H   UNL     1      28.541  19.603  16.854  0.00  0.00    +0.155 HD
BRANCH  14  15
ATOM     15  C   UNL     1      30.041  17.485  16.854  0.00  0.00    +0.037 A 
ATOM     16  C   UNL     1      31.020  16.459  17.221  0.00  0.00    +0.013 A 
ATOM     17  C   UNL     1      30.598  15.096  17.425  0.00  0.00    +0.005 A 
ATOM     18  C   UNL     1      29.188  14.751  17.264  0.00  0.00    -0.033 A 
ATOM     28  C   UNL     1      28.236  15.790  16.905  0.00  0.00    +0.005 A 
ATOM     29  C   UNL     1      28.646  17.127  16.704  0.00  0.00    +0.013 A 
BRANCH  18  19
ATOM     19  C   UNL     1      28.652  13.318  17.442  0.00  0.00    +0.119 C 
BRANCH  19  20
ATOM     20  N   UNL     1      27.603  13.105  18.483  0.00  0.00    -0.302 NA
ATOM     21  C   UNL     1      28.113  13.437  19.889  0.00  0.00    +0.066 C 
ATOM     22  C   UNL     1      26.997  13.230  20.963  0.00  0.00    -0.064 C 
ATOM     23  N   UNL     1      26.491  11.788  20.898  0.00  0.00    +0.379 N 
ATOM     24  C   UNL     1      25.482  11.573  21.945  0.00  0.00    -0.096 C 
ATOM     25  H   UNL     1      27.354  11.117  21.117  0.00  0.00    -0.082 HD
ATOM     26  C   UNL     1      25.985  11.448  19.503  0.00  0.00    -0.064 C 
ATOM     27  C   UNL     1      27.093  11.686  18.439  0.00  0.00    +0.066 C 
ENDBRANCH  19  20
ENDBRANCH  18  19
ENDBRANCH  14  15
ENDBRANCH  12  13
TORSDOF 6
ENDMDL
