MODEL 1
REMARK VINA RESULT:      -8.3      0.000      0.000
REMARK  Name = C:\Users\Docking\Desktop\test protocol\1iep_ligandH.pdb
REMARK  8 active torsions:
REMARK  status: ('A' for Active; 'I' for Inactive)
REMARK    1  A    between atoms: _5  and  _11
REMARK    2  A    between atoms: _19  and  _21
REMARK    3  A    between atoms: _22  and  _66
REMARK    4  A    between atoms: _27  and  _30
REMARK    5  A    between atoms: _32  and  _33
REMARK    6  A    between atoms: _38  and  _43
REMARK    7  A    between atoms: _43  and  _46
REMARK    8  A    between atoms: _53  and  _55
REMARK                            x       y       z     vdW  Elec       q    Type
REMARK                         _______ _______ _______ _____ _____    ______ ____
ROOT
ATOM     10  C   UNL     1      21.496   6.622  19.112  0.00  0.00    +0.038 A 
ATOM     11  C   UNL     1      21.993   6.677  17.785  0.00  0.00    +0.047 A 
ATOM     12  C   UNL     1      21.098   6.851  16.652  0.00  0.00    +0.035 A 
ATOM     32  C   UNL     1      19.700   6.968  16.908  0.00  0.00    +0.024 A 
ATOM     33  C   UNL     1      19.177   6.913  18.250  0.00  0.00    +0.007 A 
ATOM     34  C   UNL     1      20.056   6.740  19.371  0.00  0.00    -0.029 A 
ATOM     35  C   UNL     1      19.439   6.681  20.788  0.00  0.00    +0.045 C 
ENDROOT
BRANCH  10   9
ATOM      4  C   UNL     1      24.164   8.335  22.715  0.00  0.00    +0.077 A 
ATOM      5  C   UNL     1      23.740   9.683  22.467  0.00  0.00    +0.048 A 
ATOM      6  C   UNL     1      22.840   9.893  21.399  0.00  0.00    +0.116 A 
ATOM      7  N   UNL     1      22.403   8.828  20.641  0.00  0.00    -0.223 NA
ATOM      8  C   UNL     1      22.833   7.541  20.906  0.00  0.00    +0.220 A 
ATOM      9  N   UNL     1      22.401   6.454  20.162  0.00  0.00    -0.283 N 
ATOM     36  H   UNL     1      22.747   5.521  20.385  0.00  0.00    +0.155 HD
ATOM     37  N   UNL     1      23.694   7.314  21.920  0.00  0.00    -0.214 NA
BRANCH   4   3
ATOM      1  C   UNL     1      26.599   8.496  25.772  0.00  0.00    +0.020 A 
ATOM      2  C   UNL     1      25.691   8.920  24.731  0.00  0.00    +0.013 A 
ATOM      3  C   UNL     1      25.110   7.951  23.810  0.00  0.00    +0.019 A 
ATOM     38  C   UNL     1      25.471   6.550  23.972  0.00  0.00    +0.120 A 
ATOM     39  N   UNL     1      26.349   6.172  24.983  0.00  0.00    -0.263 NA
ATOM     40  C   UNL     1      26.916   7.096  25.874  0.00  0.00    +0.111 A 
ENDBRANCH   4   3
ENDBRANCH  10   9
BRANCH  12  13
ATOM     13  N   UNL     1      21.544   6.906  15.282  0.00  0.00    -0.281 N 
ATOM     14  C   UNL     1      21.412   5.935  14.304  0.00  0.00    +0.248 C 
ATOM     30  O   UNL     1      21.077   4.780  14.518  0.00  0.00    -0.270 OA
ATOM     31  H   UNL     1      22.015   7.766  15.000  0.00  0.00    +0.155 HD
BRANCH  14  15
ATOM     15  C   UNL     1      21.709   6.295  12.884  0.00  0.00    +0.037 A 
ATOM     16  C   UNL     1      20.816   5.892  11.795  0.00  0.00    +0.013 A 
ATOM     17  C   UNL     1      21.135   6.238  10.432  0.00  0.00    +0.005 A 
ATOM     18  C   UNL     1      22.353   6.994  10.152  0.00  0.00    -0.033 A 
ATOM     28  C   UNL     1      23.219   7.385  11.252  0.00  0.00    +0.005 A 
ATOM     29  C   UNL     1      22.910   7.047  12.588  0.00  0.00    +0.013 A 
BRANCH  18  19
ATOM     19  C   UNL     1      22.783   7.388   8.726  0.00  0.00    +0.119 C 
BRANCH  19  20
ATOM     20  N   UNL     1      23.766   6.499   8.038  0.00  0.00    -0.302 NA
ATOM     21  C   UNL     1      24.535   7.236   6.938  0.00  0.00    +0.066 C 
ATOM     22  C   UNL     1      25.575   6.297   6.244  0.00  0.00    -0.064 C 
ATOM     23  N   UNL     1      24.854   5.074   5.674  0.00  0.00    +0.379 N 
ATOM     24  C   UNL     1      25.820   4.218   4.970  0.00  0.00    -0.096 C 
ATOM     25  H   UNL     1      24.114   5.438   4.923  0.00  0.00    -0.082 HD
ATOM     26  C   UNL     1      24.084   4.337   6.761  0.00  0.00    -0.064 C 
ATOM     27  C   UNL     1      23.074   5.287   7.464  0.00  0.00    +0.066 C 
ENDBRANCH  19  20
ENDBRANCH  18  19
ENDBRANCH  14  15
ENDBRANCH  12  13
TORSDOF 6
ENDMDL
MODEL 2
REMARK VINA RESULT:      -8.1     32.482     37.127
REMARK  Name = C:\Users\Docking\Desktop\test protocol\1iep_ligandH.pdb
REMARK  8 active torsions:
REMARK  status: ('A' for Active; 'I' for Inactive)
REMARK    1  A    between atoms: _5  and  _11
REMARK    2  A    between atoms: _19  and  _21
REMARK    3  A    between atoms: _22  and  _66
REMARK    4  A    between atoms: _27  and  _30
REMARK    5  A    between atoms: _32  and  _33
REMARK    6  A    between atoms: _38  and  _43
REMARK    7  A    between atoms: _43  and  _46
REMARK    8  A    between atoms: _53  and  _55
REMARK                            x       y       z     vdW  Elec       q    Type
REMARK                         _______ _______ _______ _____ _____    ______ ____
ROOT
ATOM     10  C   UNL     1      49.834  34.210  25.957  0.00  0.00    +0.038 A 
ATOM     11  C   UNL     1      48.573  33.658  25.618  0.00  0.00    +0.047 A 
ATOM     12  C   UNL     1      47.349  34.140  26.238  0.00  0.00    +0.035 A 
ATOM     32  C   UNL     1      47.446  35.188  27.199  0.00  0.00    +0.024 A 
ATOM     33  C   UNL     1      48.720  35.760  27.557  0.00  0.00    +0.007 A 
ATOM     34  C   UNL     1      49.931  35.287  26.950  0.00  0.00    -0.029 A 
ATOM     35  C   UNL     1      51.270  35.932  27.376  0.00  0.00    +0.045 C 
ENDROOT
BRANCH  10   9
ATOM      4  C   UNL     1      53.147  30.801  25.292  0.00  0.00    +0.077 A 
ATOM      5  C   UNL     1      52.567  29.958  26.298  0.00  0.00    +0.048 A 
ATOM      6  C   UNL     1      51.421  30.442  26.968  0.00  0.00    +0.116 A 
ATOM      7  N   UNL     1      50.902  31.678  26.648  0.00  0.00    -0.223 NA
ATOM      8  C   UNL     1      51.487  32.466  25.674  0.00  0.00    +0.220 A 
ATOM      9  N   UNL     1      50.977  33.709  25.330  0.00  0.00    -0.283 N 
ATOM     36  H   UNL     1      51.442  34.263  24.611  0.00  0.00    +0.155 HD
ATOM     37  N   UNL     1      52.583  32.027  25.020  0.00  0.00    -0.214 NA
BRANCH   4   3
ATOM      1  C   UNL     1      55.706  28.818  23.096  0.00  0.00    +0.020 A 
ATOM      2  C   UNL     1      54.516  29.127  23.856  0.00  0.00    +0.013 A 
ATOM      3  C   UNL     1      54.358  30.428  24.494  0.00  0.00    +0.019 A 
ATOM     38  C   UNL     1      55.429  31.401  24.343  0.00  0.00    +0.120 A 
ATOM     39  N   UNL     1      56.564  31.074  23.606  0.00  0.00    -0.263 NA
ATOM     40  C   UNL     1      56.728  29.825  22.989  0.00  0.00    +0.111 A 
ENDBRANCH   4   3
ENDBRANCH  10   9
BRANCH  12  13
ATOM     13  N   UNL     1      46.040  33.613  25.939  0.00  0.00    -0.281 N 
ATOM     14  C   UNL     1      45.087  34.136  25.081  0.00  0.00    +0.248 C 
ATOM     30  O   UNL     1      45.132  35.258  24.600  0.00  0.00    -0.270 OA
ATOM     31  H   UNL     1      45.786  32.749  26.419  0.00  0.00    +0.155 HD
BRANCH  14  15
ATOM     15  C   UNL     1      43.905  33.296  24.717  0.00  0.00    +0.037 A 
ATOM     16  C   UNL     1      43.614  32.046  25.424  0.00  0.00    +0.013 A 
ATOM     17  C   UNL     1      42.477  31.247  25.041  0.00  0.00    +0.005 A 
ATOM     18  C   UNL     1      41.623  31.696  23.944  0.00  0.00    -0.033 A 
ATOM     28  C   UNL     1      41.932  32.942  23.263  0.00  0.00    +0.005 A 
ATOM     29  C   UNL     1      43.046  33.728  23.635  0.00  0.00    +0.013 A 
BRANCH  18  19
ATOM     19  C   UNL     1      40.401  30.896  23.454  0.00  0.00    +0.119 C 
BRANCH  19  20
ATOM     20  N   UNL     1      39.156  30.979  24.274  0.00  0.00    -0.302 NA
ATOM     21  C   UNL     1      38.520  29.603  24.495  0.00  0.00    +0.066 C 
ATOM     22  C   UNL     1      37.231  29.706  25.372  0.00  0.00    -0.064 C 
ATOM     23  N   UNL     1      36.238  30.660  24.706  0.00  0.00    +0.379 N 
ATOM     24  C   UNL     1      35.002  30.715  25.499  0.00  0.00    -0.096 C 
ATOM     25  H   UNL     1      35.981  30.237  23.707  0.00  0.00    -0.082 HD
ATOM     26  C   UNL     1      36.863  32.030  24.480  0.00  0.00    -0.064 C 
ATOM     27  C   UNL     1      38.160  31.913  23.631  0.00  0.00    +0.066 C 
ENDBRANCH  19  20
ENDBRANCH  18  19
ENDBRANCH  14  15
ENDBRANCH  12  13
TORSDOF 6
ENDMDL
MODEL 3
REMARK VINA RESULT:      -8.0     34.567     38.852
REMARK  Name = C:\Users\Docking\Desktop\test protocol\1iep_ligandH.pdb
REMARK  8 active torsions:
REMARK  status: ('A' for Active; 'I' for Inactive)
REMARK    1  A    between atoms: _5  and  _11
REMARK    2  A    between atoms: _19  and  _21
REMARK    3  A    between atoms: _22  and  _66
REMARK    4  A    between atoms: _27  and  _30
REMARK    5  A    between atoms: _32  and  _33
REMARK    6  A    between atoms: _38  and  _43
REMARK    7  A    between atoms: _43  and  _46
REMARK    8  A    between atoms: _53  and  _55
REMARK                            x       y       z     vdW  Elec       q    Type
REMARK                         _______ _______ _______ _____ _____    ______ ____
ROOT
ATOM     10  C   UNL     1      47.486  34.092  26.433  0.00  0.00    +0.038 A 
ATOM     11  C   UNL     1      48.520  33.306  25.862  0.00  0.00    +0.047 A 
ATOM     12  C   UNL     1      49.918  33.557  26.178  0.00  0.00    +0.035 A 
ATOM     32  C   UNL     1      50.227  34.615  27.081  0.00  0.00    +0.024 A 
ATOM     33  C   UNL     1      49.189  35.425  27.669  0.00  0.00    +0.007 A 
ATOM     34  C   UNL     1      47.809  35.184  27.360  0.00  0.00    -0.029 A 
ATOM     35  C   UNL     1      46.738  36.088  28.015  0.00  0.00    +0.045 C 
ENDROOT
BRANCH  10   9
ATOM      4  C   UNL     1      43.711  34.399  23.486  0.00  0.00    +0.077 A 
ATOM      5  C   UNL     1      44.430  35.217  22.553  0.00  0.00    +0.048 A 
ATOM      6  C   UNL     1      45.768  35.543  22.872  0.00  0.00    +0.116 A 
ATOM      7  N   UNL     1      46.333  35.078  24.040  0.00  0.00    -0.223 NA
ATOM      8  C   UNL     1      45.610  34.292  24.919  0.00  0.00    +0.220 A 
ATOM      9  N   UNL     1      46.161  33.808  26.095  0.00  0.00    -0.283 N 
ATOM     36  H   UNL     1      45.593  33.237  26.720  0.00  0.00    +0.155 HD
ATOM     37  N   UNL     1      44.331  33.969  24.637  0.00  0.00    -0.214 NA
BRANCH   4   3
ATOM      1  C   UNL     1      40.388  33.127  21.860  0.00  0.00    +0.020 A 
ATOM      2  C   UNL     1      41.767  33.534  21.998  0.00  0.00    +0.013 A 
ATOM      3  C   UNL     1      42.291  33.967  23.287  0.00  0.00    +0.019 A 
ATOM     38  C   UNL     1      41.386  33.975  24.427  0.00  0.00    +0.120 A 
ATOM     39  N   UNL     1      40.062  33.578  24.264  0.00  0.00    -0.263 NA
ATOM     40  C   UNL     1      39.547  33.162  23.027  0.00  0.00    +0.111 A 
ENDBRANCH   4   3
ENDBRANCH  10   9
BRANCH  12  13
ATOM     13  N   UNL     1      51.010  32.796  25.623  0.00  0.00    -0.281 N 
ATOM     14  C   UNL     1      51.135  31.419  25.542  0.00  0.00    +0.248 C 
ATOM     30  O   UNL     1      50.417  30.624  26.131  0.00  0.00    -0.270 OA
ATOM     31  H   UNL     1      51.786  33.340  25.244  0.00  0.00    +0.155 HD
BRANCH  14  15
ATOM     15  C   UNL     1      52.223  30.841  24.696  0.00  0.00    +0.037 A 
ATOM     16  C   UNL     1      52.189  30.950  23.236  0.00  0.00    +0.013 A 
ATOM     17  C   UNL     1      53.243  30.368  22.442  0.00  0.00    +0.005 A 
ATOM     18  C   UNL     1      54.342  29.674  23.110  0.00  0.00    -0.033 A 
ATOM     28  C   UNL     1      54.353  29.586  24.561  0.00  0.00    +0.005 A 
ATOM     29  C   UNL     1      53.321  30.154  25.341  0.00  0.00    +0.013 A 
BRANCH  18  19
ATOM     19  C   UNL     1      55.498  29.006  22.342  0.00  0.00    +0.119 C 
BRANCH  19  20
ATOM     20  N   UNL     1      56.533  29.903  21.749  0.00  0.00    -0.302 NA
ATOM     21  C   UNL     1      56.936  31.028  22.707  0.00  0.00    +0.066 C 
ATOM     22  C   UNL     1      58.037  31.944  22.079  0.00  0.00    -0.064 C 
ATOM     23  N   UNL     1      57.526  32.516  20.755  0.00  0.00    +0.379 N 
ATOM     24  C   UNL     1      58.535  33.423  20.191  0.00  0.00    -0.096 C 
ATOM     25  H   UNL     1      56.615  33.120  20.978  0.00  0.00    -0.082 HD
ATOM     26  C   UNL     1      57.120  31.405  19.798  0.00  0.00    -0.064 C 
ATOM     27  C   UNL     1      56.048  30.483  20.443  0.00  0.00    +0.066 C 
ENDBRANCH  19  20
ENDBRANCH  18  19
ENDBRANCH  14  15
ENDBRANCH  12  13
TORSDOF 6
ENDMDL
