MODEL 1
REMARK VINA RESULT:      -8.9      0.000      0.000
REMARK  Name = C:\Users\Docking\Desktop\test protocol\1iep_ligandH.pdb
REMARK  8 active torsions:
REMARK  status: ('A' for Active; 'I' for Inactive)
REMARK    1  A    between atoms: _5  and  _11
REMARK    2  A    between atoms: _19  and  _21
REMARK    3  A    between atoms: _22  and  _66
REMARK    4  A    between atoms: _27  and  _30
REMARK    5  A    between atoms: _32  and  _33
REMARK    6  A    between atoms: _38  and  _43
REMARK    7  A    between atoms: _43  and  _46
REMARK    8  A    between atoms: _53  and  _55
REMARK                            x       y       z     vdW  Elec       q    Type
REMARK                         _______ _______ _______ _____ _____    ______ ____
ROOT
ATOM     10  C   UNL     1      90.890  24.081  51.306  0.00  0.00    +0.038 A 
ATOM     11  C   UNL     1      90.543  24.941  52.380  0.00  0.00    +0.047 A 
ATOM     12  C   UNL     1      89.238  25.580  52.440  0.00  0.00    +0.035 A 
ATOM     32  C   UNL     1      88.309  25.320  51.391  0.00  0.00    +0.024 A 
ATOM     33  C   UNL     1      88.646  24.450  50.292  0.00  0.00    +0.007 A 
ATOM     34  C   UNL     1      89.932  23.818  50.226  0.00  0.00    -0.029 A 
ATOM     35  C   UNL     1      90.241  22.900  49.020  0.00  0.00    +0.045 C 
ENDROOT
BRANCH  10   9
ATOM      4  C   UNL     1      93.813  20.317  51.880  0.00  0.00    +0.077 A 
ATOM      5  C   UNL     1      92.728  19.456  52.252  0.00  0.00    +0.048 A 
ATOM      6  C   UNL     1      91.434  20.022  52.291  0.00  0.00    +0.116 A 
ATOM      7  N   UNL     1      91.251  21.352  51.978  0.00  0.00    -0.223 NA
ATOM      8  C   UNL     1      92.319  22.155  51.625  0.00  0.00    +0.220 A 
ATOM      9  N   UNL     1      92.157  23.493  51.299  0.00  0.00    -0.283 N 
ATOM     36  H   UNL     1      92.972  24.054  51.051  0.00  0.00    +0.155 HD
ATOM     37  N   UNL     1      93.565  21.639  51.582  0.00  0.00    -0.214 NA
BRANCH   4   3
ATOM      1  C   UNL     1      97.168  18.403  52.496  0.00  0.00    +0.020 A 
ATOM      2  C   UNL     1      95.785  18.801  52.622  0.00  0.00    +0.013 A 
ATOM      3  C   UNL     1      95.238  19.866  51.791  0.00  0.00    +0.019 A 
ATOM     38  C   UNL     1      96.123  20.511  50.833  0.00  0.00    +0.120 A 
ATOM     39  N   UNL     1      97.451  20.106  50.734  0.00  0.00    -0.263 NA
ATOM     40  C   UNL     1      97.989  19.085  51.531  0.00  0.00    +0.111 A 
ENDBRANCH   4   3
ENDBRANCH  10   9
BRANCH  12  13
ATOM     13  N   UNL     1      88.833  26.469  53.501  0.00  0.00    -0.281 N 
ATOM     14  C   UNL     1      88.991  26.294  54.866  0.00  0.00    +0.248 C 
ATOM     30  O   UNL     1      89.316  25.241  55.395  0.00  0.00    -0.270 OA
ATOM     31  H   UNL     1      88.374  27.332  53.210  0.00  0.00    +0.155 HD
BRANCH  14  15
ATOM     15  C   UNL     1      88.738  27.451  55.777  0.00  0.00    +0.037 A 
ATOM     16  C   UNL     1      88.738  27.287  57.233  0.00  0.00    +0.013 A 
ATOM     17  C   UNL     1      88.474  28.416  58.088  0.00  0.00    +0.005 A 
ATOM     18  C   UNL     1      88.209  29.722  57.489  0.00  0.00    -0.033 A 
ATOM     28  C   UNL     1      88.220  29.858  56.042  0.00  0.00    +0.005 A 
ATOM     29  C   UNL     1      88.478  28.753  55.200  0.00  0.00    +0.013 A 
BRANCH  18  19
ATOM     19  C   UNL     1      87.897  30.978  58.324  0.00  0.00    +0.119 C 
BRANCH  19  20
ATOM     20  N   UNL     1      88.972  31.482  59.230  0.00  0.00    -0.302 NA
ATOM     21  C   UNL     1      88.453  32.543  60.204  0.00  0.00    +0.066 C 
ATOM     22  C   UNL     1      89.585  33.043  61.159  0.00  0.00    -0.064 C 
ATOM     23  N   UNL     1      90.745  33.592  60.326  0.00  0.00    +0.379 N 
ATOM     24  C   UNL     1      91.787  34.116  61.222  0.00  0.00    -0.096 C 
ATOM     25  H   UNL     1      90.354  34.446  59.725  0.00  0.00    -0.082 HD
ATOM     26  C   UNL     1      91.266  32.544  59.353  0.00  0.00    -0.064 C 
ATOM     27  C   UNL     1      90.126  32.033  58.429  0.00  0.00    +0.066 C 
ENDBRANCH  19  20
ENDBRANCH  18  19
ENDBRANCH  14  15
ENDBRANCH  12  13
TORSDOF 6
ENDMDL
MODEL 2
REMARK VINA RESULT:      -8.8      2.307      3.563
REMARK  Name = C:\Users\Docking\Desktop\test protocol\1iep_ligandH.pdb
REMARK  8 active torsions:
REMARK  status: ('A' for Active; 'I' for Inactive)
REMARK    1  A    between atoms: _5  and  _11
REMARK    2  A    between atoms: _19  and  _21
REMARK    3  A    between atoms: _22  and  _66
REMARK    4  A    between atoms: _27  and  _30
REMARK    5  A    between atoms: _32  and  _33
REMARK    6  A    between atoms: _38  and  _43
REMARK    7  A    between atoms: _43  and  _46
REMARK    8  A    between atoms: _53  and  _55
REMARK                            x       y       z     vdW  Elec       q    Type
REMARK                         _______ _______ _______ _____ _____    ______ ____
ROOT
ATOM     10  C   UNL     1      90.678  21.211  50.860  0.00  0.00    +0.038 A 
ATOM     11  C   UNL     1      90.447  22.417  51.571  0.00  0.00    +0.047 A 
ATOM     12  C   UNL     1      89.748  23.533  50.954  0.00  0.00    +0.035 A 
ATOM     32  C   UNL     1      89.295  23.387  49.610  0.00  0.00    +0.024 A 
ATOM     33  C   UNL     1      89.522  22.169  48.872  0.00  0.00    +0.007 A 
ATOM     34  C   UNL     1      90.213  21.065  49.475  0.00  0.00    -0.029 A 
ATOM     35  C   UNL     1      90.434  19.786  48.634  0.00  0.00    +0.045 C 
ENDROOT
BRANCH  10   9
ATOM      4  C   UNL     1      94.706  19.043  52.314  0.00  0.00    +0.077 A 
ATOM      5  C   UNL     1      95.534  20.054  51.721  0.00  0.00    +0.048 A 
ATOM      6  C   UNL     1      94.884  21.111  51.045  0.00  0.00    +0.116 A 
ATOM      7  N   UNL     1      93.508  21.145  50.974  0.00  0.00    -0.223 NA
ATOM      8  C   UNL     1      92.739  20.153  51.555  0.00  0.00    +0.220 A 
ATOM      9  N   UNL     1      91.354  20.172  51.502  0.00  0.00    -0.283 N 
ATOM     36  H   UNL     1      90.823  19.417  51.936  0.00  0.00    +0.155 HD
ATOM     37  N   UNL     1      93.336  19.132  52.205  0.00  0.00    -0.214 NA
BRANCH   4   3
ATOM      1  C   UNL     1      97.097  16.614  54.233  0.00  0.00    +0.020 A 
ATOM      2  C   UNL     1      96.628  17.775  53.511  0.00  0.00    +0.013 A 
ATOM      3  C   UNL     1      95.243  17.865  53.064  0.00  0.00    +0.019 A 
ATOM     38  C   UNL     1      94.352  16.755  53.367  0.00  0.00    +0.120 A 
ATOM     39  N   UNL     1      94.832  15.650  54.063  0.00  0.00    -0.263 NA
ATOM     40  C   UNL     1      96.163  15.551  54.496  0.00  0.00    +0.111 A 
ENDBRANCH   4   3
ENDBRANCH  10   9
BRANCH  12  13
ATOM     13  N   UNL     1      89.492  24.784  51.624  0.00  0.00    -0.281 N 
ATOM     14  C   UNL     1      88.335  25.180  52.274  0.00  0.00    +0.248 C 
ATOM     30  O   UNL     1      87.263  24.599  52.194  0.00  0.00    -0.270 OA
ATOM     31  H   UNL     1      90.257  25.459  51.618  0.00  0.00    +0.155 HD
BRANCH  14  15
ATOM     15  C   UNL     1      88.370  26.408  53.125  0.00  0.00    +0.037 A 
ATOM     16  C   UNL     1      89.640  26.991  53.567  0.00  0.00    +0.013 A 
ATOM     17  C   UNL     1      89.645  28.166  54.402  0.00  0.00    +0.005 A 
ATOM     18  C   UNL     1      88.374  28.768  54.799  0.00  0.00    -0.033 A 
ATOM     28  C   UNL     1      87.129  28.172  54.343  0.00  0.00    +0.005 A 
ATOM     29  C   UNL     1      87.121  27.020  53.525  0.00  0.00    +0.013 A 
BRANCH  18  19
ATOM     19  C   UNL     1      88.284  30.010  55.706  0.00  0.00    +0.119 C 
BRANCH  19  20
ATOM     20  N   UNL     1      88.372  29.788  57.180  0.00  0.00    -0.302 NA
ATOM     21  C   UNL     1      87.763  28.447  57.597  0.00  0.00    +0.066 C 
ATOM     22  C   UNL     1      87.885  28.222  59.139  0.00  0.00    -0.064 C 
ATOM     23  N   UNL     1      87.206  29.377  59.876  0.00  0.00    +0.379 N 
ATOM     24  C   UNL     1      87.267  29.139  61.325  0.00  0.00    -0.096 C 
ATOM     25  H   UNL     1      86.131  29.382  59.579  0.00  0.00    -0.082 HD
ATOM     26  C   UNL     1      87.803  30.715  59.465  0.00  0.00    -0.064 C 
ATOM     27  C   UNL     1      87.704  30.916  57.927  0.00  0.00    +0.066 C 
ENDBRANCH  19  20
ENDBRANCH  18  19
ENDBRANCH  14  15
ENDBRANCH  12  13
TORSDOF 6
ENDMDL
MODEL 3
REMARK VINA RESULT:      -8.8      2.882     12.390
REMARK  Name = C:\Users\Docking\Desktop\test protocol\1iep_ligandH.pdb
REMARK  8 active torsions:
REMARK  status: ('A' for Active; 'I' for Inactive)
REMARK    1  A    between atoms: _5  and  _11
REMARK    2  A    between atoms: _19  and  _21
REMARK    3  A    between atoms: _22  and  _66
REMARK    4  A    between atoms: _27  and  _30
REMARK    5  A    between atoms: _32  and  _33
REMARK    6  A    between atoms: _38  and  _43
REMARK    7  A    between atoms: _43  and  _46
REMARK    8  A    between atoms: _53  and  _55
REMARK                            x       y       z     vdW  Elec       q    Type
REMARK                         _______ _______ _______ _____ _____    ______ ____
ROOT
ATOM     10  C   UNL     1      88.764  24.715  51.701  0.00  0.00    +0.038 A 
ATOM     11  C   UNL     1      89.829  23.810  51.944  0.00  0.00    +0.047 A 
ATOM     12  C   UNL     1      90.539  23.171  50.847  0.00  0.00    +0.035 A 
ATOM     32  C   UNL     1      90.139  23.478  49.514  0.00  0.00    +0.024 A 
ATOM     33  C   UNL     1      89.058  24.394  49.249  0.00  0.00    +0.007 A 
ATOM     34  C   UNL     1      88.352  25.026  50.327  0.00  0.00    -0.029 A 
ATOM     35  C   UNL     1      87.196  25.994  49.984  0.00  0.00    +0.045 C 
ENDROOT
BRANCH  10   9
ATOM      4  C   UNL     1      88.534  27.925  55.262  0.00  0.00    +0.077 A 
ATOM      5  C   UNL     1      89.823  28.465  54.938  0.00  0.00    +0.048 A 
ATOM      6  C   UNL     1      90.516  27.883  53.852  0.00  0.00    +0.116 A 
ATOM      7  N   UNL     1      89.951  26.841  53.150  0.00  0.00    -0.223 NA
ATOM      8  C   UNL     1      88.707  26.342  53.490  0.00  0.00    +0.220 A 
ATOM      9  N   UNL     1      88.117  25.299  52.792  0.00  0.00    -0.283 N 
ATOM     36  H   UNL     1      87.201  24.956  53.079  0.00  0.00    +0.155 HD
ATOM     37  N   UNL     1      88.026  26.879  54.523  0.00  0.00    -0.214 NA
BRANCH   4   3
ATOM      1  C   UNL     1      87.228  29.970  58.330  0.00  0.00    +0.020 A 
ATOM      2  C   UNL     1      88.093  29.515  57.266  0.00  0.00    +0.013 A 
ATOM      3  C   UNL     1      87.678  28.434  56.380  0.00  0.00    +0.019 A 
ATOM     38  C   UNL     1      86.372  27.831  56.599  0.00  0.00    +0.120 A 
ATOM     39  N   UNL     1      85.561  28.290  57.633  0.00  0.00    -0.263 NA
ATOM     40  C   UNL     1      85.950  29.327  58.493  0.00  0.00    +0.111 A 
ENDBRANCH   4   3
ENDBRANCH  10   9
BRANCH  12  13
ATOM     13  N   UNL     1      91.623  22.239  51.033  0.00  0.00    -0.281 N 
ATOM     14  C   UNL     1      92.833  22.456  51.671  0.00  0.00    +0.248 C 
ATOM     30  O   UNL     1      93.256  23.555  51.996  0.00  0.00    -0.270 OA
ATOM     31  H   UNL     1      91.481  21.306  50.646  0.00  0.00    +0.155 HD
BRANCH  14  15
ATOM     15  C   UNL     1      93.706  21.283  51.982  0.00  0.00    +0.037 A 
ATOM     16  C   UNL     1      94.932  21.026  51.222  0.00  0.00    +0.013 A 
ATOM     17  C   UNL     1      95.747  19.877  51.531  0.00  0.00    +0.005 A 
ATOM     18  C   UNL     1      95.338  18.978  52.607  0.00  0.00    -0.033 A 
ATOM     28  C   UNL     1      94.120  19.260  53.349  0.00  0.00    +0.005 A 
ATOM     29  C   UNL     1      93.318  20.384  53.048  0.00  0.00    +0.013 A 
BRANCH  18  19
ATOM     19  C   UNL     1      96.136  17.718  52.992  0.00  0.00    +0.119 C 
BRANCH  19  20
ATOM     20  N   UNL     1      95.408  16.651  53.742  0.00  0.00    -0.302 NA
ATOM     21  C   UNL     1      96.348  15.828  54.628  0.00  0.00    +0.066 C 
ATOM     22  C   UNL     1      95.567  14.731  55.422  0.00  0.00    -0.064 C 
ATOM     23  N   UNL     1      94.820  13.828  54.439  0.00  0.00    +0.379 N 
ATOM     24  C   UNL     1      94.132  12.761  55.180  0.00  0.00    -0.096 C 
ATOM     25  H   UNL     1      95.579  13.347  53.779  0.00  0.00    -0.082 HD
ATOM     26  C   UNL     1      93.885  14.639  53.553  0.00  0.00    -0.064 C 
ATOM     27  C   UNL     1      94.667  15.745  52.790  0.00  0.00    +0.066 C 
ENDBRANCH  19  20
ENDBRANCH  18  19
ENDBRANCH  14  15
ENDBRANCH  12  13
TORSDOF 6
ENDMDL
