MODEL 1
REMARK VINA RESULT:      -7.2      0.000      0.000
REMARK  Name = C:\Users\Docking\Desktop\test protocol\1iep_ligandH.pdb
REMARK  8 active torsions:
REMARK  status: ('A' for Active; 'I' for Inactive)
REMARK    1  A    between atoms: _5  and  _11
REMARK    2  A    between atoms: _19  and  _21
REMARK    3  A    between atoms: _22  and  _66
REMARK    4  A    between atoms: _27  and  _30
REMARK    5  A    between atoms: _32  and  _33
REMARK    6  A    between atoms: _38  and  _43
REMARK    7  A    between atoms: _43  and  _46
REMARK    8  A    between atoms: _53  and  _55
REMARK                            x       y       z     vdW  Elec       q    Type
REMARK                         _______ _______ _______ _____ _____    ______ ____
ROOT
ATOM     10  C   UNL     1       8.684   1.190  13.699  0.00  0.00    +0.038 A 
ATOM     11  C   UNL     1       8.751   0.915  15.089  0.00  0.00    +0.047 A 
ATOM     12  C   UNL     1      10.029   0.837  15.779  0.00  0.00    +0.035 A 
ATOM     32  C   UNL     1      11.219   1.047  15.024  0.00  0.00    +0.024 A 
ATOM     33  C   UNL     1      11.169   1.326  13.610  0.00  0.00    +0.007 A 
ATOM     34  C   UNL     1       9.912   1.402  12.923  0.00  0.00    -0.029 A 
ATOM     35  C   UNL     1       9.919   1.698  11.405  0.00  0.00    +0.045 C 
ENDROOT
BRANCH  10   9
ATOM      4  C   UNL     1       4.892  -0.867  11.594  0.00  0.00    +0.077 A 
ATOM      5  C   UNL     1       5.469  -2.176  11.699  0.00  0.00    +0.048 A 
ATOM      6  C   UNL     1       6.747  -2.276  12.294  0.00  0.00    +0.116 A 
ATOM      7  N   UNL     1       7.390  -1.144  12.748  0.00  0.00    -0.223 NA
ATOM      8  C   UNL     1       6.805   0.103  12.630  0.00  0.00    +0.220 A 
ATOM      9  N   UNL     1       7.430   1.254  13.087  0.00  0.00    -0.283 N 
ATOM     36  H   UNL     1       6.969   2.156  12.974  0.00  0.00    +0.155 HD
ATOM     37  N   UNL     1       5.587   0.226  12.064  0.00  0.00    -0.214 NA
BRANCH   4   3
ATOM      1  C   UNL     1       2.042  -0.011   9.055  0.00  0.00    +0.020 A 
ATOM      2  C   UNL     1       3.362  -0.260   9.586  0.00  0.00    +0.013 A 
ATOM      3  C   UNL     1       3.548  -0.598  10.992  0.00  0.00    +0.019 A 
ATOM     38  C   UNL     1       2.368  -0.677  11.839  0.00  0.00    +0.120 A 
ATOM     39  N   UNL     1       1.109  -0.431  11.300  0.00  0.00    -0.263 NA
ATOM     40  C   UNL     1       0.918  -0.103   9.949  0.00  0.00    +0.111 A 
ENDBRANCH   4   3
ENDBRANCH  10   9
BRANCH  12  13
ATOM     13  N   UNL     1      10.159   0.553  17.187  0.00  0.00    -0.281 N 
ATOM     14  C   UNL     1       9.715  -0.564  17.875  0.00  0.00    +0.248 C 
ATOM     30  O   UNL     1       8.945  -1.397  17.419  0.00  0.00    -0.270 OA
ATOM     31  H   UNL     1      10.637   1.261  17.744  0.00  0.00    +0.155 HD
BRANCH  14  15
ATOM     15  C   UNL     1      10.183  -0.781  19.278  0.00  0.00    +0.037 A 
ATOM     16  C   UNL     1       9.994  -2.069  19.952  0.00  0.00    +0.013 A 
ATOM     17  C   UNL     1      10.439  -2.246  21.312  0.00  0.00    +0.005 A 
ATOM     18  C   UNL     1      11.079  -1.131  22.006  0.00  0.00    -0.033 A 
ATOM     28  C   UNL     1      11.259   0.133  21.312  0.00  0.00    +0.005 A 
ATOM     29  C   UNL     1      10.823   0.311  19.980  0.00  0.00    +0.013 A 
BRANCH  18  19
ATOM     19  C   UNL     1      11.566  -1.224  23.465  0.00  0.00    +0.119 C 
BRANCH  19  20
ATOM     20  N   UNL     1      10.525  -1.217  24.535  0.00  0.00    -0.302 NA
ATOM     21  C   UNL     1       9.880   0.162  24.701  0.00  0.00    +0.066 C 
ATOM     22  C   UNL     1       8.777   0.145  25.809  0.00  0.00    -0.064 C 
ATOM     23  N   UNL     1       9.391  -0.328  27.128  0.00  0.00    +0.379 N 
ATOM     24  C   UNL     1       8.370  -0.290  28.185  0.00  0.00    -0.096 C 
ATOM     25  H   UNL     1      10.193   0.394  27.406  0.00  0.00    -0.082 HD
ATOM     26  C   UNL     1      10.036  -1.698  26.971  0.00  0.00    -0.064 C 
ATOM     27  C   UNL     1      11.110  -1.678  25.847  0.00  0.00    +0.066 C 
ENDBRANCH  19  20
ENDBRANCH  18  19
ENDBRANCH  14  15
ENDBRANCH  12  13
TORSDOF 6
ENDMDL
MODEL 2
REMARK VINA RESULT:      -7.2     22.971     26.608
REMARK  Name = C:\Users\Docking\Desktop\test protocol\1iep_ligandH.pdb
REMARK  8 active torsions:
REMARK  status: ('A' for Active; 'I' for Inactive)
REMARK    1  A    between atoms: _5  and  _11
REMARK    2  A    between atoms: _19  and  _21
REMARK    3  A    between atoms: _22  and  _66
REMARK    4  A    between atoms: _27  and  _30
REMARK    5  A    between atoms: _32  and  _33
REMARK    6  A    between atoms: _38  and  _43
REMARK    7  A    between atoms: _43  and  _46
REMARK    8  A    between atoms: _53  and  _55
REMARK                            x       y       z     vdW  Elec       q    Type
REMARK                         _______ _______ _______ _____ _____    ______ ____
ROOT
ATOM     10  C   UNL     1       9.567  20.870  34.953  0.00  0.00    +0.038 A 
ATOM     11  C   UNL     1      10.844  20.301  35.191  0.00  0.00    +0.047 A 
ATOM     12  C   UNL     1      11.374  20.180  36.540  0.00  0.00    +0.035 A 
ATOM     32  C   UNL     1      10.576  20.647  37.625  0.00  0.00    +0.024 A 
ATOM     33  C   UNL     1       9.276  21.229  37.401  0.00  0.00    +0.007 A 
ATOM     34  C   UNL     1       8.748  21.353  36.072  0.00  0.00    -0.029 A 
ATOM     35  C   UNL     1       7.351  21.991  35.890  0.00  0.00    +0.045 C 
ENDROOT
BRANCH  10   9
ATOM      4  C   UNL     1       7.420  19.015  31.082  0.00  0.00    +0.077 A 
ATOM      5  C   UNL     1       7.222  17.748  31.725  0.00  0.00    +0.048 A 
ATOM      6  C   UNL     1       7.694  17.613  33.050  0.00  0.00    +0.116 A 
ATOM      7  N   UNL     1       8.315  18.672  33.675  0.00  0.00    -0.223 NA
ATOM      8  C   UNL     1       8.491  19.880  33.026  0.00  0.00    +0.220 A 
ATOM      9  N   UNL     1       9.107  20.961  33.638  0.00  0.00    -0.283 N 
ATOM     36  H   UNL     1       9.224  21.833  33.122  0.00  0.00    +0.155 HD
ATOM     37  N   UNL     1       8.051  20.034  31.759  0.00  0.00    -0.214 NA
BRANCH   4   3
ATOM      1  C   UNL     1       5.688  18.771  27.583  0.00  0.00    +0.020 A 
ATOM      2  C   UNL     1       6.089  18.436  28.930  0.00  0.00    +0.013 A 
ATOM      3  C   UNL     1       6.974  19.314  29.684  0.00  0.00    +0.019 A 
ATOM     38  C   UNL     1       7.438  20.535  29.042  0.00  0.00    +0.120 A 
ATOM     39  N   UNL     1       7.037  20.831  27.743  0.00  0.00    -0.263 NA
ATOM     40  C   UNL     1       6.187  19.992  27.007  0.00  0.00    +0.111 A 
ENDBRANCH   4   3
ENDBRANCH  10   9
BRANCH  12  13
ATOM     13  N   UNL     1      12.667  19.618  36.843  0.00  0.00    -0.281 N 
ATOM     14  C   UNL     1      13.132  19.159  38.064  0.00  0.00    +0.248 C 
ATOM     30  O   UNL     1      12.577  19.359  39.134  0.00  0.00    -0.270 OA
ATOM     31  H   UNL     1      13.320  19.551  36.061  0.00  0.00    +0.155 HD
BRANCH  14  15
ATOM     15  C   UNL     1      14.404  18.376  38.104  0.00  0.00    +0.037 A 
ATOM     16  C   UNL     1      14.853  17.718  39.334  0.00  0.00    +0.013 A 
ATOM     17  C   UNL     1      16.093  16.983  39.351  0.00  0.00    +0.005 A 
ATOM     18  C   UNL     1      16.893  16.901  38.131  0.00  0.00    -0.033 A 
ATOM     28  C   UNL     1      16.421  17.558  36.923  0.00  0.00    +0.005 A 
ATOM     29  C   UNL     1      15.207  18.280  36.904  0.00  0.00    +0.013 A 
BRANCH  18  19
ATOM     19  C   UNL     1      18.239  16.156  38.062  0.00  0.00    +0.119 C 
BRANCH  19  20
ATOM     20  N   UNL     1      18.309  14.949  37.186  0.00  0.00    -0.302 NA
ATOM     21  C   UNL     1      17.343  13.852  37.642  0.00  0.00    +0.066 C 
ATOM     22  C   UNL     1      17.413  12.605  36.702  0.00  0.00    -0.064 C 
ATOM     23  N   UNL     1      18.849  12.080  36.661  0.00  0.00    +0.379 N 
ATOM     24  C   UNL     1      18.906  10.873  35.823  0.00  0.00    -0.096 C 
ATOM     25  H   UNL     1      19.130  11.785  37.698  0.00  0.00    -0.082 HD
ATOM     26  C   UNL     1      19.816  13.165  36.210  0.00  0.00    -0.064 C 
ATOM     27  C   UNL     1      19.718  14.411  37.134  0.00  0.00    +0.066 C 
ENDBRANCH  19  20
ENDBRANCH  18  19
ENDBRANCH  14  15
ENDBRANCH  12  13
TORSDOF 6
ENDMDL
MODEL 3
REMARK VINA RESULT:      -7.2     23.739     27.053
REMARK  Name = C:\Users\Docking\Desktop\test protocol\1iep_ligandH.pdb
REMARK  8 active torsions:
REMARK  status: ('A' for Active; 'I' for Inactive)
REMARK    1  A    between atoms: _5  and  _11
REMARK    2  A    between atoms: _19  and  _21
REMARK    3  A    between atoms: _22  and  _66
REMARK    4  A    between atoms: _27  and  _30
REMARK    5  A    between atoms: _32  and  _33
REMARK    6  A    between atoms: _38  and  _43
REMARK    7  A    between atoms: _43  and  _46
REMARK    8  A    between atoms: _53  and  _55
REMARK                            x       y       z     vdW  Elec       q    Type
REMARK                         _______ _______ _______ _____ _____    ______ ____
ROOT
ATOM     10  C   UNL     1       7.688  19.324  36.915  0.00  0.00    +0.038 A 
ATOM     11  C   UNL     1       9.044  18.910  36.957  0.00  0.00    +0.047 A 
ATOM     12  C   UNL     1      10.113  19.861  37.216  0.00  0.00    +0.035 A 
ATOM     32  C   UNL     1       9.765  21.227  37.429  0.00  0.00    +0.024 A 
ATOM     33  C   UNL     1       8.392  21.665  37.388  0.00  0.00    +0.007 A 
ATOM     34  C   UNL     1       7.333  20.731  37.131  0.00  0.00    -0.029 A 
ATOM     35  C   UNL     1       5.880  21.258  37.092  0.00  0.00    +0.045 C 
ENDROOT
BRANCH  10   9
ATOM      4  C   UNL     1       4.952  16.751  33.925  0.00  0.00    +0.077 A 
ATOM      5  C   UNL     1       5.517  17.385  32.769  0.00  0.00    +0.048 A 
ATOM      6  C   UNL     1       6.503  18.373  32.987  0.00  0.00    +0.116 A 
ATOM      7  N   UNL     1       6.889  18.694  34.270  0.00  0.00    -0.223 NA
ATOM      8  C   UNL     1       6.323  18.065  35.363  0.00  0.00    +0.220 A 
ATOM      9  N   UNL     1       6.701  18.368  36.662  0.00  0.00    -0.283 N 
ATOM     36  H   UNL     1       6.255  17.886  37.443  0.00  0.00    +0.155 HD
ATOM     37  N   UNL     1       5.378  17.120  35.182  0.00  0.00    -0.214 NA
BRANCH   4   3
ATOM      1  C   UNL     1       1.551  14.890  33.408  0.00  0.00    +0.020 A 
ATOM      2  C   UNL     1       2.527  15.954  33.456  0.00  0.00    +0.013 A 
ATOM      3  C   UNL     1       3.902  15.686  33.858  0.00  0.00    +0.019 A 
ATOM     38  C   UNL     1       4.260  14.320  34.206  0.00  0.00    +0.120 A 
ATOM     39  N   UNL     1       3.299  13.315  34.152  0.00  0.00    -0.263 NA
ATOM     40  C   UNL     1       1.972  13.562  33.768  0.00  0.00    +0.111 A 
ENDBRANCH   4   3
ENDBRANCH  10   9
BRANCH  12  13
ATOM     13  N   UNL     1      11.509  19.501  37.263  0.00  0.00    -0.281 N 
ATOM     14  C   UNL     1      12.311  19.348  38.381  0.00  0.00    +0.248 C 
ATOM     30  O   UNL     1      12.003  19.709  39.507  0.00  0.00    -0.270 OA
ATOM     31  H   UNL     1      11.959  19.339  36.362  0.00  0.00    +0.155 HD
BRANCH  14  15
ATOM     15  C   UNL     1      13.657  18.717  38.223  0.00  0.00    +0.037 A 
ATOM     16  C   UNL     1      14.318  18.046  39.346  0.00  0.00    +0.013 A 
ATOM     17  C   UNL     1      15.623  17.459  39.171  0.00  0.00    +0.005 A 
ATOM     18  C   UNL     1      16.276  17.541  37.867  0.00  0.00    -0.033 A 
ATOM     28  C   UNL     1      15.595  18.208  36.769  0.00  0.00    +0.005 A 
ATOM     29  C   UNL     1      14.316  18.784  36.937  0.00  0.00    +0.013 A 
BRANCH  18  19
ATOM     19  C   UNL     1      17.677  16.962  37.595  0.00  0.00    +0.119 C 
BRANCH  19  20
ATOM     20  N   UNL     1      17.860  15.493  37.791  0.00  0.00    -0.302 NA
ATOM     21  C   UNL     1      19.334  15.115  37.959  0.00  0.00    +0.066 C 
ATOM     22  C   UNL     1      19.505  13.577  38.185  0.00  0.00    -0.064 C 
ATOM     23  N   UNL     1      18.882  12.819  37.012  0.00  0.00    +0.379 N 
ATOM     24  C   UNL     1      19.092  11.375  37.193  0.00  0.00    -0.096 C 
ATOM     25  H   UNL     1      19.422  13.126  36.086  0.00  0.00    -0.082 HD
ATOM     26  C   UNL     1      17.416  13.191  36.836  0.00  0.00    -0.064 C 
ATOM     27  C   UNL     1      17.255  14.725  36.641  0.00  0.00    +0.066 C 
ENDBRANCH  19  20
ENDBRANCH  18  19
ENDBRANCH  14  15
ENDBRANCH  12  13
TORSDOF 6
ENDMDL
