MODEL 1
REMARK VINA RESULT:      -6.9      0.000      0.000
REMARK  Name = C:\Users\Docking\Desktop\test protocol\1iep_ligandH.pdb
REMARK  8 active torsions:
REMARK  status: ('A' for Active; 'I' for Inactive)
REMARK    1  A    between atoms: _5  and  _11
REMARK    2  A    between atoms: _19  and  _21
REMARK    3  A    between atoms: _22  and  _66
REMARK    4  A    between atoms: _27  and  _30
REMARK    5  A    between atoms: _32  and  _33
REMARK    6  A    between atoms: _38  and  _43
REMARK    7  A    between atoms: _43  and  _46
REMARK    8  A    between atoms: _53  and  _55
REMARK                            x       y       z     vdW  Elec       q    Type
REMARK                         _______ _______ _______ _____ _____    ______ ____
ROOT
ATOM     10  C   UNL     1       3.021   7.446  95.678  0.00  0.00    +0.038 A 
ATOM     11  C   UNL     1       4.323   7.627  95.145  0.00  0.00    +0.047 A 
ATOM     12  C   UNL     1       4.897   6.665  94.218  0.00  0.00    +0.035 A 
ATOM     32  C   UNL     1       4.116   5.530  93.852  0.00  0.00    +0.024 A 
ATOM     33  C   UNL     1       2.792   5.329  94.385  0.00  0.00    +0.007 A 
ATOM     34  C   UNL     1       2.221   6.274  95.302  0.00  0.00    -0.029 A 
ATOM     35  C   UNL     1       0.799   6.004  95.846  0.00  0.00    +0.045 C 
ENDROOT
BRANCH  10   9
ATOM      4  C   UNL     1       0.579  11.467  96.629  0.00  0.00    +0.077 A 
ATOM      5  C   UNL     1       0.303  11.698  95.240  0.00  0.00    +0.048 A 
ATOM      6  C   UNL     1       0.814  10.763  94.313  0.00  0.00    +0.116 A 
ATOM      7  N   UNL     1       1.544   9.680  94.752  0.00  0.00    -0.223 NA
ATOM      8  C   UNL     1       1.793   9.487  96.099  0.00  0.00    +0.220 A 
ATOM      9  N   UNL     1       2.518   8.401  96.564  0.00  0.00    -0.283 N 
ATOM     36  H   UNL     1       2.687   8.298  97.564  0.00  0.00    +0.155 HD
ATOM     37  N   UNL     1       1.318  10.367  97.004  0.00  0.00    -0.214 NA
BRANCH   4   3
ATOM      1  C   UNL     1      -0.172  14.629  98.806  0.00  0.00    +0.020 A 
ATOM      2  C   UNL     1       0.307  13.807  97.718  0.00  0.00    +0.013 A 
ATOM      3  C   UNL     1       0.105  12.364  97.730  0.00  0.00    +0.019 A 
ATOM     38  C   UNL     1      -0.591  11.779  98.866  0.00  0.00    +0.120 A 
ATOM     39  N   UNL     1      -1.039  12.595  99.900  0.00  0.00    -0.263 NA
ATOM     40  C   UNL     1      -0.849  13.985  99.900  0.00  0.00    +0.111 A 
ENDBRANCH   4   3
ENDBRANCH  10   9
BRANCH  12  13
ATOM     13  N   UNL     1       6.217   6.792  93.651  0.00  0.00    -0.281 N 
ATOM     14  C   UNL     1       7.391   6.199  94.085  0.00  0.00    +0.248 C 
ATOM     30  O   UNL     1       7.524   5.635  95.161  0.00  0.00    -0.270 OA
ATOM     31  H   UNL     1       6.295   7.392  92.830  0.00  0.00    +0.155 HD
BRANCH  14  15
ATOM     15  C   UNL     1       8.596   6.253  93.203  0.00  0.00    +0.037 A 
ATOM     16  C   UNL     1       9.946   6.351  93.764  0.00  0.00    +0.013 A 
ATOM     17  C   UNL     1      11.090   6.418  92.890  0.00  0.00    +0.005 A 
ATOM     18  C   UNL     1      10.889   6.387  91.444  0.00  0.00    -0.033 A 
ATOM     28  C   UNL     1       9.540   6.284  90.913  0.00  0.00    +0.005 A 
ATOM     29  C   UNL     1       8.416   6.219  91.767  0.00  0.00    +0.013 A 
BRANCH  18  19
ATOM     19  C   UNL     1      12.050   6.475  90.436  0.00  0.00    +0.119 C 
BRANCH  19  20
ATOM     20  N   UNL     1      12.870   7.723  90.446  0.00  0.00    -0.302 NA
ATOM     21  C   UNL     1      12.017   8.973  90.211  0.00  0.00    +0.066 C 
ATOM     22  C   UNL     1      12.888  10.271  90.246  0.00  0.00    -0.064 C 
ATOM     23  N   UNL     1      13.997  10.167  89.198  0.00  0.00    +0.379 N 
ATOM     24  C   UNL     1      14.782  11.410  89.189  0.00  0.00    -0.096 C 
ATOM     25  H   UNL     1      13.510  10.067  88.200  0.00  0.00    -0.082 HD
ATOM     26  C   UNL     1      14.848   8.926  89.422  0.00  0.00    -0.064 C 
ATOM     27  C   UNL     1      13.969   7.644  89.414  0.00  0.00    +0.066 C 
ENDBRANCH  19  20
ENDBRANCH  18  19
ENDBRANCH  14  15
ENDBRANCH  12  13
TORSDOF 6
ENDMDL
MODEL 2
REMARK VINA RESULT:      -6.8      5.687      7.986
REMARK  Name = C:\Users\Docking\Desktop\test protocol\1iep_ligandH.pdb
REMARK  8 active torsions:
REMARK  status: ('A' for Active; 'I' for Inactive)
REMARK    1  A    between atoms: _5  and  _11
REMARK    2  A    between atoms: _19  and  _21
REMARK    3  A    between atoms: _22  and  _66
REMARK    4  A    between atoms: _27  and  _30
REMARK    5  A    between atoms: _32  and  _33
REMARK    6  A    between atoms: _38  and  _43
REMARK    7  A    between atoms: _43  and  _46
REMARK    8  A    between atoms: _53  and  _55
REMARK                            x       y       z     vdW  Elec       q    Type
REMARK                         _______ _______ _______ _____ _____    ______ ____
ROOT
ATOM     10  C   UNL     1       6.328  16.495  98.103  0.00  0.00    +0.038 A 
ATOM     11  C   UNL     1       6.959  16.019  96.925  0.00  0.00    +0.047 A 
ATOM     12  C   UNL     1       8.364  16.288  96.663  0.00  0.00    +0.035 A 
ATOM     32  C   UNL     1       9.098  17.044  97.623  0.00  0.00    +0.024 A 
ATOM     33  C   UNL     1       8.473  17.537  98.825  0.00  0.00    +0.007 A 
ATOM     34  C   UNL     1       7.086  17.276  99.088  0.00  0.00    -0.029 A 
ATOM     35  C   UNL     1       6.466  17.834 100.390  0.00  0.00    +0.045 C 
ENDROOT
BRANCH  10   9
ATOM      4  C   UNL     1       2.782  13.551  99.444  0.00  0.00    +0.077 A 
ATOM      5  C   UNL     1       3.698  12.489  99.744  0.00  0.00    +0.048 A 
ATOM      6  C   UNL     1       5.073  12.738  99.532  0.00  0.00    +0.116 A 
ATOM      7  N   UNL     1       5.489  13.962  99.056  0.00  0.00    -0.223 NA
ATOM      8  C   UNL     1       4.580  14.965  98.776  0.00  0.00    +0.220 A 
ATOM      9  N   UNL     1       4.977  16.207  98.304  0.00  0.00    -0.283 N 
ATOM     36  H   UNL     1       4.274  16.918  98.102  0.00  0.00    +0.155 HD
ATOM     37  N   UNL     1       3.261  14.752  98.968  0.00  0.00    -0.214 NA
BRANCH   4   3
ATOM      1  C   UNL     1      -1.065  14.212  99.190  0.00  0.00    +0.020 A 
ATOM      2  C   UNL     1       0.358  14.361  98.990  0.00  0.00    +0.013 A 
ATOM      3  C   UNL     1       1.299  13.443  99.618  0.00  0.00    +0.019 A 
ATOM     38  C   UNL     1       0.764  12.375 100.450  0.00  0.00    +0.120 A 
ATOM     39  N   UNL     1      -0.611  12.257 100.626  0.00  0.00    -0.263 NA
ATOM     40  C   UNL     1      -1.527  13.136 100.027  0.00  0.00    +0.111 A 
ENDBRANCH   4   3
ENDBRANCH  10   9
BRANCH  12  13
ATOM     13  N   UNL     1       9.057  15.838  95.481  0.00  0.00    -0.281 N 
ATOM     14  C   UNL     1       9.188  16.495  94.268  0.00  0.00    +0.248 C 
ATOM     30  O   UNL     1       8.545  17.483  93.944  0.00  0.00    -0.270 OA
ATOM     31  H   UNL     1       9.504  14.924  95.546  0.00  0.00    +0.155 HD
BRANCH  14  15
ATOM     15  C   UNL     1      10.164  15.971  93.265  0.00  0.00    +0.037 A 
ATOM     16  C   UNL     1       9.927  16.115  91.827  0.00  0.00    +0.013 A 
ATOM     17  C   UNL     1      10.876  15.585  90.880  0.00  0.00    +0.005 A 
ATOM     18  C   UNL     1      12.074  14.907  91.371  0.00  0.00    -0.033 A 
ATOM     28  C   UNL     1      12.287  14.783  92.803  0.00  0.00    +0.005 A 
ATOM     29  C   UNL     1      11.358  15.300  93.733  0.00  0.00    +0.013 A 
BRANCH  18  19
ATOM     19  C   UNL     1      13.130  14.293  90.433  0.00  0.00    +0.119 C 
BRANCH  19  20
ATOM     20  N   UNL     1      13.411  12.834  90.583  0.00  0.00    -0.302 NA
ATOM     21  C   UNL     1      14.336  12.311  89.480  0.00  0.00    +0.066 C 
ATOM     22  C   UNL     1      14.638  10.788  89.664  0.00  0.00    -0.064 C 
ATOM     23  N   UNL     1      13.322  10.008  89.683  0.00  0.00    +0.379 N 
ATOM     24  C   UNL     1      13.605   8.570  89.799  0.00  0.00    -0.096 C 
ATOM     25  H   UNL     1      12.816  10.176  88.704  0.00  0.00    -0.082 HD
ATOM     26  C   UNL     1      12.395  10.524  90.775  0.00  0.00    -0.064 C 
ATOM     27  C   UNL     1      12.125  12.044  90.599  0.00  0.00    +0.066 C 
ENDBRANCH  19  20
ENDBRANCH  18  19
ENDBRANCH  14  15
ENDBRANCH  12  13
TORSDOF 6
ENDMDL
MODEL 3
REMARK VINA RESULT:      -6.8      1.388      1.992
REMARK  Name = C:\Users\Docking\Desktop\test protocol\1iep_ligandH.pdb
REMARK  8 active torsions:
REMARK  status: ('A' for Active; 'I' for Inactive)
REMARK    1  A    between atoms: _5  and  _11
REMARK    2  A    between atoms: _19  and  _21
REMARK    3  A    between atoms: _22  and  _66
REMARK    4  A    between atoms: _27  and  _30
REMARK    5  A    between atoms: _32  and  _33
REMARK    6  A    between atoms: _38  and  _43
REMARK    7  A    between atoms: _43  and  _46
REMARK    8  A    between atoms: _53  and  _55
REMARK                            x       y       z     vdW  Elec       q    Type
REMARK                         _______ _______ _______ _____ _____    ______ ____
ROOT
ATOM     10  C   UNL     1       3.505   7.372  95.519  0.00  0.00    +0.038 A 
ATOM     11  C   UNL     1       4.845   7.647  95.145  0.00  0.00    +0.047 A 
ATOM     12  C   UNL     1       5.560   6.785  94.216  0.00  0.00    +0.035 A 
ATOM     32  C   UNL     1       4.877   5.652  93.685  0.00  0.00    +0.024 A 
ATOM     33  C   UNL     1       3.515   5.357  94.055  0.00  0.00    +0.007 A 
ATOM     34  C   UNL     1       2.807   6.202  94.973  0.00  0.00    -0.029 A 
ATOM     35  C   UNL     1       1.350   5.834  95.339  0.00  0.00    +0.045 C 
ENDROOT
BRANCH  10   9
ATOM      4  C   UNL     1       0.681  11.128  96.496  0.00  0.00    +0.077 A 
ATOM      5  C   UNL     1       0.480  11.414  95.104  0.00  0.00    +0.048 A 
ATOM      6  C   UNL     1       1.127  10.575  94.170  0.00  0.00    +0.116 A 
ATOM      7  N   UNL     1       1.914   9.531  94.605  0.00  0.00    -0.223 NA
ATOM      8  C   UNL     1       2.088   9.283  95.954  0.00  0.00    +0.220 A 
ATOM      9  N   UNL     1       2.868   8.234  96.414  0.00  0.00    -0.283 N 
ATOM     36  H   UNL     1       2.977   8.089  97.418  0.00  0.00    +0.155 HD
ATOM     37  N   UNL     1       1.481  10.071  96.867  0.00  0.00    -0.214 NA
BRANCH   4   3
ATOM      1  C   UNL     1      -0.581  14.097  98.707  0.00  0.00    +0.020 A 
ATOM      2  C   UNL     1       0.029  13.379  97.613  0.00  0.00    +0.013 A 
ATOM      3  C   UNL     1       0.061  11.922  97.604  0.00  0.00    +0.019 A 
ATOM     38  C   UNL     1      -0.539  11.216  98.726  0.00  0.00    +0.120 A 
ATOM     39  N   UNL     1      -1.119  11.935  99.767  0.00  0.00    -0.263 NA
ATOM     40  C   UNL     1      -1.154  13.337  99.787  0.00  0.00    +0.111 A 
ENDBRANCH   4   3
ENDBRANCH  10   9
BRANCH  12  13
ATOM     13  N   UNL     1       6.924   7.009  93.806  0.00  0.00    -0.281 N 
ATOM     14  C   UNL     1       7.532   6.622  92.623  0.00  0.00    +0.248 C 
ATOM     30  O   UNL     1       7.050   5.833  91.824  0.00  0.00    -0.270 OA
ATOM     31  H   UNL     1       7.512   7.515  94.468  0.00  0.00    +0.155 HD
BRANCH  14  15
ATOM     15  C   UNL     1       8.876   7.182  92.285  0.00  0.00    +0.037 A 
ATOM     16  C   UNL     1       9.493   6.942  90.978  0.00  0.00    +0.013 A 
ATOM     17  C   UNL     1      10.798   7.479  90.685  0.00  0.00    +0.005 A 
ATOM     18  C   UNL     1      11.495   8.263  91.701  0.00  0.00    -0.033 A 
ATOM     28  C   UNL     1      10.857   8.491  92.987  0.00  0.00    +0.005 A 
ATOM     29  C   UNL     1       9.579   7.965  93.279  0.00  0.00    +0.013 A 
BRANCH  18  19
ATOM     19  C   UNL     1      12.899   8.857  91.482  0.00  0.00    +0.119 C 
BRANCH  19  20
ATOM     20  N   UNL     1      12.981  10.193  90.820  0.00  0.00    -0.302 NA
ATOM     21  C   UNL     1      14.375  10.466  90.248  0.00  0.00    +0.066 C 
ATOM     22  C   UNL     1      14.437  11.858  89.539  0.00  0.00    -0.064 C 
ATOM     23  N   UNL     1      14.035  12.951  90.531  0.00  0.00    +0.379 N 
ATOM     24  C   UNL     1      14.148  14.266  89.884  0.00  0.00    -0.096 C 
ATOM     25  H   UNL     1      14.763  12.925  91.375  0.00  0.00    -0.082 HD
ATOM     26  C   UNL     1      12.651  12.686  91.107  0.00  0.00    -0.064 C 
ATOM     27  C   UNL     1      12.592  11.287  91.783  0.00  0.00    +0.066 C 
ENDBRANCH  19  20
ENDBRANCH  18  19
ENDBRANCH  14  15
ENDBRANCH  12  13
TORSDOF 6
ENDMDL
