MODEL 1
REMARK VINA RESULT:      -7.5      0.000      0.000
REMARK  Name = C:\Users\Docking\Desktop\test protocol\1iep_ligandH.pdb
REMARK  8 active torsions:
REMARK  status: ('A' for Active; 'I' for Inactive)
REMARK    1  A    between atoms: _5  and  _11
REMARK    2  A    between atoms: _19  and  _21
REMARK    3  A    between atoms: _22  and  _66
REMARK    4  A    between atoms: _27  and  _30
REMARK    5  A    between atoms: _32  and  _33
REMARK    6  A    between atoms: _38  and  _43
REMARK    7  A    between atoms: _43  and  _46
REMARK    8  A    between atoms: _53  and  _55
REMARK                            x       y       z     vdW  Elec       q    Type
REMARK                         _______ _______ _______ _____ _____    ______ ____
ROOT
ATOM     10  C   UNL     1       8.528  -2.663  26.488  0.00  0.00    +0.038 A 
ATOM     11  C   UNL     1       7.884  -3.000  25.271  0.00  0.00    +0.047 A 
ATOM     12  C   UNL     1       7.965  -2.127  24.110  0.00  0.00    +0.035 A 
ATOM     32  C   UNL     1       8.713  -0.920  24.223  0.00  0.00    +0.024 A 
ATOM     33  C   UNL     1       9.373  -0.560  25.454  0.00  0.00    +0.007 A 
ATOM     34  C   UNL     1       9.295  -1.416  26.603  0.00  0.00    -0.029 A 
ATOM     35  C   UNL     1      10.017  -0.978  27.898  0.00  0.00    +0.045 C 
ENDROOT
BRANCH  10   9
ATOM      4  C   UNL     1      10.079  -6.373  29.109  0.00  0.00    +0.077 A 
ATOM      5  C   UNL     1      11.189  -6.605  28.230  0.00  0.00    +0.048 A 
ATOM      6  C   UNL     1      11.321  -5.752  27.112  0.00  0.00    +0.116 A 
ATOM      7  N   UNL     1      10.406  -4.745  26.897  0.00  0.00    -0.223 NA
ATOM      8  C   UNL     1       9.346  -4.549  27.763  0.00  0.00    +0.220 A 
ATOM      9  N   UNL     1       8.417  -3.537  27.572  0.00  0.00    -0.283 N 
ATOM     36  H   UNL     1       7.645  -3.430  28.229  0.00  0.00    +0.155 HD
ATOM     37  N   UNL     1       9.197  -5.351  28.838  0.00  0.00    -0.214 NA
BRANCH   4   3
ATOM      1  C   UNL     1       9.997  -9.297  31.706  0.00  0.00    +0.020 A 
ATOM      2  C   UNL     1      10.288  -8.553  30.502  0.00  0.00    +0.013 A 
ATOM      3  C   UNL     1       9.807  -7.188  30.335  0.00  0.00    +0.019 A 
ATOM     38  C   UNL     1       9.029  -6.598  31.414  0.00  0.00    +0.120 A 
ATOM     39  N   UNL     1       8.763  -7.339  32.562  0.00  0.00    -0.263 NA
ATOM     40  C   UNL     1       9.219  -8.655  32.733  0.00  0.00    +0.111 A 
ENDBRANCH   4   3
ENDBRANCH  10   9
BRANCH  12  13
ATOM     13  N   UNL     1       7.325  -2.414  22.850  0.00  0.00    -0.281 N 
ATOM     14  C   UNL     1       5.985  -2.280  22.525  0.00  0.00    +0.248 C 
ATOM     30  O   UNL     1       5.092  -2.094  23.338  0.00  0.00    -0.270 OA
ATOM     31  H   UNL     1       7.934  -2.757  22.107  0.00  0.00    +0.155 HD
BRANCH  14  15
ATOM     15  C   UNL     1       5.576  -2.380  21.091  0.00  0.00    +0.037 A 
ATOM     16  C   UNL     1       5.197  -1.191  20.324  0.00  0.00    +0.013 A 
ATOM     17  C   UNL     1       4.790  -1.318  18.947  0.00  0.00    +0.005 A 
ATOM     18  C   UNL     1       4.762  -2.641  18.327  0.00  0.00    -0.033 A 
ATOM     28  C   UNL     1       5.149  -3.803  19.110  0.00  0.00    +0.005 A 
ATOM     29  C   UNL     1       5.547  -3.683  20.460  0.00  0.00    +0.013 A 
BRANCH  18  19
ATOM     19  C   UNL     1       4.321  -2.873  16.870  0.00  0.00    +0.119 C 
BRANCH  19  20
ATOM     20  N   UNL     1       4.145  -1.666  16.009  0.00  0.00    -0.302 NA
ATOM     21  C   UNL     1       2.806  -1.681  15.265  0.00  0.00    +0.066 C 
ATOM     22  C   UNL     1       2.629  -0.400  14.387  0.00  0.00    -0.064 C 
ATOM     23  N   UNL     1       3.794  -0.296  13.401  0.00  0.00    +0.379 N 
ATOM     24  C   UNL     1       3.600   0.876  12.534  0.00  0.00    -0.096 C 
ATOM     25  H   UNL     1       3.771  -1.203  12.754  0.00  0.00    -0.082 HD
ATOM     26  C   UNL     1       5.129  -0.283  14.132  0.00  0.00    -0.064 C 
ATOM     27  C   UNL     1       5.283  -1.545  15.025  0.00  0.00    +0.066 C 
ENDBRANCH  19  20
ENDBRANCH  18  19
ENDBRANCH  14  15
ENDBRANCH  12  13
TORSDOF 6
ENDMDL
MODEL 2
REMARK VINA RESULT:      -6.9      6.201      8.343
REMARK  Name = C:\Users\Docking\Desktop\test protocol\1iep_ligandH.pdb
REMARK  8 active torsions:
REMARK  status: ('A' for Active; 'I' for Inactive)
REMARK    1  A    between atoms: _5  and  _11
REMARK    2  A    between atoms: _19  and  _21
REMARK    3  A    between atoms: _22  and  _66
REMARK    4  A    between atoms: _27  and  _30
REMARK    5  A    between atoms: _32  and  _33
REMARK    6  A    between atoms: _38  and  _43
REMARK    7  A    between atoms: _43  and  _46
REMARK    8  A    between atoms: _53  and  _55
REMARK                            x       y       z     vdW  Elec       q    Type
REMARK                         _______ _______ _______ _____ _____    ______ ____
ROOT
ATOM     10  C   UNL     1       9.074  -7.493  30.495  0.00  0.00    +0.038 A 
ATOM     11  C   UNL     1       9.571  -6.494  29.620  0.00  0.00    +0.047 A 
ATOM     12  C   UNL     1       8.796  -5.299  29.324  0.00  0.00    +0.035 A 
ATOM     32  C   UNL     1       7.518  -5.154  29.939  0.00  0.00    +0.024 A 
ATOM     33  C   UNL     1       6.997  -6.160  30.830  0.00  0.00    +0.007 A 
ATOM     34  C   UNL     1       7.756  -7.342  31.124  0.00  0.00    -0.029 A 
ATOM     35  C   UNL     1       7.145  -8.391  32.081  0.00  0.00    +0.045 C 
ENDROOT
BRANCH  10   9
ATOM      4  C   UNL     1      12.331  -9.895  33.076  0.00  0.00    +0.077 A 
ATOM      5  C   UNL     1      12.499  -8.802  33.990  0.00  0.00    +0.048 A 
ATOM      6  C   UNL     1      11.734  -7.637  33.757  0.00  0.00    +0.116 A 
ATOM      7  N   UNL     1      10.868  -7.581  32.686  0.00  0.00    -0.223 NA
ATOM      8  C   UNL     1      10.731  -8.652  31.823  0.00  0.00    +0.220 A 
ATOM      9  N   UNL     1       9.861  -8.620  30.744  0.00  0.00    -0.283 N 
ATOM     36  H   UNL     1       9.794  -9.428  30.126  0.00  0.00    +0.155 HD
ATOM     37  N   UNL     1      11.452  -9.775  32.023  0.00  0.00    -0.214 NA
BRANCH   4   3
ATOM      1  C   UNL     1      15.143 -12.556  33.634  0.00  0.00    +0.020 A 
ATOM      2  C   UNL     1      14.480 -11.276  33.535  0.00  0.00    +0.013 A 
ATOM      3  C   UNL     1      13.066 -11.194  33.191  0.00  0.00    +0.019 A 
ATOM     38  C   UNL     1      12.346 -12.435  32.953  0.00  0.00    +0.120 A 
ATOM     39  N   UNL     1      13.011 -13.653  33.054  0.00  0.00    -0.263 NA
ATOM     40  C   UNL     1      14.372 -13.744  33.382  0.00  0.00    +0.111 A 
ENDBRANCH   4   3
ENDBRANCH  10   9
BRANCH  12  13
ATOM     13  N   UNL     1       9.245  -4.255  28.437  0.00  0.00    -0.281 N 
ATOM     14  C   UNL     1       8.507  -3.567  27.488  0.00  0.00    +0.248 C 
ATOM     30  O   UNL     1       7.394  -3.896  27.107  0.00  0.00    -0.270 OA
ATOM     31  H   UNL     1      10.227  -3.990  28.520  0.00  0.00    +0.155 HD
BRANCH  14  15
ATOM     15  C   UNL     1       9.097  -2.346  26.860  0.00  0.00    +0.037 A 
ATOM     16  C   UNL     1       9.631  -1.254  27.678  0.00  0.00    +0.013 A 
ATOM     17  C   UNL     1      10.179  -0.079  27.047  0.00  0.00    +0.005 A 
ATOM     18  C   UNL     1      10.197   0.008  25.589  0.00  0.00    -0.033 A 
ATOM     28  C   UNL     1       9.666  -1.092  24.802  0.00  0.00    +0.005 A 
ATOM     29  C   UNL     1       9.127  -2.245  25.417  0.00  0.00    +0.013 A 
BRANCH  18  19
ATOM     19  C   UNL     1      10.744   1.233  24.831  0.00  0.00    +0.119 C 
BRANCH  19  20
ATOM     20  N   UNL     1       9.776   2.322  24.504  0.00  0.00    -0.302 NA
ATOM     21  C   UNL     1      10.108   3.006  23.175  0.00  0.00    +0.066 C 
ATOM     22  C   UNL     1       9.072   4.128  22.838  0.00  0.00    -0.064 C 
ATOM     23  N   UNL     1       9.040   5.147  23.978  0.00  0.00    +0.379 N 
ATOM     24  C   UNL     1       8.110   6.234  23.639  0.00  0.00    -0.096 C 
ATOM     25  H   UNL     1      10.060   5.589  24.066  0.00  0.00    -0.082 HD
ATOM     26  C   UNL     1       8.714   4.475  25.305  0.00  0.00    -0.064 C 
ATOM     27  C   UNL     1       9.731   3.342  25.615  0.00  0.00    +0.066 C 
ENDBRANCH  19  20
ENDBRANCH  18  19
ENDBRANCH  14  15
ENDBRANCH  12  13
TORSDOF 6
ENDMDL
MODEL 3
REMARK VINA RESULT:      -6.9      6.101     13.285
REMARK  Name = C:\Users\Docking\Desktop\test protocol\1iep_ligandH.pdb
REMARK  8 active torsions:
REMARK  status: ('A' for Active; 'I' for Inactive)
REMARK    1  A    between atoms: _5  and  _11
REMARK    2  A    between atoms: _19  and  _21
REMARK    3  A    between atoms: _22  and  _66
REMARK    4  A    between atoms: _27  and  _30
REMARK    5  A    between atoms: _32  and  _33
REMARK    6  A    between atoms: _38  and  _43
REMARK    7  A    between atoms: _43  and  _46
REMARK    8  A    between atoms: _53  and  _55
REMARK                            x       y       z     vdW  Elec       q    Type
REMARK                         _______ _______ _______ _____ _____    ______ ____
ROOT
ATOM     10  C   UNL     1       9.606   2.176  25.314  0.00  0.00    +0.038 A 
ATOM     11  C   UNL     1       9.489   1.036  26.149  0.00  0.00    +0.047 A 
ATOM     12  C   UNL     1      10.068  -0.242  25.764  0.00  0.00    +0.035 A 
ATOM     32  C   UNL     1      10.762  -0.321  24.521  0.00  0.00    +0.024 A 
ATOM     33  C   UNL     1      10.889   0.828  23.660  0.00  0.00    +0.007 A 
ATOM     34  C   UNL     1      10.318   2.090  24.034  0.00  0.00    -0.029 A 
ATOM     35  C   UNL     1      10.480   3.287  23.068  0.00  0.00    +0.045 C 
ENDROOT
BRANCH  10   9
ATOM      4  C   UNL     1       5.958   5.291  25.482  0.00  0.00    +0.077 A 
ATOM      5  C   UNL     1       5.139   4.468  24.640  0.00  0.00    +0.048 A 
ATOM      6  C   UNL     1       5.696   3.254  24.179  0.00  0.00    +0.116 A 
ATOM      7  N   UNL     1       6.978   2.900  24.540  0.00  0.00    -0.223 NA
ATOM      8  C   UNL     1       7.742   3.718  25.352  0.00  0.00    +0.220 A 
ATOM      9  N   UNL     1       9.030   3.378  25.734  0.00  0.00    -0.283 N 
ATOM     36  H   UNL     1       9.564   4.012  26.329  0.00  0.00    +0.155 HD
ATOM     37  N   UNL     1       7.233   4.883  25.805  0.00  0.00    -0.214 NA
BRANCH   4   3
ATOM      1  C   UNL     1       3.793   8.097  27.139  0.00  0.00    +0.020 A 
ATOM      2  C   UNL     1       4.176   6.812  26.601  0.00  0.00    +0.013 A 
ATOM      3  C   UNL     1       5.510   6.602  26.052  0.00  0.00    +0.019 A 
ATOM     38  C   UNL     1       6.439   7.721  26.063  0.00  0.00    +0.120 A 
ATOM     39  N   UNL     1       6.042   8.947  26.586  0.00  0.00    -0.263 NA
ATOM     40  C   UNL     1       4.761   9.162  27.116  0.00  0.00    +0.111 A 
ENDBRANCH   4   3
ENDBRANCH  10   9
BRANCH  12  13
ATOM     13  N   UNL     1       9.974  -1.436  26.566  0.00  0.00    -0.281 N 
ATOM     14  C   UNL     1       9.351  -2.631  26.246  0.00  0.00    +0.248 C 
ATOM     30  O   UNL     1       8.590  -2.782  25.301  0.00  0.00    -0.270 OA
ATOM     31  H   UNL     1      10.422  -1.395  27.482  0.00  0.00    +0.155 HD
BRANCH  14  15
ATOM     15  C   UNL     1       9.595  -3.827  27.108  0.00  0.00    +0.037 A 
ATOM     16  C   UNL     1      10.785  -4.662  26.929  0.00  0.00    +0.013 A 
ATOM     17  C   UNL     1      10.989  -5.820  27.763  0.00  0.00    +0.005 A 
ATOM     18  C   UNL     1       9.999  -6.148  28.786  0.00  0.00    -0.033 A 
ATOM     28  C   UNL     1       8.830  -5.299  28.946  0.00  0.00    +0.005 A 
ATOM     29  C   UNL     1       8.627  -4.164  28.130  0.00  0.00    +0.013 A 
BRANCH  18  19
ATOM     19  C   UNL     1      10.123  -7.377  29.707  0.00  0.00    +0.119 C 
BRANCH  19  20
ATOM     20  N   UNL     1       9.265  -7.406  30.928  0.00  0.00    -0.302 NA
ATOM     21  C   UNL     1      10.018  -6.925  32.172  0.00  0.00    +0.066 C 
ATOM     22  C   UNL     1       9.099  -6.940  33.436  0.00  0.00    -0.064 C 
ATOM     23  N   UNL     1       8.550  -8.353  33.647  0.00  0.00    +0.379 N 
ATOM     24  C   UNL     1       7.732  -8.384  34.868  0.00  0.00    -0.096 C 
ATOM     25  H   UNL     1       9.419  -9.033  33.805  0.00  0.00    -0.082 HD
ATOM     26  C   UNL     1       7.801  -8.839  32.414  0.00  0.00    -0.064 C 
ATOM     27  C   UNL     1       8.716  -8.792  31.158  0.00  0.00    +0.066 C 
ENDBRANCH  19  20
ENDBRANCH  18  19
ENDBRANCH  14  15
ENDBRANCH  12  13
TORSDOF 6
ENDMDL
