MODEL 1
REMARK VINA RESULT:     -12.3      0.000      0.000
REMARK  Name = C:\Users\Docking\Desktop\test protocol\1iep_ligandH.pdb
REMARK  8 active torsions:
REMARK  status: ('A' for Active; 'I' for Inactive)
REMARK    1  A    between atoms: _5  and  _11
REMARK    2  A    between atoms: _19  and  _21
REMARK    3  A    between atoms: _22  and  _66
REMARK    4  A    between atoms: _27  and  _30
REMARK    5  A    between atoms: _32  and  _33
REMARK    6  A    between atoms: _38  and  _43
REMARK    7  A    between atoms: _43  and  _46
REMARK    8  A    between atoms: _53  and  _55
REMARK                            x       y       z     vdW  Elec       q    Type
REMARK                         _______ _______ _______ _____ _____    ______ ____
ROOT
ATOM     10  C   UNL     1      21.925  22.777   4.907  0.00  0.00    +0.038 A 
ATOM     11  C   UNL     1      21.857  22.623   6.315  0.00  0.00    +0.047 A 
ATOM     12  C   UNL     1      20.604  22.802   7.032  0.00  0.00    +0.035 A 
ATOM     32  C   UNL     1      19.438  23.134   6.282  0.00  0.00    +0.024 A 
ATOM     33  C   UNL     1      19.489  23.295   4.850  0.00  0.00    +0.007 A 
ATOM     34  C   UNL     1      20.723  23.123   4.138  0.00  0.00    -0.029 A 
ATOM     35  C   UNL     1      20.721  23.314   2.604  0.00  0.00    +0.045 C 
ENDROOT
BRANCH  10   9
ATOM      4  C   UNL     1      25.432  24.240   1.975  0.00  0.00    +0.077 A 
ATOM      5  C   UNL     1      24.744  25.460   1.664  0.00  0.00    +0.048 A 
ATOM      6  C   UNL     1      23.487  25.670   2.275  0.00  0.00    +0.116 A 
ATOM      7  N   UNL     1      22.967  24.723   3.130  0.00  0.00    -0.223 NA
ATOM      8  C   UNL     1      23.655  23.556   3.407  0.00  0.00    +0.220 A 
ATOM      9  N   UNL     1      23.154  22.594   4.270  0.00  0.00    -0.283 N 
ATOM     36  H   UNL     1      23.690  21.744   4.442  0.00  0.00    +0.155 HD
ATOM     37  N   UNL     1      24.857  23.332   2.835  0.00  0.00    -0.214 NA
BRANCH   4   3
ATOM      1  C   UNL     1      29.229  23.362   1.643  0.00  0.00    +0.020 A 
ATOM      2  C   UNL     1      27.960  23.716   2.237  0.00  0.00    +0.013 A 
ATOM      3  C   UNL     1      26.770  23.876   1.411  0.00  0.00    +0.019 A 
ATOM     38  C   UNL     1      26.899  23.670  -0.024  0.00  0.00    +0.120 A 
ATOM     39  N   UNL     1      28.134  23.332  -0.568  0.00  0.00    -0.263 NA
ATOM     40  C   UNL     1      29.286  23.176   0.217  0.00  0.00    +0.111 A 
ENDBRANCH   4   3
ENDBRANCH  10   9
BRANCH  12  13
ATOM     13  N   UNL     1      20.475  22.667   8.462  0.00  0.00    -0.281 N 
ATOM     14  C   UNL     1      20.350  21.500   9.199  0.00  0.00    +0.248 C 
ATOM     30  O   UNL     1      20.113  20.402   8.719  0.00  0.00    -0.270 OA
ATOM     31  H   UNL     1      20.477  23.536   8.995  0.00  0.00    +0.155 HD
BRANCH  14  15
ATOM     15  C   UNL     1      20.494  21.567  10.685  0.00  0.00    +0.037 A 
ATOM     16  C   UNL     1      21.726  22.056  11.308  0.00  0.00    +0.013 A 
ATOM     17  C   UNL     1      21.845  22.093  12.745  0.00  0.00    +0.005 A 
ATOM     18  C   UNL     1      20.726  21.642  13.568  0.00  0.00    -0.033 A 
ATOM     28  C   UNL     1      19.513  21.166  12.923  0.00  0.00    +0.005 A 
ATOM     29  C   UNL     1      19.393  21.127  11.516  0.00  0.00    +0.013 A 
BRANCH  18  19
ATOM     19  C   UNL     1      20.772  21.627  15.107  0.00  0.00    +0.119 C 
BRANCH  19  20
ATOM     20  N   UNL     1      19.723  20.835  15.815  0.00  0.00    -0.302 NA
ATOM     21  C   UNL     1      18.311  21.329  15.488  0.00  0.00    +0.066 C 
ATOM     22  C   UNL     1      17.225  20.476  16.219  0.00  0.00    -0.064 C 
ATOM     23  N   UNL     1      17.477  20.518  17.727  0.00  0.00    +0.379 N 
ATOM     24  C   UNL     1      16.423  19.764  18.422  0.00  0.00    -0.096 C 
ATOM     25  H   UNL     1      17.402  21.582  18.052  0.00  0.00    -0.082 HD
ATOM     26  C   UNL     1      18.879  20.031  18.062  0.00  0.00    -0.064 C 
ATOM     27  C   UNL     1      19.950  20.867  17.307  0.00  0.00    +0.066 C 
ENDBRANCH  19  20
ENDBRANCH  18  19
ENDBRANCH  14  15
ENDBRANCH  12  13
TORSDOF 6
ENDMDL
MODEL 2
REMARK VINA RESULT:     -11.7      2.232     12.910
REMARK  Name = C:\Users\Docking\Desktop\test protocol\1iep_ligandH.pdb
REMARK  8 active torsions:
REMARK  status: ('A' for Active; 'I' for Inactive)
REMARK    1  A    between atoms: _5  and  _11
REMARK    2  A    between atoms: _19  and  _21
REMARK    3  A    between atoms: _22  and  _66
REMARK    4  A    between atoms: _27  and  _30
REMARK    5  A    between atoms: _32  and  _33
REMARK    6  A    between atoms: _38  and  _43
REMARK    7  A    between atoms: _43  and  _46
REMARK    8  A    between atoms: _53  and  _55
REMARK                            x       y       z     vdW  Elec       q    Type
REMARK                         _______ _______ _______ _____ _____    ______ ____
ROOT
ATOM     10  C   UNL     1      18.659  19.526   9.634  0.00  0.00    +0.038 A 
ATOM     11  C   UNL     1      19.548  20.271   8.818  0.00  0.00    +0.047 A 
ATOM     12  C   UNL     1      19.566  20.100   7.374  0.00  0.00    +0.035 A 
ATOM     32  C   UNL     1      18.662  19.163   6.793  0.00  0.00    +0.024 A 
ATOM     33  C   UNL     1      17.753  18.397   7.607  0.00  0.00    +0.007 A 
ATOM     34  C   UNL     1      17.732  18.559   9.033  0.00  0.00    -0.029 A 
ATOM     35  C   UNL     1      16.740  17.706   9.857  0.00  0.00    +0.045 C 
ENDROOT
BRANCH  10   9
ATOM      4  C   UNL     1      20.603  21.403  13.600  0.00  0.00    +0.077 A 
ATOM      5  C   UNL     1      21.675  22.006  12.861  0.00  0.00    +0.048 A 
ATOM      6  C   UNL     1      21.693  21.803  11.463  0.00  0.00    +0.116 A 
ATOM      7  N   UNL     1      20.708  21.052  10.860  0.00  0.00    -0.223 NA
ATOM      8  C   UNL     1      19.689  20.483  11.602  0.00  0.00    +0.220 A 
ATOM      9  N   UNL     1      18.684  19.731  11.015  0.00  0.00    -0.283 N 
ATOM     36  H   UNL     1      17.954  19.322  11.599  0.00  0.00    +0.155 HD
ATOM     37  N   UNL     1      19.650  20.661  12.939  0.00  0.00    -0.214 NA
BRANCH   4   3
ATOM      1  C   UNL     1      20.073  22.874  17.186  0.00  0.00    +0.020 A 
ATOM      2  C   UNL     1      20.220  22.807  15.750  0.00  0.00    +0.013 A 
ATOM      3  C   UNL     1      20.445  21.530  15.084  0.00  0.00    +0.019 A 
ATOM     38  C   UNL     1      20.515  20.331  15.905  0.00  0.00    +0.120 A 
ATOM     39  N   UNL     1      20.371  20.427  17.286  0.00  0.00    -0.263 NA
ATOM     40  C   UNL     1      20.156  21.650  17.938  0.00  0.00    +0.111 A 
ENDBRANCH   4   3
ENDBRANCH  10   9
BRANCH  12  13
ATOM     13  N   UNL     1      20.452  20.823   6.495  0.00  0.00    -0.281 N 
ATOM     14  C   UNL     1      20.139  21.869   5.642  0.00  0.00    +0.248 C 
ATOM     30  O   UNL     1      19.002  22.203   5.347  0.00  0.00    -0.270 OA
ATOM     31  H   UNL     1      21.428  20.527   6.503  0.00  0.00    +0.155 HD
BRANCH  14  15
ATOM     15  C   UNL     1      21.251  22.647   5.016  0.00  0.00    +0.037 A 
ATOM     16  C   UNL     1      20.985  23.672   4.004  0.00  0.00    +0.013 A 
ATOM     17  C   UNL     1      22.077  24.396   3.404  0.00  0.00    +0.005 A 
ATOM     18  C   UNL     1      23.447  24.099   3.816  0.00  0.00    -0.033 A 
ATOM     28  C   UNL     1      23.682  23.080   4.826  0.00  0.00    +0.005 A 
ATOM     29  C   UNL     1      22.614  22.368   5.416  0.00  0.00    +0.013 A 
BRANCH  18  19
ATOM     19  C   UNL     1      24.675  24.807   3.214  0.00  0.00    +0.119 C 
BRANCH  19  20
ATOM     20  N   UNL     1      25.142  24.344   1.873  0.00  0.00    -0.302 NA
ATOM     21  C   UNL     1      26.649  24.077   1.851  0.00  0.00    +0.066 C 
ATOM     22  C   UNL     1      27.117  23.572   0.447  0.00  0.00    -0.064 C 
ATOM     23  N   UNL     1      26.734  24.602  -0.616  0.00  0.00    +0.379 N 
ATOM     24  C   UNL     1      27.224  24.158  -1.929  0.00  0.00    -0.096 C 
ATOM     25  H   UNL     1      27.255  25.556  -0.366  0.00  0.00    -0.082 HD
ATOM     26  C   UNL     1      25.237  24.876  -0.599  0.00  0.00    -0.064 C 
ATOM     27  C   UNL     1      24.777  25.349   0.808  0.00  0.00    +0.066 C 
ENDBRANCH  19  20
ENDBRANCH  18  19
ENDBRANCH  14  15
ENDBRANCH  12  13
TORSDOF 6
ENDMDL
MODEL 3
REMARK VINA RESULT:     -11.5      2.880     13.033
REMARK  Name = C:\Users\Docking\Desktop\test protocol\1iep_ligandH.pdb
REMARK  8 active torsions:
REMARK  status: ('A' for Active; 'I' for Inactive)
REMARK    1  A    between atoms: _5  and  _11
REMARK    2  A    between atoms: _19  and  _21
REMARK    3  A    between atoms: _22  and  _66
REMARK    4  A    between atoms: _27  and  _30
REMARK    5  A    between atoms: _32  and  _33
REMARK    6  A    between atoms: _38  and  _43
REMARK    7  A    between atoms: _43  and  _46
REMARK    8  A    between atoms: _53  and  _55
REMARK                            x       y       z     vdW  Elec       q    Type
REMARK                         _______ _______ _______ _____ _____    ______ ____
ROOT
ATOM     10  C   UNL     1      21.687  23.452   5.598  0.00  0.00    +0.038 A 
ATOM     11  C   UNL     1      22.936  23.283   4.948  0.00  0.00    +0.047 A 
ATOM     12  C   UNL     1      23.046  23.355   3.499  0.00  0.00    +0.035 A 
ATOM     32  C   UNL     1      21.863  23.602   2.743  0.00  0.00    +0.024 A 
ATOM     33  C   UNL     1      20.585  23.775   3.388  0.00  0.00    +0.007 A 
ATOM     34  C   UNL     1      20.470  23.703   4.816  0.00  0.00    -0.029 A 
ATOM     35  C   UNL     1      19.073  23.889   5.453  0.00  0.00    +0.045 C 
ENDROOT
BRANCH  10   9
ATOM      4  C   UNL     1      20.379  21.278   9.672  0.00  0.00    +0.077 A 
ATOM      5  C   UNL     1      19.711  20.224   8.965  0.00  0.00    +0.048 A 
ATOM      6  C   UNL     1      19.721  20.282   7.553  0.00  0.00    +0.116 A 
ATOM      7  N   UNL     1      20.355  21.321   6.908  0.00  0.00    -0.223 NA
ATOM      8  C   UNL     1      20.988  22.323   7.620  0.00  0.00    +0.220 A 
ATOM      9  N   UNL     1      21.639  23.373   6.992  0.00  0.00    -0.283 N 
ATOM     36  H   UNL     1      22.088  24.097   7.553  0.00  0.00    +0.155 HD
ATOM     37  N   UNL     1      20.991  22.291   8.969  0.00  0.00    -0.214 NA
BRANCH   4   3
ATOM      1  C   UNL     1      21.678  21.848  13.317  0.00  0.00    +0.020 A 
ATOM      2  C   UNL     1      21.654  21.791  11.874  0.00  0.00    +0.013 A 
ATOM      3  C   UNL     1      20.458  21.355  11.165  0.00  0.00    +0.019 A 
ATOM     38  C   UNL     1      19.293  20.981  11.953  0.00  0.00    +0.120 A 
ATOM     39  N   UNL     1      19.346  21.044  13.342  0.00  0.00    -0.263 NA
ATOM     40  C   UNL     1      20.492  21.461  14.035  0.00  0.00    +0.111 A 
ENDBRANCH   4   3
ENDBRANCH  10   9
BRANCH  12  13
ATOM     13  N   UNL     1      24.285  23.184   2.783  0.00  0.00    -0.281 N 
ATOM     14  C   UNL     1      25.082  24.163   2.213  0.00  0.00    +0.248 C 
ATOM     30  O   UNL     1      24.737  25.324   2.046  0.00  0.00    -0.270 OA
ATOM     31  H   UNL     1      24.616  22.224   2.684  0.00  0.00    +0.155 HD
BRANCH  14  15
ATOM     15  C   UNL     1      26.454  23.798   1.747  0.00  0.00    +0.037 A 
ATOM     16  C   UNL     1      26.705  23.405   0.358  0.00  0.00    +0.013 A 
ATOM     17  C   UNL     1      28.035  23.041  -0.062  0.00  0.00    +0.005 A 
ATOM     18  C   UNL     1      29.126  23.069   0.910  0.00  0.00    -0.033 A 
ATOM     28  C   UNL     1      28.849  23.467   2.281  0.00  0.00    +0.005 A 
ATOM     29  C   UNL     1      27.546  23.824   2.695  0.00  0.00    +0.013 A 
BRANCH  18  19
ATOM     19  C   UNL     1      30.572  22.676   0.557  0.00  0.00    +0.119 C 
BRANCH  19  20
ATOM     20  N   UNL     1      31.203  21.590   1.365  0.00  0.00    -0.302 NA
ATOM     21  C   UNL     1      32.668  21.365   0.981  0.00  0.00    +0.066 C 
ATOM     22  C   UNL     1      33.319  20.242   1.853  0.00  0.00    -0.064 C 
ATOM     23  N   UNL     1      32.514  18.951   1.699  0.00  0.00    +0.379 N 
ATOM     24  C   UNL     1      33.157  17.877   2.471  0.00  0.00    -0.096 C 
ATOM     25  H   UNL     1      32.545  18.659   0.623  0.00  0.00    -0.082 HD
ATOM     26  C   UNL     1      31.055  19.166   2.076  0.00  0.00    -0.064 C 
ATOM     27  C   UNL     1      30.426  20.304   1.225  0.00  0.00    +0.066 C 
ENDBRANCH  19  20
ENDBRANCH  18  19
ENDBRANCH  14  15
ENDBRANCH  12  13
TORSDOF 6
ENDMDL
MODEL 4
REMARK VINA RESULT:     -11.3      2.547     13.305
REMARK  Name = C:\Users\Docking\Desktop\test protocol\1iep_ligandH.pdb
REMARK  8 active torsions:
REMARK  status: ('A' for Active; 'I' for Inactive)
REMARK    1  A    between atoms: _5  and  _11
REMARK    2  A    between atoms: _19  and  _21
REMARK    3  A    between atoms: _22  and  _66
REMARK    4  A    between atoms: _27  and  _30
REMARK    5  A    between atoms: _32  and  _33
REMARK    6  A    between atoms: _38  and  _43
REMARK    7  A    between atoms: _43  and  _46
REMARK    8  A    between atoms: _53  and  _55
REMARK                            x       y       z     vdW  Elec       q    Type
REMARK                         _______ _______ _______ _____ _____    ______ ____
ROOT
ATOM     10  C   UNL     1      18.526  19.258  11.554  0.00  0.00    +0.038 A 
ATOM     11  C   UNL     1      19.613  20.055  11.112  0.00  0.00    +0.047 A 
ATOM     12  C   UNL     1      19.895  20.225   9.695  0.00  0.00    +0.035 A 
ATOM     32  C   UNL     1      19.047  19.570   8.755  0.00  0.00    +0.024 A 
ATOM     33  C   UNL     1      17.939  18.755   9.187  0.00  0.00    +0.007 A 
ATOM     34  C   UNL     1      17.657  18.582  10.583  0.00  0.00    -0.029 A 
ATOM     35  C   UNL     1      16.460  17.692  10.989  0.00  0.00    +0.045 C 
ENDROOT
BRANCH  10   9
ATOM      4  C   UNL     1      18.809  20.889  16.060  0.00  0.00    +0.077 A 
ATOM      5  C   UNL     1      19.486  22.085  15.647  0.00  0.00    +0.048 A 
ATOM      6  C   UNL     1      19.749  22.239  14.267  0.00  0.00    +0.116 A 
ATOM      7  N   UNL     1      19.359  21.263  13.376  0.00  0.00    -0.223 NA
ATOM      8  C   UNL     1      18.710  20.121  13.807  0.00  0.00    +0.220 A 
ATOM      9  N   UNL     1      18.302  19.130  12.927  0.00  0.00    -0.283 N 
ATOM     36  H   UNL     1      17.832  18.299  13.285  0.00  0.00    +0.155 HD
ATOM     37  N   UNL     1      18.449  19.949  15.120  0.00  0.00    -0.214 NA
BRANCH   4   3
ATOM      1  C   UNL     1      16.934  19.635  19.255  0.00  0.00    +0.020 A 
ATOM      2  C   UNL     1      17.225  19.908  17.867  0.00  0.00    +0.013 A 
ATOM      3  C   UNL     1      18.458  20.583  17.483  0.00  0.00    +0.019 A 
ATOM     38  C   UNL     1      19.383  20.972  18.536  0.00  0.00    +0.120 A 
ATOM     39  N   UNL     1      19.076  20.698  19.865  0.00  0.00    -0.263 NA
ATOM     40  C   UNL     1      17.891  20.050  20.247  0.00  0.00    +0.111 A 
ENDBRANCH   4   3
ENDBRANCH  10   9
BRANCH  12  13
ATOM     13  N   UNL     1      20.989  21.015   9.187  0.00  0.00    -0.281 N 
ATOM     14  C   UNL     1      22.136  21.410   9.856  0.00  0.00    +0.248 C 
ATOM     30  O   UNL     1      22.298  21.321  11.064  0.00  0.00    -0.270 OA
ATOM     31  H   UNL     1      20.907  21.321   8.218  0.00  0.00    +0.155 HD
BRANCH  14  15
ATOM     15  C   UNL     1      23.262  22.001   9.070  0.00  0.00    +0.037 A 
ATOM     16  C   UNL     1      24.658  21.688   9.388  0.00  0.00    +0.013 A 
ATOM     17  C   UNL     1      25.725  22.285   8.626  0.00  0.00    +0.005 A 
ATOM     18  C   UNL     1      25.400  23.201   7.535  0.00  0.00    -0.033 A 
ATOM     28  C   UNL     1      24.007  23.489   7.237  0.00  0.00    +0.005 A 
ATOM     29  C   UNL     1      22.958  22.907   7.983  0.00  0.00    +0.013 A 
BRANCH  18  19
ATOM     19  C   UNL     1      26.475  23.900   6.682  0.00  0.00    +0.119 C 
BRANCH  19  20
ATOM     20  N   UNL     1      26.598  23.477   5.255  0.00  0.00    -0.302 NA
ATOM     21  C   UNL     1      28.051  23.493   4.774  0.00  0.00    +0.066 C 
ATOM     22  C   UNL     1      28.164  23.026   3.286  0.00  0.00    -0.064 C 
ATOM     23  N   UNL     1      27.292  23.923   2.405  0.00  0.00    +0.379 N 
ATOM     24  C   UNL     1      27.440  23.523   0.998  0.00  0.00    -0.096 C 
ATOM     25  H   UNL     1      27.673  24.966   2.503  0.00  0.00    -0.082 HD
ATOM     26  C   UNL     1      25.845  23.914   2.879  0.00  0.00    -0.064 C 
ATOM     27  C   UNL     1      25.747  24.351   4.367  0.00  0.00    +0.066 C 
ENDBRANCH  19  20
ENDBRANCH  18  19
ENDBRANCH  14  15
ENDBRANCH  12  13
TORSDOF 6
ENDMDL
MODEL 5
REMARK VINA RESULT:     -11.3      2.942     12.957
REMARK  Name = C:\Users\Docking\Desktop\test protocol\1iep_ligandH.pdb
REMARK  8 active torsions:
REMARK  status: ('A' for Active; 'I' for Inactive)
REMARK    1  A    between atoms: _5  and  _11
REMARK    2  A    between atoms: _19  and  _21
REMARK    3  A    between atoms: _22  and  _66
REMARK    4  A    between atoms: _27  and  _30
REMARK    5  A    between atoms: _32  and  _33
REMARK    6  A    between atoms: _38  and  _43
REMARK    7  A    between atoms: _43  and  _46
REMARK    8  A    between atoms: _53  and  _55
REMARK                            x       y       z     vdW  Elec       q    Type
REMARK                         _______ _______ _______ _____ _____    ______ ____
ROOT
ATOM     10  C   UNL     1      21.363  23.106   5.122  0.00  0.00    +0.038 A 
ATOM     11  C   UNL     1      22.678  22.959   4.611  0.00  0.00    +0.047 A 
ATOM     12  C   UNL     1      23.003  23.348   3.247  0.00  0.00    +0.035 A 
ATOM     32  C   UNL     1      21.964  23.886   2.432  0.00  0.00    +0.024 A 
ATOM     33  C   UNL     1      20.622  24.041   2.935  0.00  0.00    +0.007 A 
ATOM     34  C   UNL     1      20.295  23.656   4.279  0.00  0.00    -0.029 A 
ATOM     35  C   UNL     1      18.837  23.838   4.763  0.00  0.00    +0.045 C 
ENDROOT
BRANCH  10   9
ATOM      4  C   UNL     1      22.634  22.664   9.729  0.00  0.00    +0.077 A 
ATOM      5  C   UNL     1      23.929  23.233   9.488  0.00  0.00    +0.048 A 
ATOM      6  C   UNL     1      24.231  23.620   8.163  0.00  0.00    +0.116 A 
ATOM      7  N   UNL     1      23.300  23.446   7.162  0.00  0.00    -0.223 NA
ATOM      8  C   UNL     1      22.061  22.893   7.428  0.00  0.00    +0.220 A 
ATOM      9  N   UNL     1      21.106  22.716   6.438  0.00  0.00    -0.283 N 
ATOM     36  H   UNL     1      20.207  22.297   6.674  0.00  0.00    +0.155 HD
ATOM     37  N   UNL     1      21.749  22.514   8.685  0.00  0.00    -0.214 NA
BRANCH   4   3
ATOM      1  C   UNL     1      22.418  22.000  13.578  0.00  0.00    +0.020 A 
ATOM      2  C   UNL     1      22.914  22.460  12.302  0.00  0.00    +0.013 A 
ATOM      3  C   UNL     1      22.166  22.209  11.076  0.00  0.00    +0.019 A 
ATOM     38  C   UNL     1      20.908  21.484  11.178  0.00  0.00    +0.120 A 
ATOM     39  N   UNL     1      20.456  21.052  12.421  0.00  0.00    -0.263 NA
ATOM     40  C   UNL     1      21.168  21.286  13.606  0.00  0.00    +0.111 A 
ENDBRANCH   4   3
ENDBRANCH  10   9
BRANCH  12  13
ATOM     13  N   UNL     1      24.318  23.216   2.671  0.00  0.00    -0.281 N 
ATOM     14  C   UNL     1      25.256  24.211   2.453  0.00  0.00    +0.248 C 
ATOM     30  O   UNL     1      25.023  25.408   2.524  0.00  0.00    -0.270 OA
ATOM     31  H   UNL     1      24.590  22.274   2.390  0.00  0.00    +0.155 HD
BRANCH  14  15
ATOM     15  C   UNL     1      26.652  23.820   2.088  0.00  0.00    +0.037 A 
ATOM     16  C   UNL     1      27.674  23.606   3.115  0.00  0.00    +0.013 A 
ATOM     17  C   UNL     1      29.017  23.245   2.735  0.00  0.00    +0.005 A 
ATOM     18  C   UNL     1      29.345  23.096   1.319  0.00  0.00    -0.033 A 
ATOM     28  C   UNL     1      28.310  23.309   0.321  0.00  0.00    +0.005 A 
ATOM     29  C   UNL     1      26.993  23.663   0.690  0.00  0.00    +0.013 A 
BRANCH  18  19
ATOM     19  C   UNL     1      30.757  22.735   0.821  0.00  0.00    +0.119 C 
BRANCH  19  20
ATOM     20  N   UNL     1      30.959  21.358   0.279  0.00  0.00    -0.302 NA
ATOM     21  C   UNL     1      30.866  21.323  -1.249  0.00  0.00    +0.066 C 
ATOM     22  C   UNL     1      31.103  19.880  -1.801  0.00  0.00    -0.064 C 
ATOM     23  N   UNL     1      30.086  18.924  -1.174  0.00  0.00    +0.379 N 
ATOM     24  C   UNL     1      30.268  17.577  -1.735  0.00  0.00    -0.096 C 
ATOM     25  H   UNL     1      29.069  19.276  -1.464  0.00  0.00    -0.082 HD
ATOM     26  C   UNL     1      30.170  18.955   0.345  0.00  0.00    -0.064 C 
ATOM     27  C   UNL     1      29.963  20.399   0.881  0.00  0.00    +0.066 C 
ENDBRANCH  19  20
ENDBRANCH  18  19
ENDBRANCH  14  15
ENDBRANCH  12  13
TORSDOF 6
ENDMDL
