MODEL 1
REMARK VINA RESULT:      -9.9      0.000      0.000
REMARK  Name = C:\Users\Docking\Desktop\test protocol\1iep_ligandH.pdb
REMARK  8 active torsions:
REMARK  status: ('A' for Active; 'I' for Inactive)
REMARK    1  A    between atoms: _5  and  _11
REMARK    2  A    between atoms: _19  and  _21
REMARK    3  A    between atoms: _22  and  _66
REMARK    4  A    between atoms: _27  and  _30
REMARK    5  A    between atoms: _32  and  _33
REMARK    6  A    between atoms: _38  and  _43
REMARK    7  A    between atoms: _43  and  _46
REMARK    8  A    between atoms: _53  and  _55
REMARK                            x       y       z     vdW  Elec       q    Type
REMARK                         _______ _______ _______ _____ _____    ______ ____
ROOT
ATOM     10  C   UNL     1      15.470   7.377  16.883  0.00  0.00    +0.038 A 
ATOM     11  C   UNL     1      15.633   8.092  18.097  0.00  0.00    +0.047 A 
ATOM     12  C   UNL     1      15.590   9.546  18.126  0.00  0.00    +0.035 A 
ATOM     32  C   UNL     1      15.377  10.240  16.899  0.00  0.00    +0.024 A 
ATOM     33  C   UNL     1      15.210   9.529  15.656  0.00  0.00    +0.007 A 
ATOM     34  C   UNL     1      15.254   8.095  15.621  0.00  0.00    -0.029 A 
ATOM     35  C   UNL     1      15.075   7.386  14.259  0.00  0.00    +0.045 C 
ENDROOT
BRANCH  10   9
ATOM      4  C   UNL     1      13.663   3.103  18.110  0.00  0.00    +0.077 A 
ATOM      5  C   UNL     1      12.538   3.702  18.769  0.00  0.00    +0.048 A 
ATOM      6  C   UNL     1      12.466   5.113  18.776  0.00  0.00    +0.116 A 
ATOM      7  N   UNL     1      13.450   5.860  18.166  0.00  0.00    -0.223 NA
ATOM      8  C   UNL     1      14.522   5.251  17.540  0.00  0.00    +0.220 A 
ATOM      9  N   UNL     1      15.520   5.982  16.913  0.00  0.00    -0.283 N 
ATOM     36  H   UNL     1      16.298   5.496  16.469  0.00  0.00    +0.155 HD
ATOM     37  N   UNL     1      14.615   3.905  17.521  0.00  0.00    -0.214 NA
BRANCH   4   3
ATOM      1  C   UNL     1      14.331  -0.490  16.715  0.00  0.00    +0.020 A 
ATOM      2  C   UNL     1      14.129   0.940  16.752  0.00  0.00    +0.013 A 
ATOM      3  C   UNL     1      13.878   1.625  18.014  0.00  0.00    +0.019 A 
ATOM     38  C   UNL     1      13.839   0.827  19.231  0.00  0.00    +0.120 A 
ATOM     39  N   UNL     1      14.036  -0.549  19.164  0.00  0.00    -0.263 NA
ATOM     40  C   UNL     1      14.276  -1.219  17.955  0.00  0.00    +0.111 A 
ENDBRANCH   4   3
ENDBRANCH  10   9
BRANCH  12  13
ATOM     13  N   UNL     1      15.758  10.326  19.327  0.00  0.00    -0.281 N 
ATOM     14  C   UNL     1      16.938  10.791  19.883  0.00  0.00    +0.248 C 
ATOM     30  O   UNL     1      18.054  10.423  19.544  0.00  0.00    -0.270 OA
ATOM     31  H   UNL     1      14.902  10.565  19.828  0.00  0.00    +0.155 HD
BRANCH  14  15
ATOM     15  C   UNL     1      16.870  11.800  20.983  0.00  0.00    +0.037 A 
ATOM     16  C   UNL     1      17.981  12.719  21.242  0.00  0.00    +0.013 A 
ATOM     17  C   UNL     1      17.897  13.671  22.320  0.00  0.00    +0.005 A 
ATOM     18  C   UNL     1      16.694  13.710  23.149  0.00  0.00    -0.033 A 
ATOM     28  C   UNL     1      15.604  12.790  22.867  0.00  0.00    +0.005 A 
ATOM     29  C   UNL     1      15.684  11.855  21.811  0.00  0.00    +0.013 A 
BRANCH  18  19
ATOM     19  C   UNL     1      16.525  14.678  24.334  0.00  0.00    +0.119 C 
BRANCH  19  20
ATOM     20  N   UNL     1      16.878  14.165  25.692  0.00  0.00    -0.302 NA
ATOM     21  C   UNL     1      17.383  15.279  26.614  0.00  0.00    +0.066 C 
ATOM     22  C   UNL     1      17.726  14.728  28.036  0.00  0.00    -0.064 C 
ATOM     23  N   UNL     1      18.766  13.614  27.912  0.00  0.00    +0.379 N 
ATOM     24  C   UNL     1      19.133  13.134  29.252  0.00  0.00    -0.096 C 
ATOM     25  H   UNL     1      19.679  14.055  27.448  0.00  0.00    -0.082 HD
ATOM     26  C   UNL     1      18.273  12.504  26.995  0.00  0.00    -0.064 C 
ATOM     27  C   UNL     1      17.907  13.067  25.593  0.00  0.00    +0.066 C 
ENDBRANCH  19  20
ENDBRANCH  18  19
ENDBRANCH  14  15
ENDBRANCH  12  13
TORSDOF 6
ENDMDL
MODEL 2
REMARK VINA RESULT:      -9.1      1.999      3.368
REMARK  Name = C:\Users\Docking\Desktop\test protocol\1iep_ligandH.pdb
REMARK  8 active torsions:
REMARK  status: ('A' for Active; 'I' for Inactive)
REMARK    1  A    between atoms: _5  and  _11
REMARK    2  A    between atoms: _19  and  _21
REMARK    3  A    between atoms: _22  and  _66
REMARK    4  A    between atoms: _27  and  _30
REMARK    5  A    between atoms: _32  and  _33
REMARK    6  A    between atoms: _38  and  _43
REMARK    7  A    between atoms: _43  and  _46
REMARK    8  A    between atoms: _53  and  _55
REMARK                            x       y       z     vdW  Elec       q    Type
REMARK                         _______ _______ _______ _____ _____    ______ ____
ROOT
ATOM     10  C   UNL     1      15.758   7.052  16.846  0.00  0.00    +0.038 A 
ATOM     11  C   UNL     1      15.808   7.815  18.040  0.00  0.00    +0.047 A 
ATOM     12  C   UNL     1      15.799   9.269  18.005  0.00  0.00    +0.035 A 
ATOM     32  C   UNL     1      15.736   9.914  16.736  0.00  0.00    +0.024 A 
ATOM     33  C   UNL     1      15.686   9.154  15.511  0.00  0.00    +0.007 A 
ATOM     34  C   UNL     1      15.697   7.719  15.540  0.00  0.00    -0.029 A 
ATOM     35  C   UNL     1      15.648   6.955  14.196  0.00  0.00    +0.045 C 
ENDROOT
BRANCH  10   9
ATOM      4  C   UNL     1      13.769   2.879  18.136  0.00  0.00    +0.077 A 
ATOM      5  C   UNL     1      12.621   3.532  18.698  0.00  0.00    +0.048 A 
ATOM      6  C   UNL     1      12.585   4.943  18.641  0.00  0.00    +0.116 A 
ATOM      7  N   UNL     1      13.625   5.639  18.062  0.00  0.00    -0.223 NA
ATOM      8  C   UNL     1      14.717   4.979  17.531  0.00  0.00    +0.220 A 
ATOM      9  N   UNL     1      15.770   5.658  16.938  0.00  0.00    -0.283 N 
ATOM     36  H   UNL     1      16.561   5.135  16.565  0.00  0.00    +0.155 HD
ATOM     37  N   UNL     1      14.776   3.631  17.575  0.00  0.00    -0.214 NA
BRANCH   4   3
ATOM      1  C   UNL     1      14.100  -0.856  19.249  0.00  0.00    +0.020 A 
ATOM      2  C   UNL     1      13.919   0.575  19.323  0.00  0.00    +0.013 A 
ATOM      3  C   UNL     1      13.951   1.393  18.117  0.00  0.00    +0.019 A 
ATOM     38  C   UNL     1      14.170   0.726  16.842  0.00  0.00    +0.120 A 
ATOM     39  N   UNL     1      14.343  -0.654  16.802  0.00  0.00    -0.263 NA
ATOM     40  C   UNL     1      14.315  -1.451  17.957  0.00  0.00    +0.111 A 
ENDBRANCH   4   3
ENDBRANCH  10   9
BRANCH  12  13
ATOM     13  N   UNL     1      15.855  10.097  19.185  0.00  0.00    -0.281 N 
ATOM     14  C   UNL     1      16.980  10.589  19.826  0.00  0.00    +0.248 C 
ATOM     30  O   UNL     1      18.122  10.215  19.604  0.00  0.00    -0.270 OA
ATOM     31  H   UNL     1      14.957  10.350  19.597  0.00  0.00    +0.155 HD
BRANCH  14  15
ATOM     15  C   UNL     1      16.811  11.640  20.875  0.00  0.00    +0.037 A 
ATOM     16  C   UNL     1      15.578  11.738  21.661  0.00  0.00    +0.013 A 
ATOM     17  C   UNL     1      15.434  12.771  22.655  0.00  0.00    +0.005 A 
ATOM     18  C   UNL     1      16.528  13.716  22.870  0.00  0.00    -0.033 A 
ATOM     28  C   UNL     1      17.741  13.594  22.080  0.00  0.00    +0.005 A 
ATOM     29  C   UNL     1      17.886  12.582  21.104  0.00  0.00    +0.013 A 
BRANCH  18  19
ATOM     19  C   UNL     1      16.453  14.864  23.894  0.00  0.00    +0.119 C 
BRANCH  19  20
ATOM     20  N   UNL     1      15.470  15.956  23.627  0.00  0.00    -0.302 NA
ATOM     21  C   UNL     1      14.069  15.605  24.133  0.00  0.00    +0.066 C 
ATOM     22  C   UNL     1      13.059  16.768  23.865  0.00  0.00    -0.064 C 
ATOM     23  N   UNL     1      13.031  17.081  22.368  0.00  0.00    +0.379 N 
ATOM     24  C   UNL     1      12.040  18.134  22.105  0.00  0.00    -0.096 C 
ATOM     25  H   UNL     1      12.695  16.160  21.836  0.00  0.00    -0.082 HD
ATOM     26  C   UNL     1      14.422  17.429  21.856  0.00  0.00    -0.064 C 
ATOM     27  C   UNL     1      15.424  16.279  22.153  0.00  0.00    +0.066 C 
ENDBRANCH  19  20
ENDBRANCH  18  19
ENDBRANCH  14  15
ENDBRANCH  12  13
TORSDOF 6
ENDMDL
MODEL 3
REMARK VINA RESULT:      -9.1     21.984     26.137
REMARK  Name = C:\Users\Docking\Desktop\test protocol\1iep_ligandH.pdb
REMARK  8 active torsions:
REMARK  status: ('A' for Active; 'I' for Inactive)
REMARK    1  A    between atoms: _5  and  _11
REMARK    2  A    between atoms: _19  and  _21
REMARK    3  A    between atoms: _22  and  _66
REMARK    4  A    between atoms: _27  and  _30
REMARK    5  A    between atoms: _32  and  _33
REMARK    6  A    between atoms: _38  and  _43
REMARK    7  A    between atoms: _43  and  _46
REMARK    8  A    between atoms: _53  and  _55
REMARK                            x       y       z     vdW  Elec       q    Type
REMARK                         _______ _______ _______ _____ _____    ______ ____
ROOT
ATOM     10  C   UNL     1      17.194 -17.922  19.248  0.00  0.00    +0.038 A 
ATOM     11  C   UNL     1      16.021 -17.174  19.527  0.00  0.00    +0.047 A 
ATOM     12  C   UNL     1      15.292 -17.356  20.773  0.00  0.00    +0.035 A 
ATOM     32  C   UNL     1      15.787 -18.306  21.713  0.00  0.00    +0.024 A 
ATOM     33  C   UNL     1      16.977 -19.075  21.444  0.00  0.00    +0.007 A 
ATOM     34  C   UNL     1      17.699 -18.902  20.217  0.00  0.00    -0.029 A 
ATOM     35  C   UNL     1      18.965 -19.758  19.979  0.00  0.00    +0.045 C 
ENDROOT
BRANCH  10   9
ATOM      4  C   UNL     1      17.949 -18.891  14.608  0.00  0.00    +0.077 A 
ATOM      5  C   UNL     1      16.963 -19.933  14.604  0.00  0.00    +0.048 A 
ATOM      6  C   UNL     1      16.289 -20.193  15.818  0.00  0.00    +0.116 A 
ATOM      7  N   UNL     1      16.586 -19.459  16.946  0.00  0.00    -0.223 NA
ATOM      8  C   UNL     1      17.545 -18.462  16.916  0.00  0.00    +0.220 A 
ATOM      9  N   UNL     1      17.855 -17.706  18.036  0.00  0.00    -0.283 N 
ATOM     36  H   UNL     1      18.573 -16.985  17.975  0.00  0.00    +0.155 HD
ATOM     37  N   UNL     1      18.204 -18.196  15.769  0.00  0.00    -0.214 NA
BRANCH   4   3
ATOM      1  C   UNL     1      19.112 -18.373  10.910  0.00  0.00    +0.020 A 
ATOM      2  C   UNL     1      18.308 -18.776  12.040  0.00  0.00    +0.013 A 
ATOM      3  C   UNL     1      18.744 -18.497  13.402  0.00  0.00    +0.019 A 
ATOM     38  C   UNL     1      20.009 -17.802  13.588  0.00  0.00    +0.120 A 
ATOM     39  N   UNL     1      20.763 -17.427  12.480  0.00  0.00    -0.263 NA
ATOM     40  C   UNL     1      20.354 -17.692  11.165  0.00  0.00    +0.111 A 
ENDBRANCH   4   3
ENDBRANCH  10   9
BRANCH  12  13
ATOM     13  N   UNL     1      14.091 -16.632  21.108  0.00  0.00    -0.281 N 
ATOM     14  C   UNL     1      12.907 -16.567  20.391  0.00  0.00    +0.248 C 
ATOM     30  O   UNL     1      12.775 -16.953  19.239  0.00  0.00    -0.270 OA
ATOM     31  H   UNL     1      14.117 -16.103  21.979  0.00  0.00    +0.155 HD
BRANCH  14  15
ATOM     15  C   UNL     1      11.700 -15.975  21.043  0.00  0.00    +0.037 A 
ATOM     16  C   UNL     1      11.714 -15.582  22.454  0.00  0.00    +0.013 A 
ATOM     17  C   UNL     1      10.530 -15.029  23.063  0.00  0.00    +0.005 A 
ATOM     18  C   UNL     1       9.321 -14.865  22.259  0.00  0.00    -0.033 A 
ATOM     28  C   UNL     1       9.336 -15.259  20.860  0.00  0.00    +0.005 A 
ATOM     29  C   UNL     1      10.495 -15.803  20.260  0.00  0.00    +0.013 A 
BRANCH  18  19
ATOM     19  C   UNL     1       8.006 -14.304  22.831  0.00  0.00    +0.119 C 
BRANCH  19  20
ATOM     20  N   UNL     1       8.055 -12.946  23.452  0.00  0.00    -0.302 NA
ATOM     21  C   UNL     1       8.168 -13.016  24.977  0.00  0.00    +0.066 C 
ATOM     22  C   UNL     1       8.240 -11.587  25.609  0.00  0.00    -0.064 C 
ATOM     23  N   UNL     1       7.006 -10.786  25.193  0.00  0.00    +0.379 N 
ATOM     24  C   UNL     1       7.042  -9.462  25.831  0.00  0.00    -0.096 C 
ATOM     25  H   UNL     1       6.108 -11.323  25.578  0.00  0.00    -0.082 HD
ATOM     26  C   UNL     1       6.885 -10.714  23.677  0.00  0.00    -0.064 C 
ATOM     27  C   UNL     1       6.843 -12.139  23.058  0.00  0.00    +0.066 C 
ENDBRANCH  19  20
ENDBRANCH  18  19
ENDBRANCH  14  15
ENDBRANCH  12  13
TORSDOF 6
ENDMDL
