MODEL 1
REMARK VINA RESULT:      -8.0      0.000      0.000
REMARK  Name = C:\Users\Docking\Desktop\test protocol\1iep_ligandH.pdb
REMARK  8 active torsions:
REMARK  status: ('A' for Active; 'I' for Inactive)
REMARK    1  A    between atoms: _5  and  _11
REMARK    2  A    between atoms: _19  and  _21
REMARK    3  A    between atoms: _22  and  _66
REMARK    4  A    between atoms: _27  and  _30
REMARK    5  A    between atoms: _32  and  _33
REMARK    6  A    between atoms: _38  and  _43
REMARK    7  A    between atoms: _43  and  _46
REMARK    8  A    between atoms: _53  and  _55
REMARK                            x       y       z     vdW  Elec       q    Type
REMARK                         _______ _______ _______ _____ _____    ______ ____
ROOT
ATOM     10  C   UNL     1      35.766  53.741  99.592  0.00  0.00    +0.038 A 
ATOM     11  C   UNL     1      36.633  52.655  99.311  0.00  0.00    +0.047 A 
ATOM     12  C   UNL     1      37.126  51.791 100.373  0.00  0.00    +0.035 A 
ATOM     32  C   UNL     1      36.714  52.061 101.710  0.00  0.00    +0.024 A 
ATOM     33  C   UNL     1      35.833  53.162 102.014  0.00  0.00    +0.007 A 
ATOM     34  C   UNL     1      35.345  54.019 100.971  0.00  0.00    -0.029 A 
ATOM     35  C   UNL     1      34.409  55.188 101.356  0.00  0.00    +0.045 C 
ENDROOT
BRANCH  10   9
ATOM      4  C   UNL     1      32.707  54.724  96.026  0.00  0.00    +0.077 A 
ATOM      5  C   UNL     1      31.944  53.535  96.274  0.00  0.00    +0.048 A 
ATOM      6  C   UNL     1      32.375  52.694  97.324  0.00  0.00    +0.116 A 
ATOM      7  N   UNL     1      33.489  53.026  98.064  0.00  0.00    -0.223 NA
ATOM      8  C   UNL     1      34.204  54.180  97.798  0.00  0.00    +0.220 A 
ATOM      9  N   UNL     1      35.322  54.538  98.535  0.00  0.00    -0.283 N 
ATOM     36  H   UNL     1      35.827  55.393  98.302  0.00  0.00    +0.155 HD
ATOM     37  N   UNL     1      33.813  54.999  96.800  0.00  0.00    -0.214 NA
BRANCH   4   3
ATOM      1  C   UNL     1      31.398  57.897  94.151  0.00  0.00    +0.020 A 
ATOM      2  C   UNL     1      31.695  56.975  95.223  0.00  0.00    +0.013 A 
ATOM      3  C   UNL     1      32.375  55.714  94.954  0.00  0.00    +0.019 A 
ATOM     38  C   UNL     1      32.745  55.415  93.579  0.00  0.00    +0.120 A 
ATOM     39  N   UNL     1      32.445  56.322  92.567  0.00  0.00    -0.263 NA
ATOM     40  C   UNL     1      31.789  57.537  92.814  0.00  0.00    +0.111 A 
ENDBRANCH   4   3
ENDBRANCH  10   9
BRANCH  12  13
ATOM     13  N   UNL     1      38.016  50.679 100.149  0.00  0.00    -0.281 N 
ATOM     14  C   UNL     1      37.687  49.339 100.018  0.00  0.00    +0.248 C 
ATOM     30  O   UNL     1      36.594  48.866 100.289  0.00  0.00    -0.270 OA
ATOM     31  H   UNL     1      39.007  50.906 100.077  0.00  0.00    +0.155 HD
BRANCH  14  15
ATOM     15  C   UNL     1      38.729  48.385  99.530  0.00  0.00    +0.037 A 
ATOM     16  C   UNL     1      38.883  47.056 100.129  0.00  0.00    +0.013 A 
ATOM     17  C   UNL     1      39.907  46.161  99.650  0.00  0.00    +0.005 A 
ATOM     18  C   UNL     1      40.785  46.593  98.565  0.00  0.00    -0.033 A 
ATOM     28  C   UNL     1      40.607  47.914  97.986  0.00  0.00    +0.005 A 
ATOM     29  C   UNL     1      39.605  48.794  98.453  0.00  0.00    +0.013 A 
BRANCH  18  19
ATOM     19  C   UNL     1      41.918  45.712  98.006  0.00  0.00    +0.119 C 
BRANCH  19  20
ATOM     20  N   UNL     1      41.522  44.499  97.231  0.00  0.00    -0.302 NA
ATOM     21  C   UNL     1      41.962  43.206  97.922  0.00  0.00    +0.066 C 
ATOM     22  C   UNL     1      41.520  41.946  97.109  0.00  0.00    -0.064 C 
ATOM     23  N   UNL     1      42.097  42.027  95.694  0.00  0.00    +0.379 N 
ATOM     24  C   UNL     1      41.731  40.816  94.945  0.00  0.00    -0.096 C 
ATOM     25  H   UNL     1      43.208  42.047  95.783  0.00  0.00    -0.082 HD
ATOM     26  C   UNL     1      41.666  43.312  95.000  0.00  0.00    -0.064 C 
ATOM     27  C   UNL     1      42.084  44.556  95.832  0.00  0.00    +0.066 C 
ENDBRANCH  19  20
ENDBRANCH  18  19
ENDBRANCH  14  15
ENDBRANCH  12  13
TORSDOF 6
ENDMDL
MODEL 2
REMARK VINA RESULT:      -7.0     36.498     44.795
REMARK  Name = C:\Users\Docking\Desktop\test protocol\1iep_ligandH.pdb
REMARK  8 active torsions:
REMARK  status: ('A' for Active; 'I' for Inactive)
REMARK    1  A    between atoms: _5  and  _11
REMARK    2  A    between atoms: _19  and  _21
REMARK    3  A    between atoms: _22  and  _66
REMARK    4  A    between atoms: _27  and  _30
REMARK    5  A    between atoms: _32  and  _33
REMARK    6  A    between atoms: _38  and  _43
REMARK    7  A    between atoms: _43  and  _46
REMARK    8  A    between atoms: _53  and  _55
REMARK                            x       y       z     vdW  Elec       q    Type
REMARK                         _______ _______ _______ _____ _____    ______ ____
ROOT
ATOM     10  C   UNL     1      32.273  93.685  80.909  0.00  0.00    +0.038 A 
ATOM     11  C   UNL     1      31.576  92.994  81.933  0.00  0.00    +0.047 A 
ATOM     12  C   UNL     1      30.122  92.988  81.981  0.00  0.00    +0.035 A 
ATOM     32  C   UNL     1      29.410  93.693  80.968  0.00  0.00    +0.024 A 
ATOM     33  C   UNL     1      30.102  94.401  79.920  0.00  0.00    +0.007 A 
ATOM     34  C   UNL     1      31.536  94.413  79.870  0.00  0.00    -0.029 A 
ATOM     35  C   UNL     1      32.226  95.195  78.727  0.00  0.00    +0.045 C 
ENDROOT
BRANCH  10   9
ATOM      4  C   UNL     1      36.536  95.327  82.383  0.00  0.00    +0.077 A 
ATOM      5  C   UNL     1      35.930  96.342  83.196  0.00  0.00    +0.048 A 
ATOM      6  C   UNL     1      34.519  96.412  83.202  0.00  0.00    +0.116 A 
ATOM      7  N   UNL     1      33.779  95.528  82.447  0.00  0.00    -0.223 NA
ATOM      8  C   UNL     1      34.394  94.562  81.672  0.00  0.00    +0.220 A 
ATOM      9  N   UNL     1      33.670  93.658  80.912  0.00  0.00    -0.283 N 
ATOM     36  H   UNL     1      34.161  92.965  80.348  0.00  0.00    +0.155 HD
ATOM     37  N   UNL     1      35.741  94.476  81.649  0.00  0.00    -0.214 NA
BRANCH   4   3
ATOM      1  C   UNL     1      40.375  95.375  83.130  0.00  0.00    +0.020 A 
ATOM      2  C   UNL     1      38.956  95.597  83.283  0.00  0.00    +0.013 A 
ATOM      3  C   UNL     1      38.015  95.124  82.275  0.00  0.00    +0.019 A 
ATOM     38  C   UNL     1      38.548  94.423  81.116  0.00  0.00    +0.120 A 
ATOM     39  N   UNL     1      39.919  94.224  80.996  0.00  0.00    -0.263 NA
ATOM     40  C   UNL     1      40.834  94.677  81.958  0.00  0.00    +0.111 A 
ENDBRANCH   4   3
ENDBRANCH  10   9
BRANCH  12  13
ATOM     13  N   UNL     1      29.360  92.311  83.001  0.00  0.00    -0.281 N 
ATOM     14  C   UNL     1      29.278  90.949  83.240  0.00  0.00    +0.248 C 
ATOM     30  O   UNL     1      29.684  90.087  82.474  0.00  0.00    -0.270 OA
ATOM     31  H   UNL     1      28.814  92.908  83.622  0.00  0.00    +0.155 HD
BRANCH  14  15
ATOM     15  C   UNL     1      28.642  90.475  84.507  0.00  0.00    +0.037 A 
ATOM     16  C   UNL     1      29.128  90.921  85.815  0.00  0.00    +0.013 A 
ATOM     17  C   UNL     1      28.507  90.435  87.021  0.00  0.00    +0.005 A 
ATOM     18  C   UNL     1      27.390  89.498  86.925  0.00  0.00    -0.033 A 
ATOM     28  C   UNL     1      26.925  89.076  85.614  0.00  0.00    +0.005 A 
ATOM     29  C   UNL     1      27.532  89.549  84.429  0.00  0.00    +0.013 A 
BRANCH  18  19
ATOM     19  C   UNL     1      26.681  88.912  88.160  0.00  0.00    +0.119 C 
BRANCH  19  20
ATOM     20  N   UNL     1      26.707  87.427  88.323  0.00  0.00    -0.302 NA
ATOM     21  C   UNL     1      25.326  86.863  88.668  0.00  0.00    +0.066 C 
ATOM     22  C   UNL     1      25.367  85.307  88.812  0.00  0.00    -0.064 C 
ATOM     23  N   UNL     1      26.391  84.924  89.882  0.00  0.00    +0.379 N 
ATOM     24  C   UNL     1      26.390  83.465  90.062  0.00  0.00    -0.096 C 
ATOM     25  H   UNL     1      26.063  85.383  90.844  0.00  0.00    -0.082 HD
ATOM     26  C   UNL     1      27.767  85.483  89.549  0.00  0.00    -0.064 C 
ATOM     27  C   UNL     1      27.709  87.027  89.378  0.00  0.00    +0.066 C 
ENDBRANCH  19  20
ENDBRANCH  18  19
ENDBRANCH  14  15
ENDBRANCH  12  13
TORSDOF 6
ENDMDL
MODEL 3
REMARK VINA RESULT:      -7.0     31.968     37.127
REMARK  Name = C:\Users\Docking\Desktop\test protocol\1iep_ligandH.pdb
REMARK  8 active torsions:
REMARK  status: ('A' for Active; 'I' for Inactive)
REMARK    1  A    between atoms: _5  and  _11
REMARK    2  A    between atoms: _19  and  _21
REMARK    3  A    between atoms: _22  and  _66
REMARK    4  A    between atoms: _27  and  _30
REMARK    5  A    between atoms: _32  and  _33
REMARK    6  A    between atoms: _38  and  _43
REMARK    7  A    between atoms: _43  and  _46
REMARK    8  A    between atoms: _53  and  _55
REMARK                            x       y       z     vdW  Elec       q    Type
REMARK                         _______ _______ _______ _____ _____    ______ ____
ROOT
ATOM     10  C   UNL     1      44.855  79.435 110.317  0.00  0.00    +0.038 A 
ATOM     11  C   UNL     1      45.287  80.753 110.611  0.00  0.00    +0.047 A 
ATOM     12  C   UNL     1      46.701  81.093 110.638  0.00  0.00    +0.035 A 
ATOM     32  C   UNL     1      47.649  80.065 110.357  0.00  0.00    +0.024 A 
ATOM     33  C   UNL     1      47.227  78.720 110.057  0.00  0.00    +0.007 A 
ATOM     34  C   UNL     1      45.833  78.378 110.032  0.00  0.00    -0.029 A 
ATOM     35  C   UNL     1      45.439  76.918 109.711  0.00  0.00    +0.045 C 
ENDROOT
BRANCH  10   9
ATOM      4  C   UNL     1      40.594  79.261 108.114  0.00  0.00    +0.077 A 
ATOM      5  C   UNL     1      41.138  79.779 106.892  0.00  0.00    +0.048 A 
ATOM      6  C   UNL     1      42.518  80.084 106.874  0.00  0.00    +0.116 A 
ATOM      7  N   UNL     1      43.286  79.882 108.000  0.00  0.00    -0.223 NA
ATOM      8  C   UNL     1      42.729  79.382 109.163  0.00  0.00    +0.220 A 
ATOM      9  N   UNL     1      43.485  79.164 110.305  0.00  0.00    -0.283 N 
ATOM     36  H   UNL     1      43.035  78.801 111.145  0.00  0.00    +0.155 HD
ATOM     37  N   UNL     1      41.414  79.085 109.206  0.00  0.00    -0.214 NA
BRANCH   4   3
ATOM      1  C   UNL     1      36.892  78.224 107.392  0.00  0.00    +0.020 A 
ATOM      2  C   UNL     1      38.275  78.579 107.169  0.00  0.00    +0.013 A 
ATOM      3  C   UNL     1      39.155  78.888 108.289  0.00  0.00    +0.019 A 
ATOM     38  C   UNL     1      38.600  78.828 109.633  0.00  0.00    +0.120 A 
ATOM     39  N   UNL     1      37.265  78.485 109.817  0.00  0.00    -0.263 NA
ATOM     40  C   UNL     1      36.408  78.187 108.747  0.00  0.00    +0.111 A 
ENDBRANCH   4   3
ENDBRANCH  10   9
BRANCH  12  13
ATOM     13  N   UNL     1      47.200  82.412 110.938  0.00  0.00    -0.281 N 
ATOM     14  C   UNL     1      47.759  83.331 110.064  0.00  0.00    +0.248 C 
ATOM     30  O   UNL     1      48.112  83.073 108.923  0.00  0.00    -0.270 OA
ATOM     31  H   UNL     1      47.133  82.705 111.913  0.00  0.00    +0.155 HD
BRANCH  14  15
ATOM     15  C   UNL     1      47.969  84.735 110.530  0.00  0.00    +0.037 A 
ATOM     16  C   UNL     1      48.894  85.043 111.624  0.00  0.00    +0.013 A 
ATOM     17  C   UNL     1      49.065  86.404 112.065  0.00  0.00    +0.005 A 
ATOM     18  C   UNL     1      48.310  87.469 111.410  0.00  0.00    -0.033 A 
ATOM     28  C   UNL     1      47.403  87.137 110.324  0.00  0.00    +0.005 A 
ATOM     29  C   UNL     1      47.232  85.803 109.890  0.00  0.00    +0.013 A 
BRANCH  18  19
ATOM     19  C   UNL     1      48.414  88.948 111.830  0.00  0.00    +0.119 C 
BRANCH  19  20
ATOM     20  N   UNL     1      47.182  89.592 112.376  0.00  0.00    -0.302 NA
ATOM     21  C   UNL     1      47.424  91.051 112.771  0.00  0.00    +0.066 C 
ATOM     22  C   UNL     1      46.120  91.717 113.319  0.00  0.00    -0.064 C 
ATOM     23  N   UNL     1      45.602  90.911 114.512  0.00  0.00    +0.379 N 
ATOM     24  C   UNL     1      44.408  91.566 115.066  0.00  0.00    -0.096 C 
ATOM     25  H   UNL     1      46.392  90.926 115.298  0.00  0.00    -0.082 HD
ATOM     26  C   UNL     1      45.361  89.458 114.128  0.00  0.00    -0.064 C 
ATOM     27  C   UNL     1      46.656  88.815 113.557  0.00  0.00    +0.066 C 
ENDBRANCH  19  20
ENDBRANCH  18  19
ENDBRANCH  14  15
ENDBRANCH  12  13
TORSDOF 6
ENDMDL
