MODEL 1
REMARK VINA RESULT:      -9.5      0.000      0.000
REMARK  Name = C:\Users\Docking\Desktop\test protocol\1iep_ligandH.pdb
REMARK  8 active torsions:
REMARK  status: ('A' for Active; 'I' for Inactive)
REMARK    1  A    between atoms: _5  and  _11
REMARK    2  A    between atoms: _19  and  _21
REMARK    3  A    between atoms: _22  and  _66
REMARK    4  A    between atoms: _27  and  _30
REMARK    5  A    between atoms: _32  and  _33
REMARK    6  A    between atoms: _38  and  _43
REMARK    7  A    between atoms: _43  and  _46
REMARK    8  A    between atoms: _53  and  _55
REMARK                            x       y       z     vdW  Elec       q    Type
REMARK                         _______ _______ _______ _____ _____    ______ ____
ROOT
ATOM     10  C   UNL     1      -6.133  30.998   6.525  0.00  0.00    +0.038 A 
ATOM     11  C   UNL     1      -5.648  30.117   7.524  0.00  0.00    +0.047 A 
ATOM     12  C   UNL     1      -6.495  29.077   8.087  0.00  0.00    +0.035 A 
ATOM     32  C   UNL     1      -7.833  28.963   7.607  0.00  0.00    +0.024 A 
ATOM     33  C   UNL     1      -8.343  29.851   6.592  0.00  0.00    +0.007 A 
ATOM     34  C   UNL     1      -7.512  30.880   6.035  0.00  0.00    -0.029 A 
ATOM     35  C   UNL     1      -8.114  31.808   4.955  0.00  0.00    +0.045 C 
ENDROOT
BRANCH  10   9
ATOM      4  C   UNL     1      -2.663  32.459   3.548  0.00  0.00    +0.077 A 
ATOM      5  C   UNL     1      -2.528  31.153   2.969  0.00  0.00    +0.048 A 
ATOM      6  C   UNL     1      -3.366  30.132   3.471  0.00  0.00    +0.116 A 
ATOM      7  N   UNL     1      -4.267  30.407   4.476  0.00  0.00    -0.223 NA
ATOM      8  C   UNL     1      -4.371  31.677   5.013  0.00  0.00    +0.220 A 
ATOM      9  N   UNL     1      -5.276  31.978   6.019  0.00  0.00    -0.283 N 
ATOM     36  H   UNL     1      -5.316  32.925   6.394  0.00  0.00    +0.155 HD
ATOM     37  N   UNL     1      -3.581  32.669   4.553  0.00  0.00    -0.214 NA
BRANCH   4   3
ATOM      1  C   UNL     1      -0.363  35.622   3.602  0.00  0.00    +0.020 A 
ATOM      2  C   UNL     1      -1.133  34.491   4.065  0.00  0.00    +0.013 A 
ATOM      3  C   UNL     1      -1.851  33.643   3.122  0.00  0.00    +0.019 A 
ATOM     38  C   UNL     1      -1.768  33.968   1.707  0.00  0.00    +0.120 A 
ATOM     39  N   UNL     1      -1.020  35.065   1.290  0.00  0.00    -0.263 NA
ATOM     40  C   UNL     1      -0.326  35.890   2.188  0.00  0.00    +0.111 A 
ENDBRANCH   4   3
ENDBRANCH  10   9
BRANCH  12  13
ATOM     13  N   UNL     1      -6.060  28.158   9.109  0.00  0.00    -0.281 N 
ATOM     14  C   UNL     1      -5.832  26.797   8.990  0.00  0.00    +0.248 C 
ATOM     30  O   UNL     1      -6.175  26.120   8.032  0.00  0.00    -0.270 OA
ATOM     31  H   UNL     1      -5.901  28.560  10.033  0.00  0.00    +0.155 HD
BRANCH  14  15
ATOM     15  C   UNL     1      -5.135  26.081  10.101  0.00  0.00    +0.037 A 
ATOM     16  C   UNL     1      -4.843  26.751  11.371  0.00  0.00    +0.013 A 
ATOM     17  C   UNL     1      -4.154  26.043  12.421  0.00  0.00    +0.005 A 
ATOM     18  C   UNL     1      -3.753  24.655  12.204  0.00  0.00    -0.033 A 
ATOM     28  C   UNL     1      -4.060  24.013  10.937  0.00  0.00    +0.005 A 
ATOM     29  C   UNL     1      -4.734  24.704   9.906  0.00  0.00    +0.013 A 
BRANCH  18  19
ATOM     19  C   UNL     1      -2.995  23.829  13.261  0.00  0.00    +0.119 C 
BRANCH  19  20
ATOM     20  N   UNL     1      -1.703  23.207  12.845  0.00  0.00    -0.302 NA
ATOM     21  C   UNL     1      -1.257  22.107  13.811  0.00  0.00    +0.066 C 
ATOM     22  C   UNL     1       0.085  21.452  13.349  0.00  0.00    -0.064 C 
ATOM     23  N   UNL     1       1.160  22.533  13.225  0.00  0.00    +0.379 N 
ATOM     24  C   UNL     1       2.438  21.912  12.846  0.00  0.00    -0.096 C 
ATOM     25  H   UNL     1       1.293  22.994  14.231  0.00  0.00    -0.082 HD
ATOM     26  C   UNL     1       0.724  23.632  12.267  0.00  0.00    -0.064 C 
ATOM     27  C   UNL     1      -0.625  24.256  12.720  0.00  0.00    +0.066 C 
ENDBRANCH  19  20
ENDBRANCH  18  19
ENDBRANCH  14  15
ENDBRANCH  12  13
TORSDOF 6
ENDMDL
MODEL 2
REMARK VINA RESULT:      -8.9      7.066     13.822
REMARK  Name = C:\Users\Docking\Desktop\test protocol\1iep_ligandH.pdb
REMARK  8 active torsions:
REMARK  status: ('A' for Active; 'I' for Inactive)
REMARK    1  A    between atoms: _5  and  _11
REMARK    2  A    between atoms: _19  and  _21
REMARK    3  A    between atoms: _22  and  _66
REMARK    4  A    between atoms: _27  and  _30
REMARK    5  A    between atoms: _32  and  _33
REMARK    6  A    between atoms: _38  and  _43
REMARK    7  A    between atoms: _43  and  _46
REMARK    8  A    between atoms: _53  and  _55
REMARK                            x       y       z     vdW  Elec       q    Type
REMARK                         _______ _______ _______ _____ _____    ______ ____
ROOT
ATOM     10  C   UNL     1       5.695  19.580   9.352  0.00  0.00    +0.038 A 
ATOM     11  C   UNL     1       4.519  20.179   9.871  0.00  0.00    +0.047 A 
ATOM     12  C   UNL     1       4.331  20.350  11.303  0.00  0.00    +0.035 A 
ATOM     32  C   UNL     1       5.363  19.900  12.179  0.00  0.00    +0.024 A 
ATOM     33  C   UNL     1       6.564  19.288  11.668  0.00  0.00    +0.007 A 
ATOM     34  C   UNL     1       6.754  19.115  10.256  0.00  0.00    -0.029 A 
ATOM     35  C   UNL     1       8.059  18.446   9.765  0.00  0.00    +0.045 C 
ENDROOT
BRANCH  10   9
ATOM      4  C   UNL     1       4.836  17.274   5.231  0.00  0.00    +0.077 A 
ATOM      5  C   UNL     1       4.090  16.243   5.895  0.00  0.00    +0.048 A 
ATOM      6  C   UNL     1       3.957  16.340   7.298  0.00  0.00    +0.116 A 
ATOM      7  N   UNL     1       4.531  17.393   7.977  0.00  0.00    -0.223 NA
ATOM      8  C   UNL     1       5.245  18.369   7.307  0.00  0.00    +0.220 A 
ATOM      9  N   UNL     1       5.824  19.441   7.968  0.00  0.00    -0.283 N 
ATOM     36  H   UNL     1       6.349  20.137   7.438  0.00  0.00    +0.155 HD
ATOM     37  N   UNL     1       5.388  18.299   5.967  0.00  0.00    -0.214 NA
BRANCH   4   3
ATOM      1  C   UNL     1       5.541  18.529   1.594  0.00  0.00    +0.020 A 
ATOM      2  C   UNL     1       5.330  18.546   3.024  0.00  0.00    +0.013 A 
ATOM      3  C   UNL     1       5.061  17.313   3.752  0.00  0.00    +0.019 A 
ATOM     38  C   UNL     1       5.013  16.069   2.998  0.00  0.00    +0.120 A 
ATOM     39  N   UNL     1       5.219  16.083   1.622  0.00  0.00    -0.263 NA
ATOM     40  C   UNL     1       5.477  17.264   0.911  0.00  0.00    +0.111 A 
ENDBRANCH   4   3
ENDBRANCH  10   9
BRANCH  12  13
ATOM     13  N   UNL     1       3.155  20.944  11.889  0.00  0.00    -0.281 N 
ATOM     14  C   UNL     1       2.967  22.262  12.272  0.00  0.00    +0.248 C 
ATOM     30  O   UNL     1       3.862  23.088  12.366  0.00  0.00    -0.270 OA
ATOM     31  H   UNL     1       2.365  20.316  12.040  0.00  0.00    +0.155 HD
BRANCH  14  15
ATOM     15  C   UNL     1       1.588  22.725  12.614  0.00  0.00    +0.037 A 
ATOM     16  C   UNL     1       0.601  21.810  13.193  0.00  0.00    +0.013 A 
ATOM     17  C   UNL     1      -0.728  22.278  13.497  0.00  0.00    +0.005 A 
ATOM     18  C   UNL     1      -1.077  23.670  13.224  0.00  0.00    -0.033 A 
ATOM     28  C   UNL     1      -0.076  24.558  12.655  0.00  0.00    +0.005 A 
ATOM     29  C   UNL     1       1.227  24.102  12.354  0.00  0.00    +0.013 A 
BRANCH  18  19
ATOM     19  C   UNL     1      -2.477  24.251  13.498  0.00  0.00    +0.119 C 
BRANCH  19  20
ATOM     20  N   UNL     1      -3.209  24.844  12.340  0.00  0.00    -0.302 NA
ATOM     21  C   UNL     1      -4.167  25.957  12.775  0.00  0.00    +0.066 C 
ATOM     22  C   UNL     1      -4.908  26.582  11.548  0.00  0.00    -0.064 C 
ATOM     23  N   UNL     1      -5.661  25.483  10.796  0.00  0.00    +0.379 N 
ATOM     24  C   UNL     1      -6.405  26.077   9.676  0.00  0.00    -0.096 C 
ATOM     25  H   UNL     1      -6.403  25.040  11.500  0.00  0.00    -0.082 HD
ATOM     26  C   UNL     1      -4.716  24.371  10.362  0.00  0.00    -0.064 C 
ATOM     27  C   UNL     1      -3.963  23.777  11.585  0.00  0.00    +0.066 C 
ENDBRANCH  19  20
ENDBRANCH  18  19
ENDBRANCH  14  15
ENDBRANCH  12  13
TORSDOF 6
ENDMDL
MODEL 3
REMARK VINA RESULT:      -8.8      5.562     10.383
REMARK  Name = C:\Users\Docking\Desktop\test protocol\1iep_ligandH.pdb
REMARK  8 active torsions:
REMARK  status: ('A' for Active; 'I' for Inactive)
REMARK    1  A    between atoms: _5  and  _11
REMARK    2  A    between atoms: _19  and  _21
REMARK    3  A    between atoms: _22  and  _66
REMARK    4  A    between atoms: _27  and  _30
REMARK    5  A    between atoms: _32  and  _33
REMARK    6  A    between atoms: _38  and  _43
REMARK    7  A    between atoms: _43  and  _46
REMARK    8  A    between atoms: _53  and  _55
REMARK                            x       y       z     vdW  Elec       q    Type
REMARK                         _______ _______ _______ _____ _____    ______ ____
ROOT
ATOM     10  C   UNL     1      -2.251  24.804  13.298  0.00  0.00    +0.038 A 
ATOM     11  C   UNL     1      -1.194  24.018  12.774  0.00  0.00    +0.047 A 
ATOM     12  C   UNL     1      -0.378  23.180  13.639  0.00  0.00    +0.035 A 
ATOM     32  C   UNL     1      -0.668  23.165  15.034  0.00  0.00    +0.024 A 
ATOM     33  C   UNL     1      -1.739  23.959  15.585  0.00  0.00    +0.007 A 
ATOM     34  C   UNL     1      -2.546  24.789  14.736  0.00  0.00    -0.029 A 
ATOM     35  C   UNL     1      -3.676  25.623  15.382  0.00  0.00    +0.045 C 
ENDROOT
BRANCH  10   9
ATOM      4  C   UNL     1      -5.774  25.376  10.089  0.00  0.00    +0.077 A 
ATOM      5  C   UNL     1      -6.130  23.987  10.143  0.00  0.00    +0.048 A 
ATOM      6  C   UNL     1      -5.376  23.158  11.004  0.00  0.00    +0.116 A 
ATOM      7  N   UNL     1      -4.347  23.689  11.751  0.00  0.00    -0.223 NA
ATOM      8  C   UNL     1      -4.029  25.032  11.674  0.00  0.00    +0.220 A 
ATOM      9  N   UNL     1      -3.003  25.589  12.422  0.00  0.00    -0.283 N 
ATOM     36  H   UNL     1      -2.796  26.583  12.331  0.00  0.00    +0.155 HD
ATOM     37  N   UNL     1      -4.733  25.845  10.858  0.00  0.00    -0.214 NA
BRANCH   4   3
ATOM      1  C   UNL     1      -6.811  28.715   8.333  0.00  0.00    +0.020 A 
ATOM      2  C   UNL     1      -6.098  27.786   9.181  0.00  0.00    +0.013 A 
ATOM      3  C   UNL     1      -6.478  26.380   9.230  0.00  0.00    +0.019 A 
ATOM     38  C   UNL     1      -7.592  25.942   8.402  0.00  0.00    +0.120 A 
ATOM     39  N   UNL     1      -8.261  26.859   7.597  0.00  0.00    -0.263 NA
ATOM     40  C   UNL     1      -7.905  28.215   7.543  0.00  0.00    +0.111 A 
ENDBRANCH   4   3
ENDBRANCH  10   9
BRANCH  12  13
ATOM     13  N   UNL     1       0.715  22.367  13.164  0.00  0.00    -0.281 N 
ATOM     14  C   UNL     1       1.909  22.789  12.602  0.00  0.00    +0.248 C 
ATOM     30  O   UNL     1       2.130  23.930  12.225  0.00  0.00    -0.270 OA
ATOM     31  H   UNL     1       0.592  21.358  13.253  0.00  0.00    +0.155 HD
BRANCH  14  15
ATOM     15  C   UNL     1       3.011  21.796  12.420  0.00  0.00    +0.037 A 
ATOM     16  C   UNL     1       2.789  20.365  12.642  0.00  0.00    +0.013 A 
ATOM     17  C   UNL     1       3.874  19.431  12.476  0.00  0.00    +0.005 A 
ATOM     18  C   UNL     1       5.192  19.926  12.084  0.00  0.00    -0.033 A 
ATOM     28  C   UNL     1       5.383  21.350  11.865  0.00  0.00    +0.005 A 
ATOM     29  C   UNL     1       4.322  22.269  12.028  0.00  0.00    +0.013 A 
BRANCH  18  19
ATOM     19  C   UNL     1       6.412  19.003  11.904  0.00  0.00    +0.119 C 
BRANCH  19  20
ATOM     20  N   UNL     1       6.457  18.161  10.671  0.00  0.00    -0.302 NA
ATOM     21  C   UNL     1       7.774  17.389  10.551  0.00  0.00    +0.066 C 
ATOM     22  C   UNL     1       7.795  16.496   9.268  0.00  0.00    -0.064 C 
ATOM     23  N   UNL     1       7.567  17.373   8.036  0.00  0.00    +0.379 N 
ATOM     24  C   UNL     1       7.644  16.546   6.823  0.00  0.00    -0.096 C 
ATOM     25  H   UNL     1       8.398  18.116   7.992  0.00  0.00    -0.082 HD
ATOM     26  C   UNL     1       6.261  18.147   8.148  0.00  0.00    -0.064 C 
ATOM     27  C   UNL     1       6.239  19.009   9.442  0.00  0.00    +0.066 C 
ENDBRANCH  19  20
ENDBRANCH  18  19
ENDBRANCH  14  15
ENDBRANCH  12  13
TORSDOF 6
ENDMDL
