MODEL 1
REMARK VINA RESULT:     -11.1      0.000      0.000
REMARK  Name = C:\Users\Docking\Desktop\test protocol\1iep_ligandH.pdb
REMARK  8 active torsions:
REMARK  status: ('A' for Active; 'I' for Inactive)
REMARK    1  A    between atoms: _5  and  _11
REMARK    2  A    between atoms: _19  and  _21
REMARK    3  A    between atoms: _22  and  _66
REMARK    4  A    between atoms: _27  and  _30
REMARK    5  A    between atoms: _32  and  _33
REMARK    6  A    between atoms: _38  and  _43
REMARK    7  A    between atoms: _43  and  _46
REMARK    8  A    between atoms: _53  and  _55
REMARK                            x       y       z     vdW  Elec       q    Type
REMARK                         _______ _______ _______ _____ _____    ______ ____
ROOT
ATOM     10  C   UNL     1      28.186  58.786  52.119  0.00  0.00    +0.038 A 
ATOM     11  C   UNL     1      27.624  58.975  53.408  0.00  0.00    +0.047 A 
ATOM     12  C   UNL     1      27.833  60.211  54.146  0.00  0.00    +0.035 A 
ATOM     32  C   UNL     1      28.619  61.235  53.540  0.00  0.00    +0.024 A 
ATOM     33  C   UNL     1      29.199  61.059  52.232  0.00  0.00    +0.007 A 
ATOM     34  C   UNL     1      28.997  59.841  51.500  0.00  0.00    -0.029 A 
ATOM     35  C   UNL     1      29.648  59.705  50.104  0.00  0.00    +0.045 C 
ENDROOT
BRANCH  10   9
ATOM      4  C   UNL     1      25.667  56.036  49.097  0.00  0.00    +0.077 A 
ATOM      5  C   UNL     1      24.720  57.083  48.840  0.00  0.00    +0.048 A 
ATOM      6  C   UNL     1      24.913  58.312  49.511  0.00  0.00    +0.116 A 
ATOM      7  N   UNL     1      25.977  58.470  50.372  0.00  0.00    -0.223 NA
ATOM      8  C   UNL     1      26.871  57.440  50.599  0.00  0.00    +0.220 A 
ATOM      9  N   UNL     1      27.952  57.580  51.455  0.00  0.00    -0.283 N 
ATOM     36  H   UNL     1      28.585  56.793  51.602  0.00  0.00    +0.155 HD
ATOM     37  N   UNL     1      26.708  56.256  49.972  0.00  0.00    -0.214 NA
BRANCH   4   3
ATOM      1  C   UNL     1      24.800  53.086  46.680  0.00  0.00    +0.020 A 
ATOM      2  C   UNL     1      24.831  54.412  47.253  0.00  0.00    +0.013 A 
ATOM      3  C   UNL     1      25.599  54.682  48.462  0.00  0.00    +0.019 A 
ATOM     38  C   UNL     1      26.331  53.581  49.070  0.00  0.00    +0.120 A 
ATOM     39  N   UNL     1      26.281  52.315  48.496  0.00  0.00    -0.263 NA
ATOM     40  C   UNL     1      25.544  52.042  47.334  0.00  0.00    +0.111 A 
ENDBRANCH   4   3
ENDBRANCH  10   9
BRANCH  12  13
ATOM     13  N   UNL     1      27.295  60.457  55.461  0.00  0.00    -0.281 N 
ATOM     14  C   UNL     1      25.979  60.337  55.878  0.00  0.00    +0.248 C 
ATOM     30  O   UNL     1      25.025  60.206  55.126  0.00  0.00    -0.270 OA
ATOM     31  H   UNL     1      27.965  60.755  56.170  0.00  0.00    +0.155 HD
BRANCH  14  15
ATOM     15  C   UNL     1      25.679  60.386  57.341  0.00  0.00    +0.037 A 
ATOM     16  C   UNL     1      26.253  59.407  58.268  0.00  0.00    +0.013 A 
ATOM     17  C   UNL     1      25.933  59.465  59.672  0.00  0.00    +0.005 A 
ATOM     18  C   UNL     1      25.035  60.509  60.159  0.00  0.00    -0.033 A 
ATOM     28  C   UNL     1      24.483  61.471  59.219  0.00  0.00    +0.005 A 
ATOM     29  C   UNL     1      24.793  61.416  57.841  0.00  0.00    +0.013 A 
BRANCH  18  19
ATOM     19  C   UNL     1      24.622  60.635  61.637  0.00  0.00    +0.119 C 
BRANCH  19  20
ATOM     20  N   UNL     1      23.465  59.809  62.097  0.00  0.00    -0.302 NA
ATOM     21  C   UNL     1      23.910  58.641  62.981  0.00  0.00    +0.066 C 
ATOM     22  C   UNL     1      22.686  57.800  63.471  0.00  0.00    -0.064 C 
ATOM     23  N   UNL     1      21.900  57.295  62.260  0.00  0.00    +0.379 N 
ATOM     24  C   UNL     1      20.782  56.456  62.716  0.00  0.00    -0.096 C 
ATOM     25  H   UNL     1      22.583  56.650  61.659  0.00  0.00    -0.082 HD
ATOM     26  C   UNL     1      21.457  58.450  61.374  0.00  0.00    -0.064 C 
ATOM     27  C   UNL     1      22.678  59.296  60.916  0.00  0.00    +0.066 C 
ENDBRANCH  19  20
ENDBRANCH  18  19
ENDBRANCH  14  15
ENDBRANCH  12  13
TORSDOF 6
ENDMDL
MODEL 2
REMARK VINA RESULT:     -10.8      2.066      2.835
REMARK  Name = C:\Users\Docking\Desktop\test protocol\1iep_ligandH.pdb
REMARK  8 active torsions:
REMARK  status: ('A' for Active; 'I' for Inactive)
REMARK    1  A    between atoms: _5  and  _11
REMARK    2  A    between atoms: _19  and  _21
REMARK    3  A    between atoms: _22  and  _66
REMARK    4  A    between atoms: _27  and  _30
REMARK    5  A    between atoms: _32  and  _33
REMARK    6  A    between atoms: _38  and  _43
REMARK    7  A    between atoms: _43  and  _46
REMARK    8  A    between atoms: _53  and  _55
REMARK                            x       y       z     vdW  Elec       q    Type
REMARK                         _______ _______ _______ _____ _____    ______ ____
ROOT
ATOM     10  C   UNL     1      28.077  58.836  52.654  0.00  0.00    +0.038 A 
ATOM     11  C   UNL     1      27.397  59.171  53.853  0.00  0.00    +0.047 A 
ATOM     12  C   UNL     1      27.694  60.403  54.567  0.00  0.00    +0.035 A 
ATOM     32  C   UNL     1      28.687  61.272  54.031  0.00  0.00    +0.024 A 
ATOM     33  C   UNL     1      29.389  60.947  52.814  0.00  0.00    +0.007 A 
ATOM     34  C   UNL     1      29.103  59.732  52.106  0.00  0.00    -0.029 A 
ATOM     35  C   UNL     1      29.891  59.432  50.810  0.00  0.00    +0.045 C 
ENDROOT
BRANCH  10   9
ATOM      4  C   UNL     1      25.856  56.362  49.192  0.00  0.00    +0.077 A 
ATOM      5  C   UNL     1      25.270  57.549  48.638  0.00  0.00    +0.048 A 
ATOM      6  C   UNL     1      25.560  58.775  49.278  0.00  0.00    +0.116 A 
ATOM      7  N   UNL     1      26.376  58.801  50.388  0.00  0.00    -0.223 NA
ATOM      8  C   UNL     1      26.923  57.637  50.898  0.00  0.00    +0.220 A 
ATOM      9  N   UNL     1      27.752  57.641  52.009  0.00  0.00    -0.283 N 
ATOM     36  H   UNL     1      28.130  56.760  52.359  0.00  0.00    +0.155 HD
ATOM     37  N   UNL     1      26.660  56.454  50.306  0.00  0.00    -0.214 NA
BRANCH   4   3
ATOM      1  C   UNL     1      24.569  53.380  47.013  0.00  0.00    +0.020 A 
ATOM      2  C   UNL     1      24.734  54.721  47.522  0.00  0.00    +0.013 A 
ATOM      3  C   UNL     1      25.646  54.992  48.627  0.00  0.00    +0.019 A 
ATOM     38  C   UNL     1      26.381  53.874  49.198  0.00  0.00    +0.120 A 
ATOM     39  N   UNL     1      26.200  52.592  48.688  0.00  0.00    -0.263 NA
ATOM     40  C   UNL     1      25.324  52.319  47.626  0.00  0.00    +0.111 A 
ENDBRANCH   4   3
ENDBRANCH  10   9
BRANCH  12  13
ATOM     13  N   UNL     1      27.041  60.791  55.793  0.00  0.00    -0.281 N 
ATOM     14  C   UNL     1      25.704  60.654  56.127  0.00  0.00    +0.248 C 
ATOM     30  O   UNL     1      24.819  60.369  55.333  0.00  0.00    -0.270 OA
ATOM     31  H   UNL     1      27.638  61.220  56.501  0.00  0.00    +0.155 HD
BRANCH  14  15
ATOM     15  C   UNL     1      25.286  60.881  57.544  0.00  0.00    +0.037 A 
ATOM     16  C   UNL     1      25.272  62.225  58.126  0.00  0.00    +0.013 A 
ATOM     17  C   UNL     1      24.881  62.414  59.501  0.00  0.00    +0.005 A 
ATOM     18  C   UNL     1      24.500  61.254  60.302  0.00  0.00    -0.033 A 
ATOM     28  C   UNL     1      24.518  59.932  59.698  0.00  0.00    +0.005 A 
ATOM     29  C   UNL     1      24.901  59.743  58.351  0.00  0.00    +0.013 A 
BRANCH  18  19
ATOM     19  C   UNL     1      24.089  61.359  61.783  0.00  0.00    +0.119 C 
BRANCH  19  20
ATOM     20  N   UNL     1      23.272  62.543  62.184  0.00  0.00    -0.302 NA
ATOM     21  C   UNL     1      24.113  63.607  62.896  0.00  0.00    +0.066 C 
ATOM     22  C   UNL     1      23.247  64.848  63.288  0.00  0.00    -0.064 C 
ATOM     23  N   UNL     1      22.083  64.396  64.172  0.00  0.00    +0.379 N 
ATOM     24  C   UNL     1      21.300  65.568  64.590  0.00  0.00    -0.096 C 
ATOM     25  H   UNL     1      22.516  63.933  65.089  0.00  0.00    -0.082 HD
ATOM     26  C   UNL     1      21.244  63.336  63.473  0.00  0.00    -0.064 C 
ATOM     27  C   UNL     1      22.120  62.120  63.061  0.00  0.00    +0.066 C 
ENDBRANCH  19  20
ENDBRANCH  18  19
ENDBRANCH  14  15
ENDBRANCH  12  13
TORSDOF 6
ENDMDL
MODEL 3
REMARK VINA RESULT:     -10.3      2.149      2.575
REMARK  Name = C:\Users\Docking\Desktop\test protocol\1iep_ligandH.pdb
REMARK  8 active torsions:
REMARK  status: ('A' for Active; 'I' for Inactive)
REMARK    1  A    between atoms: _5  and  _11
REMARK    2  A    between atoms: _19  and  _21
REMARK    3  A    between atoms: _22  and  _66
REMARK    4  A    between atoms: _27  and  _30
REMARK    5  A    between atoms: _32  and  _33
REMARK    6  A    between atoms: _38  and  _43
REMARK    7  A    between atoms: _43  and  _46
REMARK    8  A    between atoms: _53  and  _55
REMARK                            x       y       z     vdW  Elec       q    Type
REMARK                         _______ _______ _______ _____ _____    ______ ____
ROOT
ATOM     10  C   UNL     1      28.089  58.823  52.505  0.00  0.00    +0.038 A 
ATOM     11  C   UNL     1      27.310  59.297  53.591  0.00  0.00    +0.047 A 
ATOM     12  C   UNL     1      27.623  60.556  54.248  0.00  0.00    +0.035 A 
ATOM     32  C   UNL     1      28.736  61.309  53.771  0.00  0.00    +0.024 A 
ATOM     33  C   UNL     1      29.539  60.841  52.668  0.00  0.00    +0.007 A 
ATOM     34  C   UNL     1      29.236  59.599  52.018  0.00  0.00    -0.029 A 
ATOM     35  C   UNL     1      30.135  59.143  50.845  0.00  0.00    +0.045 C 
ENDROOT
BRANCH  10   9
ATOM      4  C   UNL     1      25.879  56.247  49.110  0.00  0.00    +0.077 A 
ATOM      5  C   UNL     1      25.346  57.422  48.483  0.00  0.00    +0.048 A 
ATOM      6  C   UNL     1      25.658  58.669  49.069  0.00  0.00    +0.116 A 
ATOM      7  N   UNL     1      26.446  58.725  50.198  0.00  0.00    -0.223 NA
ATOM      8  C   UNL     1      26.942  57.573  50.779  0.00  0.00    +0.220 A 
ATOM      9  N   UNL     1      27.743  57.607  51.911  0.00  0.00    -0.283 N 
ATOM     36  H   UNL     1      28.083  56.734  52.314  0.00  0.00    +0.155 HD
ATOM     37  N   UNL     1      26.657  56.370  50.240  0.00  0.00    -0.214 NA
BRANCH   4   3
ATOM      1  C   UNL     1      24.515  53.194  47.081  0.00  0.00    +0.020 A 
ATOM      2  C   UNL     1      24.708  54.554  47.529  0.00  0.00    +0.013 A 
ATOM      3  C   UNL     1      25.640  54.857  48.608  0.00  0.00    +0.019 A 
ATOM     38  C   UNL     1      26.367  53.753  49.216  0.00  0.00    +0.120 A 
ATOM     39  N   UNL     1      26.160  52.454  48.765  0.00  0.00    -0.263 NA
ATOM     40  C   UNL     1      25.264  52.149  47.728  0.00  0.00    +0.111 A 
ENDBRANCH   4   3
ENDBRANCH  10   9
BRANCH  12  13
ATOM     13  N   UNL     1      26.874  61.085  55.361  0.00  0.00    -0.281 N 
ATOM     14  C   UNL     1      27.328  61.360  56.640  0.00  0.00    +0.248 C 
ATOM     30  O   UNL     1      28.405  60.991  57.085  0.00  0.00    -0.270 OA
ATOM     31  H   UNL     1      25.888  61.279  55.184  0.00  0.00    +0.155 HD
BRANCH  14  15
ATOM     15  C   UNL     1      26.455  62.146  57.563  0.00  0.00    +0.037 A 
ATOM     16  C   UNL     1      26.883  63.443  58.093  0.00  0.00    +0.013 A 
ATOM     17  C   UNL     1      26.028  64.174  58.996  0.00  0.00    +0.005 A 
ATOM     18  C   UNL     1      24.735  63.608  59.372  0.00  0.00    -0.033 A 
ATOM     28  C   UNL     1      24.333  62.322  58.827  0.00  0.00    +0.005 A 
ATOM     29  C   UNL     1      25.169  61.603  57.944  0.00  0.00    +0.013 A 
BRANCH  18  19
ATOM     19  C   UNL     1      23.768  64.307  60.346  0.00  0.00    +0.119 C 
BRANCH  19  20
ATOM     20  N   UNL     1      23.665  63.749  61.727  0.00  0.00    -0.302 NA
ATOM     21  C   UNL     1      24.883  62.896  62.094  0.00  0.00    +0.066 C 
ATOM     22  C   UNL     1      24.769  62.338  63.550  0.00  0.00    -0.064 C 
ATOM     23  N   UNL     1      23.480  61.526  63.683  0.00  0.00    +0.379 N 
ATOM     24  C   UNL     1      23.399  60.952  65.034  0.00  0.00    -0.096 C 
ATOM     25  H   UNL     1      23.537  60.680  62.959  0.00  0.00    -0.082 HD
ATOM     26  C   UNL     1      22.264  62.365  63.317  0.00  0.00    -0.064 C 
ATOM     27  C   UNL     1      22.400  62.939  61.879  0.00  0.00    +0.066 C 
ENDBRANCH  19  20
ENDBRANCH  18  19
ENDBRANCH  14  15
ENDBRANCH  12  13
TORSDOF 6
ENDMDL
MODEL 4
REMARK VINA RESULT:     -10.2      2.924      4.041
REMARK  Name = C:\Users\Docking\Desktop\test protocol\1iep_ligandH.pdb
REMARK  8 active torsions:
REMARK  status: ('A' for Active; 'I' for Inactive)
REMARK    1  A    between atoms: _5  and  _11
REMARK    2  A    between atoms: _19  and  _21
REMARK    3  A    between atoms: _22  and  _66
REMARK    4  A    between atoms: _27  and  _30
REMARK    5  A    between atoms: _32  and  _33
REMARK    6  A    between atoms: _38  and  _43
REMARK    7  A    between atoms: _43  and  _46
REMARK    8  A    between atoms: _53  and  _55
REMARK                            x       y       z     vdW  Elec       q    Type
REMARK                         _______ _______ _______ _____ _____    ______ ____
ROOT
ATOM     10  C   UNL     1      27.950  58.877  52.719  0.00  0.00    +0.038 A 
ATOM     11  C   UNL     1      27.168  59.321  53.816  0.00  0.00    +0.047 A 
ATOM     12  C   UNL     1      27.472  60.567  54.502  0.00  0.00    +0.035 A 
ATOM     32  C   UNL     1      28.579  61.338  54.042  0.00  0.00    +0.024 A 
ATOM     33  C   UNL     1      29.386  60.901  52.929  0.00  0.00    +0.007 A 
ATOM     34  C   UNL     1      29.092  59.671  52.251  0.00  0.00    -0.029 A 
ATOM     35  C   UNL     1      29.994  59.249  51.068  0.00  0.00    +0.045 C 
ENDROOT
BRANCH  10   9
ATOM      4  C   UNL     1      25.914  56.371  49.168  0.00  0.00    +0.077 A 
ATOM      5  C   UNL     1      25.460  57.562  48.509  0.00  0.00    +0.048 A 
ATOM      6  C   UNL     1      25.765  58.798  49.120  0.00  0.00    +0.116 A 
ATOM      7  N   UNL     1      26.472  58.830  50.302  0.00  0.00    -0.223 NA
ATOM      8  C   UNL     1      26.894  57.663  50.913  0.00  0.00    +0.220 A 
ATOM      9  N   UNL     1      27.613  57.672  52.098  0.00  0.00    -0.283 N 
ATOM     36  H   UNL     1      27.899  56.789  52.520  0.00  0.00    +0.155 HD
ATOM     37  N   UNL     1      26.614  56.470  50.350  0.00  0.00    -0.214 NA
BRANCH   4   3
ATOM      1  C   UNL     1      24.565  53.355  47.073  0.00  0.00    +0.020 A 
ATOM      2  C   UNL     1      24.762  54.708  47.541  0.00  0.00    +0.013 A 
ATOM      3  C   UNL     1      25.672  54.989  48.644  0.00  0.00    +0.019 A 
ATOM     38  C   UNL     1      26.373  53.871  49.257  0.00  0.00    +0.120 A 
ATOM     39  N   UNL     1      26.162  52.579  48.786  0.00  0.00    -0.263 NA
ATOM     40  C   UNL     1      25.288  52.296  47.726  0.00  0.00    +0.111 A 
ENDBRANCH   4   3
ENDBRANCH  10   9
BRANCH  12  13
ATOM     13  N   UNL     1      26.719  61.065  55.626  0.00  0.00    -0.281 N 
ATOM     14  C   UNL     1      26.870  60.740  56.964  0.00  0.00    +0.248 C 
ATOM     30  O   UNL     1      27.541  59.805  57.376  0.00  0.00    -0.270 OA
ATOM     31  H   UNL     1      25.984  61.738  55.409  0.00  0.00    +0.155 HD
BRANCH  14  15
ATOM     15  C   UNL     1      26.164  61.563  57.991  0.00  0.00    +0.037 A 
ATOM     16  C   UNL     1      26.432  62.997  58.131  0.00  0.00    +0.013 A 
ATOM     17  C   UNL     1      25.749  63.765  59.142  0.00  0.00    +0.005 A 
ATOM     18  C   UNL     1      24.790  63.100  60.021  0.00  0.00    -0.033 A 
ATOM     28  C   UNL     1      24.539  61.677  59.857  0.00  0.00    +0.005 A 
ATOM     29  C   UNL     1      25.208  60.921  58.868  0.00  0.00    +0.013 A 
BRANCH  18  19
ATOM     19  C   UNL     1      24.031  63.836  61.141  0.00  0.00    +0.119 C 
BRANCH  19  20
ATOM     20  N   UNL     1      24.807  64.810  61.967  0.00  0.00    -0.302 NA
ATOM     21  C   UNL     1      25.008  64.314  63.401  0.00  0.00    +0.066 C 
ATOM     22  C   UNL     1      25.840  65.334  64.245  0.00  0.00    -0.064 C 
ATOM     23  N   UNL     1      25.138  66.693  64.234  0.00  0.00    +0.379 N 
ATOM     24  C   UNL     1      25.887  67.639  65.074  0.00  0.00    -0.096 C 
ATOM     25  H   UNL     1      24.131  66.556  64.694  0.00  0.00    -0.082 HD
ATOM     26  C   UNL     1      24.931  67.192  62.811  0.00  0.00    -0.064 C 
ATOM     27  C   UNL     1      24.129  66.157  61.974  0.00  0.00    +0.066 C 
ENDBRANCH  19  20
ENDBRANCH  18  19
ENDBRANCH  14  15
ENDBRANCH  12  13
TORSDOF 6
ENDMDL
MODEL 5
REMARK VINA RESULT:      -9.4      1.571      2.208
REMARK  Name = C:\Users\Docking\Desktop\test protocol\1iep_ligandH.pdb
REMARK  8 active torsions:
REMARK  status: ('A' for Active; 'I' for Inactive)
REMARK    1  A    between atoms: _5  and  _11
REMARK    2  A    between atoms: _19  and  _21
REMARK    3  A    between atoms: _22  and  _66
REMARK    4  A    between atoms: _27  and  _30
REMARK    5  A    between atoms: _32  and  _33
REMARK    6  A    between atoms: _38  and  _43
REMARK    7  A    between atoms: _43  and  _46
REMARK    8  A    between atoms: _53  and  _55
REMARK                            x       y       z     vdW  Elec       q    Type
REMARK                         _______ _______ _______ _____ _____    ______ ____
ROOT
ATOM     10  C   UNL     1      28.799  59.493  53.282  0.00  0.00    +0.038 A 
ATOM     11  C   UNL     1      28.168  59.740  54.529  0.00  0.00    +0.047 A 
ATOM     12  C   UNL     1      28.530  60.891  55.341  0.00  0.00    +0.035 A 
ATOM     32  C   UNL     1      29.537  61.773  54.851  0.00  0.00    +0.024 A 
ATOM     33  C   UNL     1      30.189  61.538  53.587  0.00  0.00    +0.007 A 
ATOM     34  C   UNL     1      29.838  60.402  52.783  0.00  0.00    -0.029 A 
ATOM     35  C   UNL     1      30.575  60.195  51.439  0.00  0.00    +0.045 C 
ENDROOT
BRANCH  10   9
ATOM      4  C   UNL     1      26.156  57.367  49.887  0.00  0.00    +0.077 A 
ATOM      5  C   UNL     1      25.467  58.586  49.577  0.00  0.00    +0.048 A 
ATOM      6  C   UNL     1      25.817  59.737  50.319  0.00  0.00    +0.116 A 
ATOM      7  N   UNL     1      26.786  59.662  51.296  0.00  0.00    -0.223 NA
ATOM      8  C   UNL     1      27.430  58.469  51.571  0.00  0.00    +0.220 A 
ATOM      9  N   UNL     1      28.413  58.373  52.544  0.00  0.00    -0.283 N 
ATOM     36  H   UNL     1      28.859  57.473  52.722  0.00  0.00    +0.155 HD
ATOM     37  N   UNL     1      27.112  57.356  50.877  0.00  0.00    -0.214 NA
BRANCH   4   3
ATOM      1  C   UNL     1      24.760  54.661  47.431  0.00  0.00    +0.020 A 
ATOM      2  C   UNL     1      24.971  55.939  48.072  0.00  0.00    +0.013 A 
ATOM      3  C   UNL     1      25.899  56.068  49.188  0.00  0.00    +0.019 A 
ATOM     38  C   UNL     1      26.604  54.876  49.635  0.00  0.00    +0.120 A 
ATOM     39  N   UNL     1      26.379  53.658  49.000  0.00  0.00    -0.263 NA
ATOM     40  C   UNL     1      25.487  53.522  47.926  0.00  0.00    +0.111 A 
ENDBRANCH   4   3
ENDBRANCH  10   9
BRANCH  12  13
ATOM     13  N   UNL     1      27.929  61.188  56.618  0.00  0.00    -0.281 N 
ATOM     14  C   UNL     1      26.582  61.246  56.932  0.00  0.00    +0.248 C 
ATOM     30  O   UNL     1      25.680  61.261  56.108  0.00  0.00    -0.270 OA
ATOM     31  H   UNL     1      28.577  61.378  57.383  0.00  0.00    +0.155 HD
BRANCH  14  15
ATOM     15  C   UNL     1      26.178  61.311  58.370  0.00  0.00    +0.037 A 
ATOM     16  C   UNL     1      25.145  62.244  58.827  0.00  0.00    +0.013 A 
ATOM     17  C   UNL     1      24.786  62.299  60.222  0.00  0.00    +0.005 A 
ATOM     18  C   UNL     1      25.461  61.415  61.170  0.00  0.00    -0.033 A 
ATOM     28  C   UNL     1      26.478  60.495  60.688  0.00  0.00    +0.005 A 
ATOM     29  C   UNL     1      26.833  60.440  59.322  0.00  0.00    +0.013 A 
BRANCH  18  19
ATOM     19  C   UNL     1      25.157  61.420  62.680  0.00  0.00    +0.119 C 
BRANCH  19  20
ATOM     20  N   UNL     1      24.864  60.104  63.323  0.00  0.00    -0.302 NA
ATOM     21  C   UNL     1      23.461  59.596  62.978  0.00  0.00    +0.066 C 
ATOM     22  C   UNL     1      23.179  58.208  63.640  0.00  0.00    -0.064 C 
ATOM     23  N   UNL     1      23.356  58.324  65.155  0.00  0.00    +0.379 N 
ATOM     24  C   UNL     1      23.035  57.036  65.786  0.00  0.00    -0.096 C 
ATOM     25  H   UNL     1      22.619  59.075  65.524  0.00  0.00    -0.082 HD
ATOM     26  C   UNL     1      24.747  58.831  65.507  0.00  0.00    -0.064 C 
ATOM     27  C   UNL     1      25.028  60.197  64.820  0.00  0.00    +0.066 C 
ENDBRANCH  19  20
ENDBRANCH  18  19
ENDBRANCH  14  15
ENDBRANCH  12  13
TORSDOF 6
ENDMDL
