MODEL 1
REMARK VINA RESULT:     -10.2      0.000      0.000
REMARK  Name = C:\Users\Docking\Desktop\test protocol\1iep_ligandH.pdb
REMARK  8 active torsions:
REMARK  status: ('A' for Active; 'I' for Inactive)
REMARK    1  A    between atoms: _5  and  _11
REMARK    2  A    between atoms: _19  and  _21
REMARK    3  A    between atoms: _22  and  _66
REMARK    4  A    between atoms: _27  and  _30
REMARK    5  A    between atoms: _32  and  _33
REMARK    6  A    between atoms: _38  and  _43
REMARK    7  A    between atoms: _43  and  _46
REMARK    8  A    between atoms: _53  and  _55
REMARK                            x       y       z     vdW  Elec       q    Type
REMARK                         _______ _______ _______ _____ _____    ______ ____
ROOT
ATOM     10  C   UNL     1      21.490  87.944  33.978  0.00  0.00    +0.038 A 
ATOM     11  C   UNL     1      21.414  87.269  32.734  0.00  0.00    +0.047 A 
ATOM     12  C   UNL     1      22.612  86.964  31.967  0.00  0.00    +0.035 A 
ATOM     32  C   UNL     1      23.873  87.360  32.500  0.00  0.00    +0.024 A 
ATOM     33  C   UNL     1      23.970  88.048  33.763  0.00  0.00    +0.007 A 
ATOM     34  C   UNL     1      22.791  88.353  34.523  0.00  0.00    -0.029 A 
ATOM     35  C   UNL     1      22.953  89.099  35.868  0.00  0.00    +0.045 C 
ENDROOT
BRANCH  10   9
ATOM      4  C   UNL     1      17.287  90.209  34.463  0.00  0.00    +0.077 A 
ATOM      5  C   UNL     1      17.474  90.943  33.245  0.00  0.00    +0.048 A 
ATOM      6  C   UNL     1      18.670  90.714  32.527  0.00  0.00    +0.116 A 
ATOM      7  N   UNL     1      19.600  89.815  33.001  0.00  0.00    -0.223 NA
ATOM      8  C   UNL     1      19.389  89.125  34.181  0.00  0.00    +0.220 A 
ATOM      9  N   UNL     1      20.308  88.211  34.672  0.00  0.00    -0.283 N 
ATOM     36  H   UNL     1      20.118  87.727  35.550  0.00  0.00    +0.155 HD
ATOM     37  N   UNL     1      18.256  89.327  34.886  0.00  0.00    -0.214 NA
BRANCH   4   3
ATOM      1  C   UNL     1      14.886  91.142  37.407  0.00  0.00    +0.020 A 
ATOM      2  C   UNL     1      16.085  91.045  36.607  0.00  0.00    +0.013 A 
ATOM      3  C   UNL     1      16.074  90.339  35.332  0.00  0.00    +0.019 A 
ATOM     38  C   UNL     1      14.824  89.738  34.892  0.00  0.00    +0.120 A 
ATOM     39  N   UNL     1      13.686  89.846  35.685  0.00  0.00    -0.263 NA
ATOM     40  C   UNL     1      13.685  90.522  36.914  0.00  0.00    +0.111 A 
ENDBRANCH   4   3
ENDBRANCH  10   9
BRANCH  12  13
ATOM     13  N   UNL     1      22.595  86.288  30.694  0.00  0.00    -0.281 N 
ATOM     14  C   UNL     1      22.986  86.785  29.461  0.00  0.00    +0.248 C 
ATOM     30  O   UNL     1      23.211  87.963  29.230  0.00  0.00    -0.270 OA
ATOM     31  H   UNL     1      22.253  85.327  30.702  0.00  0.00    +0.155 HD
BRANCH  14  15
ATOM     15  C   UNL     1      23.135  85.836  28.315  0.00  0.00    +0.037 A 
ATOM     16  C   UNL     1      22.761  86.226  26.953  0.00  0.00    +0.013 A 
ATOM     17  C   UNL     1      22.899  85.286  25.869  0.00  0.00    +0.005 A 
ATOM     18  C   UNL     1      23.416  83.947  26.143  0.00  0.00    -0.033 A 
ATOM     28  C   UNL     1      23.784  83.589  27.503  0.00  0.00    +0.005 A 
ATOM     29  C   UNL     1      23.649  84.507  28.568  0.00  0.00    +0.013 A 
BRANCH  18  19
ATOM     19  C   UNL     1      23.576  82.873  25.051  0.00  0.00    +0.119 C 
BRANCH  19  20
ATOM     20  N   UNL     1      24.420  81.685  25.379  0.00  0.00    -0.302 NA
ATOM     21  C   UNL     1      25.828  81.799  24.786  0.00  0.00    +0.066 C 
ATOM     22  C   UNL     1      26.704  80.559  25.158  0.00  0.00    -0.064 C 
ATOM     23  N   UNL     1      26.013  79.285  24.670  0.00  0.00    +0.379 N 
ATOM     24  C   UNL     1      26.861  78.122  24.966  0.00  0.00    -0.096 C 
ATOM     25  H   UNL     1      25.913  79.358  23.562  0.00  0.00    -0.082 HD
ATOM     26  C   UNL     1      24.611  79.165  25.252  0.00  0.00    -0.064 C 
ATOM     27  C   UNL     1      23.758  80.416  24.901  0.00  0.00    +0.066 C 
ENDBRANCH  19  20
ENDBRANCH  18  19
ENDBRANCH  14  15
ENDBRANCH  12  13
TORSDOF 6
ENDMDL
MODEL 2
REMARK VINA RESULT:     -10.0      1.323      1.643
REMARK  Name = C:\Users\Docking\Desktop\test protocol\1iep_ligandH.pdb
REMARK  8 active torsions:
REMARK  status: ('A' for Active; 'I' for Inactive)
REMARK    1  A    between atoms: _5  and  _11
REMARK    2  A    between atoms: _19  and  _21
REMARK    3  A    between atoms: _22  and  _66
REMARK    4  A    between atoms: _27  and  _30
REMARK    5  A    between atoms: _32  and  _33
REMARK    6  A    between atoms: _38  and  _43
REMARK    7  A    between atoms: _43  and  _46
REMARK    8  A    between atoms: _53  and  _55
REMARK                            x       y       z     vdW  Elec       q    Type
REMARK                         _______ _______ _______ _____ _____    ______ ____
ROOT
ATOM     10  C   UNL     1      21.470  87.895  33.988  0.00  0.00    +0.038 A 
ATOM     11  C   UNL     1      21.396  87.327  32.691  0.00  0.00    +0.047 A 
ATOM     12  C   UNL     1      22.599  87.043  31.924  0.00  0.00    +0.035 A 
ATOM     32  C   UNL     1      23.862  87.348  32.510  0.00  0.00    +0.024 A 
ATOM     33  C   UNL     1      23.956  87.927  33.827  0.00  0.00    +0.007 A 
ATOM     34  C   UNL     1      22.772  88.212  34.587  0.00  0.00    -0.029 A 
ATOM     35  C   UNL     1      22.932  88.839  35.992  0.00  0.00    +0.045 C 
ENDROOT
BRANCH  10   9
ATOM      4  C   UNL     1      17.276  90.170  34.507  0.00  0.00    +0.077 A 
ATOM      5  C   UNL     1      17.478  90.940  33.314  0.00  0.00    +0.048 A 
ATOM      6  C   UNL     1      18.678  90.727  32.600  0.00  0.00    +0.116 A 
ATOM      7  N   UNL     1      19.600  89.808  33.054  0.00  0.00    -0.223 NA
ATOM      8  C   UNL     1      19.374  89.082  34.209  0.00  0.00    +0.220 A 
ATOM      9  N   UNL     1      20.283  88.148  34.679  0.00  0.00    -0.283 N 
ATOM     36  H   UNL     1      20.083  87.638  35.540  0.00  0.00    +0.155 HD
ATOM     37  N   UNL     1      18.237  89.269  34.910  0.00  0.00    -0.214 NA
BRANCH   4   3
ATOM      1  C   UNL     1      14.823  91.128  37.400  0.00  0.00    +0.020 A 
ATOM      2  C   UNL     1      16.027  91.053  36.604  0.00  0.00    +0.013 A 
ATOM      3  C   UNL     1      16.057  90.280  35.369  0.00  0.00    +0.019 A 
ATOM     38  C   UNL     1      14.842  89.589  34.964  0.00  0.00    +0.120 A 
ATOM     39  N   UNL     1      13.698  89.678  35.751  0.00  0.00    -0.263 NA
ATOM     40  C   UNL     1      13.658  90.418  36.943  0.00  0.00    +0.111 A 
ENDBRANCH   4   3
ENDBRANCH  10   9
BRANCH  12  13
ATOM     13  N   UNL     1      22.586  86.473  30.599  0.00  0.00    -0.281 N 
ATOM     14  C   UNL     1      22.511  87.139  29.387  0.00  0.00    +0.248 C 
ATOM     30  O   UNL     1      22.227  88.322  29.264  0.00  0.00    -0.270 OA
ATOM     31  H   UNL     1      22.638  85.456  30.549  0.00  0.00    +0.155 HD
BRANCH  14  15
ATOM     15  C   UNL     1      22.775  86.379  28.128  0.00  0.00    +0.037 A 
ATOM     16  C   UNL     1      22.560  86.988  26.813  0.00  0.00    +0.013 A 
ATOM     17  C   UNL     1      22.807  86.227  25.614  0.00  0.00    +0.005 A 
ATOM     18  C   UNL     1      23.273  84.847  25.725  0.00  0.00    -0.033 A 
ATOM     28  C   UNL     1      23.482  84.269  27.042  0.00  0.00    +0.005 A 
ATOM     29  C   UNL     1      23.241  85.012  28.219  0.00  0.00    +0.013 A 
BRANCH  18  19
ATOM     19  C   UNL     1      23.541  83.953  24.500  0.00  0.00    +0.119 C 
BRANCH  19  20
ATOM     20  N   UNL     1      24.961  83.585  24.219  0.00  0.00    -0.302 NA
ATOM     21  C   UNL     1      25.524  84.344  23.015  0.00  0.00    +0.066 C 
ATOM     22  C   UNL     1      27.017  83.963  22.750  0.00  0.00    -0.064 C 
ATOM     23  N   UNL     1      27.125  82.453  22.537  0.00  0.00    +0.379 N 
ATOM     24  C   UNL     1      28.519  82.099  22.230  0.00  0.00    -0.096 C 
ATOM     25  H   UNL     1      26.506  82.192  21.647  0.00  0.00    -0.082 HD
ATOM     26  C   UNL     1      26.565  81.690  23.729  0.00  0.00    -0.064 C 
ATOM     27  C   UNL     1      25.090  82.097  24.002  0.00  0.00    +0.066 C 
ENDBRANCH  19  20
ENDBRANCH  18  19
ENDBRANCH  14  15
ENDBRANCH  12  13
TORSDOF 6
ENDMDL
MODEL 3
REMARK VINA RESULT:      -9.9      3.877     13.531
REMARK  Name = C:\Users\Docking\Desktop\test protocol\1iep_ligandH.pdb
REMARK  8 active torsions:
REMARK  status: ('A' for Active; 'I' for Inactive)
REMARK    1  A    between atoms: _5  and  _11
REMARK    2  A    between atoms: _19  and  _21
REMARK    3  A    between atoms: _22  and  _66
REMARK    4  A    between atoms: _27  and  _30
REMARK    5  A    between atoms: _32  and  _33
REMARK    6  A    between atoms: _38  and  _43
REMARK    7  A    between atoms: _43  and  _46
REMARK    8  A    between atoms: _53  and  _55
REMARK                            x       y       z     vdW  Elec       q    Type
REMARK                         _______ _______ _______ _____ _____    ______ ____
ROOT
ATOM     10  C   UNL     1      21.673  87.777  33.339  0.00  0.00    +0.038 A 
ATOM     11  C   UNL     1      20.417  88.059  33.936  0.00  0.00    +0.047 A 
ATOM     12  C   UNL     1      20.329  88.579  35.292  0.00  0.00    +0.035 A 
ATOM     32  C   UNL     1      21.540  88.803  36.010  0.00  0.00    +0.024 A 
ATOM     33  C   UNL     1      22.824  88.521  35.418  0.00  0.00    +0.007 A 
ATOM     34  C   UNL     1      22.917  88.005  34.082  0.00  0.00    -0.029 A 
ATOM     35  C   UNL     1      24.321  87.715  33.501  0.00  0.00    +0.045 C 
ENDROOT
BRANCH  10   9
ATOM      4  C   UNL     1      21.556  88.373  28.578  0.00  0.00    +0.077 A 
ATOM      5  C   UNL     1      21.402  89.795  28.700  0.00  0.00    +0.048 A 
ATOM      6  C   UNL     1      21.350  90.332  30.006  0.00  0.00    +0.116 A 
ATOM      7  N   UNL     1      21.447  89.500  31.100  0.00  0.00    -0.223 NA
ATOM      8  C   UNL     1      21.592  88.133  30.947  0.00  0.00    +0.220 A 
ATOM      9  N   UNL     1      21.699  87.279  32.034  0.00  0.00    -0.283 N 
ATOM     36  H   UNL     1      21.798  86.276  31.879  0.00  0.00    +0.155 HD
ATOM     37  N   UNL     1      21.643  87.596  29.711  0.00  0.00    -0.214 NA
BRANCH   4   3
ATOM      1  C   UNL     1      22.803  86.187  25.584  0.00  0.00    +0.020 A 
ATOM      2  C   UNL     1      22.782  86.859  26.862  0.00  0.00    +0.013 A 
ATOM      3  C   UNL     1      21.630  87.657  27.265  0.00  0.00    +0.019 A 
ATOM     38  C   UNL     1      20.508  87.754  26.344  0.00  0.00    +0.120 A 
ATOM     39  N   UNL     1      20.557  87.097  25.119  0.00  0.00    -0.263 NA
ATOM     40  C   UNL     1      21.660  86.328  24.720  0.00  0.00    +0.111 A 
ENDBRANCH   4   3
ENDBRANCH  10   9
BRANCH  12  13
ATOM     13  N   UNL     1      19.082  88.876  35.953  0.00  0.00    -0.281 N 
ATOM     14  C   UNL     1      18.168  89.869  35.641  0.00  0.00    +0.248 C 
ATOM     30  O   UNL     1      18.387  90.793  34.872  0.00  0.00    -0.270 OA
ATOM     31  H   UNL     1      18.846  88.282  36.748  0.00  0.00    +0.155 HD
BRANCH  14  15
ATOM     15  C   UNL     1      16.820  89.838  36.286  0.00  0.00    +0.037 A 
ATOM     16  C   UNL     1      16.044  88.598  36.366  0.00  0.00    +0.013 A 
ATOM     17  C   UNL     1      14.739  88.600  36.979  0.00  0.00    +0.005 A 
ATOM     18  C   UNL     1      14.203  89.847  37.519  0.00  0.00    -0.033 A 
ATOM     28  C   UNL     1      14.997  91.062  37.430  0.00  0.00    +0.005 A 
ATOM     29  C   UNL     1      16.276  91.064  36.830  0.00  0.00    +0.013 A 
BRANCH  18  19
ATOM     19  C   UNL     1      12.812  89.947  38.171  0.00  0.00    +0.119 C 
BRANCH  19  20
ATOM     20  N   UNL     1      12.137  91.279  38.144  0.00  0.00    -0.302 NA
ATOM     21  C   UNL     1      11.930  91.846  39.551  0.00  0.00    +0.066 C 
ATOM     22  C   UNL     1      11.244  93.250  39.504  0.00  0.00    -0.064 C 
ATOM     23  N   UNL     1       9.910  93.138  38.762  0.00  0.00    +0.379 N 
ATOM     24  C   UNL     1       9.236  94.444  38.766  0.00  0.00    -0.096 C 
ATOM     25  H   UNL     1       9.268  92.424  39.328  0.00  0.00    -0.082 HD
ATOM     26  C   UNL     1      10.107  92.573  37.363  0.00  0.00    -0.064 C 
ATOM     27  C   UNL     1      10.816  91.191  37.420  0.00  0.00    +0.066 C 
ENDBRANCH  19  20
ENDBRANCH  18  19
ENDBRANCH  14  15
ENDBRANCH  12  13
TORSDOF 6
ENDMDL
