MODEL 1
REMARK VINA RESULT:      -8.1      0.000      0.000
REMARK  Name = C:\Users\Docking\Desktop\test protocol\1iep_ligandH.pdb
REMARK  8 active torsions:
REMARK  status: ('A' for Active; 'I' for Inactive)
REMARK    1  A    between atoms: _5  and  _11
REMARK    2  A    between atoms: _19  and  _21
REMARK    3  A    between atoms: _22  and  _66
REMARK    4  A    between atoms: _27  and  _30
REMARK    5  A    between atoms: _32  and  _33
REMARK    6  A    between atoms: _38  and  _43
REMARK    7  A    between atoms: _43  and  _46
REMARK    8  A    between atoms: _53  and  _55
REMARK                            x       y       z     vdW  Elec       q    Type
REMARK                         _______ _______ _______ _____ _____    ______ ____
ROOT
ATOM     10  C   UNL     1      -1.453  61.440  20.630  0.00  0.00    +0.038 A 
ATOM     11  C   UNL     1      -1.208  61.075  19.281  0.00  0.00    +0.047 A 
ATOM     12  C   UNL     1      -0.917  59.698  18.915  0.00  0.00    +0.035 A 
ATOM     32  C   UNL     1      -0.887  58.716  19.948  0.00  0.00    +0.024 A 
ATOM     33  C   UNL     1      -1.134  59.070  21.324  0.00  0.00    +0.007 A 
ATOM     34  C   UNL     1      -1.418  60.427  21.692  0.00  0.00    -0.029 A 
ATOM     35  C   UNL     1      -1.668  60.750  23.183  0.00  0.00    +0.045 C 
ENDROOT
BRANCH  10   9
ATOM      4  C   UNL     1      -4.463  65.159  21.016  0.00  0.00    +0.077 A 
ATOM      5  C   UNL     1      -5.580  64.378  20.566  0.00  0.00    +0.048 A 
ATOM      6  C   UNL     1      -5.335  63.025  20.238  0.00  0.00    +0.116 A 
ATOM      7  N   UNL     1      -4.066  62.503  20.356  0.00  0.00    -0.223 NA
ATOM      8  C   UNL     1      -3.011  63.284  20.791  0.00  0.00    +0.220 A 
ATOM      9  N   UNL     1      -1.727  62.777  20.925  0.00  0.00    -0.283 N 
ATOM     36  H   UNL     1      -0.975  63.388  21.242  0.00  0.00    +0.155 HD
ATOM     37  N   UNL     1      -3.218  64.579  21.109  0.00  0.00    -0.214 NA
BRANCH   4   3
ATOM      1  C   UNL     1      -5.385  68.960  21.047  0.00  0.00    +0.020 A 
ATOM      2  C   UNL     1      -5.321  67.578  20.630  0.00  0.00    +0.013 A 
ATOM      3  C   UNL     1      -4.562  66.602  21.402  0.00  0.00    +0.019 A 
ATOM     38  C   UNL     1      -3.876  67.059  22.601  0.00  0.00    +0.120 A 
ATOM     39  N   UNL     1      -3.954  68.396  22.977  0.00  0.00    -0.263 NA
ATOM     40  C   UNL     1      -4.679  69.346  22.241  0.00  0.00    +0.111 A 
ENDBRANCH   4   3
ENDBRANCH  10   9
BRANCH  12  13
ATOM     13  N   UNL     1      -0.652  59.270  17.564  0.00  0.00    -0.281 N 
ATOM     14  C   UNL     1       0.445  58.566  17.094  0.00  0.00    +0.248 C 
ATOM     30  O   UNL     1       1.472  58.382  17.729  0.00  0.00    -0.270 OA
ATOM     31  H   UNL     1      -1.358  59.516  16.870  0.00  0.00    +0.155 HD
BRANCH  14  15
ATOM     15  C   UNL     1       0.399  57.996  15.713  0.00  0.00    +0.037 A 
ATOM     16  C   UNL     1      -0.442  56.839  15.396  0.00  0.00    +0.013 A 
ATOM     17  C   UNL     1      -0.455  56.299  14.059  0.00  0.00    +0.005 A 
ATOM     18  C   UNL     1       0.376  56.917  13.029  0.00  0.00    -0.033 A 
ATOM     28  C   UNL     1       1.196  58.067  13.370  0.00  0.00    +0.005 A 
ATOM     29  C   UNL     1       1.212  58.599  14.679  0.00  0.00    +0.013 A 
BRANCH  18  19
ATOM     19  C   UNL     1       0.440  56.394  11.582  0.00  0.00    +0.119 C 
BRANCH  19  20
ATOM     20  N   UNL     1      -0.561  55.361  11.183  0.00  0.00    -0.302 NA
ATOM     21  C   UNL     1       0.020  54.350  10.190  0.00  0.00    +0.066 C 
ATOM     22  C   UNL     1      -1.034  53.263   9.800  0.00  0.00    -0.064 C 
ATOM     23  N   UNL     1      -2.273  53.945   9.216  0.00  0.00    +0.379 N 
ATOM     24  C   UNL     1      -3.242  52.923   8.796  0.00  0.00    -0.096 C 
ATOM     25  H   UNL     1      -1.953  54.504   8.306  0.00  0.00    -0.082 HD
ATOM     26  C   UNL     1      -2.856  54.954  10.196  0.00  0.00    -0.064 C 
ATOM     27  C   UNL     1      -1.791  56.012  10.599  0.00  0.00    +0.066 C 
ENDBRANCH  19  20
ENDBRANCH  18  19
ENDBRANCH  14  15
ENDBRANCH  12  13
TORSDOF 6
ENDMDL
MODEL 2
REMARK VINA RESULT:      -8.1      8.439     10.128
REMARK  Name = C:\Users\Docking\Desktop\test protocol\1iep_ligandH.pdb
REMARK  8 active torsions:
REMARK  status: ('A' for Active; 'I' for Inactive)
REMARK    1  A    between atoms: _5  and  _11
REMARK    2  A    between atoms: _19  and  _21
REMARK    3  A    between atoms: _22  and  _66
REMARK    4  A    between atoms: _27  and  _30
REMARK    5  A    between atoms: _32  and  _33
REMARK    6  A    between atoms: _38  and  _43
REMARK    7  A    between atoms: _43  and  _46
REMARK    8  A    between atoms: _53  and  _55
REMARK                            x       y       z     vdW  Elec       q    Type
REMARK                         _______ _______ _______ _____ _____    ______ ____
ROOT
ATOM     10  C   UNL     1     -10.182  53.429  17.741  0.00  0.00    +0.038 A 
ATOM     11  C   UNL     1      -9.413  54.233  16.862  0.00  0.00    +0.047 A 
ATOM     12  C   UNL     1      -8.136  53.770  16.340  0.00  0.00    +0.035 A 
ATOM     32  C   UNL     1      -7.675  52.479  16.732  0.00  0.00    +0.024 A 
ATOM     33  C   UNL     1      -8.444  51.648  17.625  0.00  0.00    +0.007 A 
ATOM     34  C   UNL     1      -9.702  52.101  18.145  0.00  0.00    -0.029 A 
ATOM     35  C   UNL     1     -10.481  51.171  19.104  0.00  0.00    +0.045 C 
ENDROOT
BRANCH  10   9
ATOM      4  C   UNL     1     -12.810  55.872  20.928  0.00  0.00    +0.077 A 
ATOM      5  C   UNL     1     -11.663  56.164  21.739  0.00  0.00    +0.048 A 
ATOM      6  C   UNL     1     -10.416  55.661  21.304  0.00  0.00    +0.116 A 
ATOM      7  N   UNL     1     -10.334  54.923  20.143  0.00  0.00    -0.223 NA
ATOM      8  C   UNL     1     -11.461  54.657  19.386  0.00  0.00    +0.220 A 
ATOM      9  N   UNL     1     -11.400  53.924  18.211  0.00  0.00    -0.283 N 
ATOM     36  H   UNL     1     -12.255  53.743  17.685  0.00  0.00    +0.155 HD
ATOM     37  N   UNL     1     -12.663  55.125  19.781  0.00  0.00    -0.214 NA
BRANCH   4   3
ATOM      1  C   UNL     1     -15.834  58.041  22.132  0.00  0.00    +0.020 A 
ATOM      2  C   UNL     1     -14.478  57.641  21.837  0.00  0.00    +0.013 A 
ATOM      3  C   UNL     1     -14.196  56.336  21.254  0.00  0.00    +0.019 A 
ATOM     38  C   UNL     1     -15.318  55.452  20.977  0.00  0.00    +0.120 A 
ATOM     39  N   UNL     1     -16.614  55.864  21.273  0.00  0.00    -0.263 NA
ATOM     40  C   UNL     1     -16.897  57.117  21.836  0.00  0.00    +0.111 A 
ENDBRANCH   4   3
ENDBRANCH  10   9
BRANCH  12  13
ATOM     13  N   UNL     1      -7.307  54.546  15.452  0.00  0.00    -0.281 N 
ATOM     14  C   UNL     1      -6.426  55.563  15.780  0.00  0.00    +0.248 C 
ATOM     30  O   UNL     1      -6.374  56.106  16.874  0.00  0.00    -0.270 OA
ATOM     31  H   UNL     1      -7.379  54.318  14.460  0.00  0.00    +0.155 HD
BRANCH  14  15
ATOM     15  C   UNL     1      -5.473  56.057  14.740  0.00  0.00    +0.037 A 
ATOM     16  C   UNL     1      -5.916  56.951  13.668  0.00  0.00    +0.013 A 
ATOM     17  C   UNL     1      -4.981  57.399  12.667  0.00  0.00    +0.005 A 
ATOM     18  C   UNL     1      -3.591  56.954  12.735  0.00  0.00    -0.033 A 
ATOM     28  C   UNL     1      -3.177  56.071  13.813  0.00  0.00    +0.005 A 
ATOM     29  C   UNL     1      -4.092  55.629  14.795  0.00  0.00    +0.013 A 
BRANCH  18  19
ATOM     19  C   UNL     1      -2.529  57.365  11.698  0.00  0.00    +0.119 C 
BRANCH  19  20
ATOM     20  N   UNL     1      -1.531  56.330  11.294  0.00  0.00    -0.302 NA
ATOM     21  C   UNL     1      -0.184  56.950  10.911  0.00  0.00    +0.066 C 
ATOM     22  C   UNL     1       0.855  55.852  10.513  0.00  0.00    -0.064 C 
ATOM     23  N   UNL     1       0.295  55.018   9.360  0.00  0.00    +0.379 N 
ATOM     24  C   UNL     1       1.293  54.021   8.944  0.00  0.00    -0.096 C 
ATOM     25  H   UNL     1       0.123  55.704   8.498  0.00  0.00    -0.082 HD
ATOM     26  C   UNL     1      -1.046  54.400   9.731  0.00  0.00    -0.064 C 
ATOM     27  C   UNL     1      -2.062  55.498  10.153  0.00  0.00    +0.066 C 
ENDBRANCH  19  20
ENDBRANCH  18  19
ENDBRANCH  14  15
ENDBRANCH  12  13
TORSDOF 6
ENDMDL
MODEL 3
REMARK VINA RESULT:      -8.0      9.789     15.960
REMARK  Name = C:\Users\Docking\Desktop\test protocol\1iep_ligandH.pdb
REMARK  8 active torsions:
REMARK  status: ('A' for Active; 'I' for Inactive)
REMARK    1  A    between atoms: _5  and  _11
REMARK    2  A    between atoms: _19  and  _21
REMARK    3  A    between atoms: _22  and  _66
REMARK    4  A    between atoms: _27  and  _30
REMARK    5  A    between atoms: _32  and  _33
REMARK    6  A    between atoms: _38  and  _43
REMARK    7  A    between atoms: _43  and  _46
REMARK    8  A    between atoms: _53  and  _55
REMARK                            x       y       z     vdW  Elec       q    Type
REMARK                         _______ _______ _______ _____ _____    ______ ____
ROOT
ATOM     10  C   UNL     1      -0.684  52.572   9.849  0.00  0.00    +0.038 A 
ATOM     11  C   UNL     1      -1.875  52.486  10.615  0.00  0.00    +0.047 A 
ATOM     12  C   UNL     1      -2.512  53.678  11.152  0.00  0.00    +0.035 A 
ATOM     32  C   UNL     1      -1.912  54.943  10.886  0.00  0.00    +0.024 A 
ATOM     33  C   UNL     1      -0.701  55.049  10.110  0.00  0.00    +0.007 A 
ATOM     34  C   UNL     1      -0.066  53.876   9.581  0.00  0.00    -0.029 A 
ATOM     35  C   UNL     1       1.234  54.049   8.761  0.00  0.00    +0.045 C 
ENDROOT
BRANCH  10   9
ATOM      4  C   UNL     1       2.029  48.647  10.368  0.00  0.00    +0.077 A 
ATOM      5  C   UNL     1       2.361  48.983  11.723  0.00  0.00    +0.048 A 
ATOM      6  C   UNL     1       1.819  50.178  12.246  0.00  0.00    +0.116 A 
ATOM      7  N   UNL     1       1.006  50.970  11.464  0.00  0.00    -0.223 NA
ATOM      8  C   UNL     1       0.707  50.618  10.161  0.00  0.00    +0.220 A 
ATOM      9  N   UNL     1      -0.114  51.395   9.359  0.00  0.00    -0.283 N 
ATOM     36  H   UNL     1      -0.304  51.104   8.400  0.00  0.00    +0.155 HD
ATOM     37  N   UNL     1       1.214  49.482   9.637  0.00  0.00    -0.214 NA
BRANCH   4   3
ATOM      1  C   UNL     1       4.309  46.068   8.510  0.00  0.00    +0.020 A 
ATOM      2  C   UNL     1       3.883  47.279   9.172  0.00  0.00    +0.013 A 
ATOM      3  C   UNL     1       2.522  47.415   9.675  0.00  0.00    +0.019 A 
ATOM     38  C   UNL     1       1.609  46.297   9.490  0.00  0.00    +0.120 A 
ATOM     39  N   UNL     1       2.047  45.143   8.848  0.00  0.00    -0.263 NA
ATOM     40  C   UNL     1       3.354  45.002   8.358  0.00  0.00    +0.111 A 
ENDBRANCH   4   3
ENDBRANCH  10   9
BRANCH  12  13
ATOM     13  N   UNL     1      -3.717  53.651  11.943  0.00  0.00    -0.281 N 
ATOM     14  C   UNL     1      -3.886  53.146  13.221  0.00  0.00    +0.248 C 
ATOM     30  O   UNL     1      -3.070  52.442  13.799  0.00  0.00    -0.270 OA
ATOM     31  H   UNL     1      -4.547  54.055  11.507  0.00  0.00    +0.155 HD
BRANCH  14  15
ATOM     15  C   UNL     1      -5.149  53.453  13.959  0.00  0.00    +0.037 A 
ATOM     16  C   UNL     1      -6.037  54.535  13.527  0.00  0.00    +0.013 A 
ATOM     17  C   UNL     1      -7.240  54.823  14.267  0.00  0.00    +0.005 A 
ATOM     18  C   UNL     1      -7.563  54.024  15.447  0.00  0.00    -0.033 A 
ATOM     28  C   UNL     1      -6.667  52.953  15.850  0.00  0.00    +0.005 A 
ATOM     29  C   UNL     1      -5.486  52.670  15.128  0.00  0.00    +0.013 A 
BRANCH  18  19
ATOM     19  C   UNL     1      -8.815  54.274  16.309  0.00  0.00    +0.119 C 
BRANCH  19  20
ATOM     20  N   UNL     1      -9.240  53.178  17.230  0.00  0.00    -0.302 NA
ATOM     21  C   UNL     1     -10.757  52.970  17.214  0.00  0.00    +0.066 C 
ATOM     22  C   UNL     1     -11.182  51.806  18.167  0.00  0.00    -0.064 C 
ATOM     23  N   UNL     1     -10.691  52.105  19.585  0.00  0.00    +0.379 N 
ATOM     24  C   UNL     1     -11.139  51.041  20.494  0.00  0.00    -0.096 C 
ATOM     25  H   UNL     1     -11.171  53.056  19.914  0.00  0.00    -0.082 HD
ATOM     26  C   UNL     1      -9.184  52.316  19.609  0.00  0.00    -0.064 C 
ATOM     27  C   UNL     1      -8.769  53.456  18.637  0.00  0.00    +0.066 C 
ENDBRANCH  19  20
ENDBRANCH  18  19
ENDBRANCH  14  15
ENDBRANCH  12  13
TORSDOF 6
ENDMDL
