MODEL 1
REMARK VINA RESULT:      -8.7      0.000      0.000
REMARK  Name = C:\Users\Docking\Desktop\test protocol\1iep_ligandH.pdb
REMARK  8 active torsions:
REMARK  status: ('A' for Active; 'I' for Inactive)
REMARK    1  A    between atoms: _5  and  _11
REMARK    2  A    between atoms: _19  and  _21
REMARK    3  A    between atoms: _22  and  _66
REMARK    4  A    between atoms: _27  and  _30
REMARK    5  A    between atoms: _32  and  _33
REMARK    6  A    between atoms: _38  and  _43
REMARK    7  A    between atoms: _43  and  _46
REMARK    8  A    between atoms: _53  and  _55
REMARK                            x       y       z     vdW  Elec       q    Type
REMARK                         _______ _______ _______ _____ _____    ______ ____
ROOT
ATOM     10  C   UNL     1      -6.839  69.995  -3.603  0.00  0.00    +0.038 A 
ATOM     11  C   UNL     1      -6.311  68.887  -4.313  0.00  0.00    +0.047 A 
ATOM     12  C   UNL     1      -4.993  68.943  -4.925  0.00  0.00    +0.035 A 
ATOM     32  C   UNL     1      -4.237  70.145  -4.791  0.00  0.00    +0.024 A 
ATOM     33  C   UNL     1      -4.758  71.281  -4.074  0.00  0.00    +0.007 A 
ATOM     34  C   UNL     1      -6.059  71.232  -3.470  0.00  0.00    -0.029 A 
ATOM     35  C   UNL     1      -6.570  72.483  -2.719  0.00  0.00    +0.045 C 
ENDROOT
BRANCH  10   9
ATOM      4  C   UNL     1      -9.755  69.227   0.131  0.00  0.00    +0.077 A 
ATOM      5  C   UNL     1      -8.653  68.998   1.020  0.00  0.00    +0.048 A 
ATOM      6  C   UNL     1      -7.352  69.080   0.476  0.00  0.00    +0.116 A 
ATOM      7  N   UNL     1      -7.178  69.371  -0.860  0.00  0.00    -0.223 NA
ATOM      8  C   UNL     1      -8.262  69.585  -1.691  0.00  0.00    +0.220 A 
ATOM      9  N   UNL     1      -8.110  69.886  -3.035  0.00  0.00    -0.283 N 
ATOM     36  H   UNL     1      -8.936  70.029  -3.616  0.00  0.00    +0.155 HD
ATOM     37  N   UNL     1      -9.515  69.510  -1.195  0.00  0.00    -0.214 NA
BRANCH   4   3
ATOM      1  C   UNL     1     -13.039  69.558   2.231  0.00  0.00    +0.020 A 
ATOM      2  C   UNL     1     -11.642  69.625   1.869  0.00  0.00    +0.013 A 
ATOM      3  C   UNL     1     -11.190  69.179   0.557  0.00  0.00    +0.019 A 
ATOM     38  C   UNL     1     -12.185  68.666  -0.372  0.00  0.00    +0.120 A 
ATOM     39  N   UNL     1     -13.523  68.611   0.004  0.00  0.00    -0.263 NA
ATOM     40  C   UNL     1     -13.969  69.036   1.265  0.00  0.00    +0.111 A 
ENDBRANCH   4   3
ENDBRANCH  10   9
BRANCH  12  13
ATOM     13  N   UNL     1      -4.408  67.853  -5.665  0.00  0.00    -0.281 N 
ATOM     14  C   UNL     1      -3.162  67.804  -6.268  0.00  0.00    +0.248 C 
ATOM     30  O   UNL     1      -2.441  68.774  -6.445  0.00  0.00    -0.270 OA
ATOM     31  H   UNL     1      -4.983  67.015  -5.755  0.00  0.00    +0.155 HD
BRANCH  14  15
ATOM     15  C   UNL     1      -2.648  66.488  -6.757  0.00  0.00    +0.037 A 
ATOM     16  C   UNL     1      -3.412  65.253  -6.562  0.00  0.00    +0.013 A 
ATOM     17  C   UNL     1      -2.885  63.996  -7.029  0.00  0.00    +0.005 A 
ATOM     18  C   UNL     1      -1.587  63.967  -7.698  0.00  0.00    -0.033 A 
ATOM     28  C   UNL     1      -0.852  65.208  -7.883  0.00  0.00    +0.005 A 
ATOM     29  C   UNL     1      -1.365  66.442  -7.426  0.00  0.00    +0.013 A 
BRANCH  18  19
ATOM     19  C   UNL     1      -0.938  62.667  -8.210  0.00  0.00    +0.119 C 
BRANCH  19  20
ATOM     20  N   UNL     1      -0.822  61.534  -7.244  0.00  0.00    -0.302 NA
ATOM     21  C   UNL     1       0.598  60.962  -7.197  0.00  0.00    +0.066 C 
ATOM     22  C   UNL     1       0.707  59.793  -6.165  0.00  0.00    -0.064 C 
ATOM     23  N   UNL     1      -0.305  58.703  -6.524  0.00  0.00    +0.379 N 
ATOM     24  C   UNL     1      -0.165  57.577  -5.590  0.00  0.00    -0.096 C 
ATOM     25  H   UNL     1      -0.053  58.331  -7.544  0.00  0.00    -0.082 HD
ATOM     26  C   UNL     1      -1.719  59.265  -6.575  0.00  0.00    -0.064 C 
ATOM     27  C   UNL     1      -1.809  60.445  -7.582  0.00  0.00    +0.066 C 
ENDBRANCH  19  20
ENDBRANCH  18  19
ENDBRANCH  14  15
ENDBRANCH  12  13
TORSDOF 6
ENDMDL
MODEL 2
REMARK VINA RESULT:      -8.4     11.438     13.940
REMARK  Name = C:\Users\Docking\Desktop\test protocol\1iep_ligandH.pdb
REMARK  8 active torsions:
REMARK  status: ('A' for Active; 'I' for Inactive)
REMARK    1  A    between atoms: _5  and  _11
REMARK    2  A    between atoms: _19  and  _21
REMARK    3  A    between atoms: _22  and  _66
REMARK    4  A    between atoms: _27  and  _30
REMARK    5  A    between atoms: _32  and  _33
REMARK    6  A    between atoms: _38  and  _43
REMARK    7  A    between atoms: _43  and  _46
REMARK    8  A    between atoms: _53  and  _55
REMARK                            x       y       z     vdW  Elec       q    Type
REMARK                         _______ _______ _______ _____ _____    ______ ____
ROOT
ATOM     10  C   UNL     1       3.141  62.095  -5.348  0.00  0.00    +0.038 A 
ATOM     11  C   UNL     1       2.233  61.207  -5.978  0.00  0.00    +0.047 A 
ATOM     12  C   UNL     1       1.854  59.950  -5.353  0.00  0.00    +0.035 A 
ATOM     32  C   UNL     1       2.416  59.630  -4.082  0.00  0.00    +0.024 A 
ATOM     33  C   UNL     1       3.341  60.521  -3.427  0.00  0.00    +0.007 A 
ATOM     34  C   UNL     1       3.721  61.762  -4.041  0.00  0.00    -0.029 A 
ATOM     35  C   UNL     1       4.722  62.675  -3.296  0.00  0.00    +0.045 C 
ENDROOT
BRANCH  10   9
ATOM      4  C   UNL     1       6.065  64.780  -8.047  0.00  0.00    +0.077 A 
ATOM      5  C   UNL     1       7.029  63.723  -8.158  0.00  0.00    +0.048 A 
ATOM      6  C   UNL     1       6.738  62.507  -7.499  0.00  0.00    +0.116 A 
ATOM      7  N   UNL     1       5.567  62.369  -6.786  0.00  0.00    -0.223 NA
ATOM      8  C   UNL     1       4.659  63.409  -6.698  0.00  0.00    +0.220 A 
ATOM      9  N   UNL     1       3.471  63.289  -5.993  0.00  0.00    -0.283 N 
ATOM     36  H   UNL     1       2.831  64.081  -5.946  0.00  0.00    +0.155 HD
ATOM     37  N   UNL     1       4.914  64.580  -7.317  0.00  0.00    -0.214 NA
BRANCH   4   3
ATOM      1  C   UNL     1       7.290  68.404  -8.863  0.00  0.00    +0.020 A 
ATOM      2  C   UNL     1       7.171  67.122  -8.206  0.00  0.00    +0.013 A 
ATOM      3  C   UNL     1       6.227  66.122  -8.689  0.00  0.00    +0.019 A 
ATOM     38  C   UNL     1       5.412  66.453  -9.848  0.00  0.00    +0.120 A 
ATOM     39  N   UNL     1       5.547  67.695 -10.459  0.00  0.00    -0.263 NA
ATOM     40  C   UNL     1       6.451  68.666 -10.002  0.00  0.00    +0.111 A 
ENDBRANCH   4   3
ENDBRANCH  10   9
BRANCH  12  13
ATOM     13  N   UNL     1       0.943  59.004  -5.949  0.00  0.00    -0.281 N 
ATOM     14  C   UNL     1      -0.349  59.231  -6.395  0.00  0.00    +0.248 C 
ATOM     30  O   UNL     1      -0.997  60.239  -6.152  0.00  0.00    -0.270 OA
ATOM     31  H   UNL     1       1.293  58.052  -6.055  0.00  0.00    +0.155 HD
BRANCH  14  15
ATOM     15  C   UNL     1      -1.024  58.182  -7.218  0.00  0.00    +0.037 A 
ATOM     16  C   UNL     1      -1.715  58.521  -8.464  0.00  0.00    +0.013 A 
ATOM     17  C   UNL     1      -2.373  57.492  -9.230  0.00  0.00    +0.005 A 
ATOM     18  C   UNL     1      -2.340  56.112  -8.751  0.00  0.00    -0.033 A 
ATOM     28  C   UNL     1      -1.642  55.802  -7.515  0.00  0.00    +0.005 A 
ATOM     29  C   UNL     1      -0.997  56.809  -6.761  0.00  0.00    +0.013 A 
BRANCH  18  19
ATOM     19  C   UNL     1      -3.032  54.953  -9.493  0.00  0.00    +0.119 C 
BRANCH  19  20
ATOM     20  N   UNL     1      -4.073  54.187  -8.745  0.00  0.00    -0.302 NA
ATOM     21  C   UNL     1      -4.769  53.149  -9.629  0.00  0.00    +0.066 C 
ATOM     22  C   UNL     1      -5.840  52.342  -8.825  0.00  0.00    -0.064 C 
ATOM     23  N   UNL     1      -6.859  53.311  -8.224  0.00  0.00    +0.379 N 
ATOM     24  C   UNL     1      -7.899  52.551  -7.515  0.00  0.00    -0.096 C 
ATOM     25  H   UNL     1      -7.349  53.852  -9.066  0.00  0.00    -0.082 HD
ATOM     26  C   UNL     1      -6.175  54.349  -7.345  0.00  0.00    -0.064 C 
ATOM     27  C   UNL     1      -5.093  55.125  -8.146  0.00  0.00    +0.066 C 
ENDBRANCH  19  20
ENDBRANCH  18  19
ENDBRANCH  14  15
ENDBRANCH  12  13
TORSDOF 6
ENDMDL
MODEL 3
REMARK VINA RESULT:      -8.2     17.178     21.452
REMARK  Name = C:\Users\Docking\Desktop\test protocol\1iep_ligandH.pdb
REMARK  8 active torsions:
REMARK  status: ('A' for Active; 'I' for Inactive)
REMARK    1  A    between atoms: _5  and  _11
REMARK    2  A    between atoms: _19  and  _21
REMARK    3  A    between atoms: _22  and  _66
REMARK    4  A    between atoms: _27  and  _30
REMARK    5  A    between atoms: _32  and  _33
REMARK    6  A    between atoms: _38  and  _43
REMARK    7  A    between atoms: _43  and  _46
REMARK    8  A    between atoms: _53  and  _55
REMARK                            x       y       z     vdW  Elec       q    Type
REMARK                         _______ _______ _______ _____ _____    ______ ____
ROOT
ATOM     10  C   UNL     1      -2.408  50.144  11.498  0.00  0.00    +0.038 A 
ATOM     11  C   UNL     1      -1.848  49.748  10.257  0.00  0.00    +0.047 A 
ATOM     12  C   UNL     1      -1.163  48.473  10.112  0.00  0.00    +0.035 A 
ATOM     32  C   UNL     1      -1.069  47.624  11.253  0.00  0.00    +0.024 A 
ATOM     33  C   UNL     1      -1.631  48.011  12.523  0.00  0.00    +0.007 A 
ATOM     34  C   UNL     1      -2.306  49.268  12.672  0.00  0.00    -0.029 A 
ATOM     35  C   UNL     1      -2.885  49.634  14.059  0.00  0.00    +0.045 C 
ENDROOT
BRANCH  10   9
ATOM      4  C   UNL     1      -2.374  54.943  11.580  0.00  0.00    +0.077 A 
ATOM      5  C   UNL     1      -0.944  54.993  11.478  0.00  0.00    +0.048 A 
ATOM      6  C   UNL     1      -0.254  53.762  11.414  0.00  0.00    +0.116 A 
ATOM      7  N   UNL     1      -0.953  52.574  11.450  0.00  0.00    -0.223 NA
ATOM      8  C   UNL     1      -2.332  52.561  11.551  0.00  0.00    +0.220 A 
ATOM      9  N   UNL     1      -3.055  51.379  11.580  0.00  0.00    -0.283 N 
ATOM     36  H   UNL     1      -4.071  51.411  11.663  0.00  0.00    +0.155 HD
ATOM     37  N   UNL     1      -3.014  53.724  11.615  0.00  0.00    -0.214 NA
BRANCH   4   3
ATOM      1  C   UNL     1      -3.722  58.596  11.213  0.00  0.00    +0.020 A 
ATOM      2  C   UNL     1      -2.844  57.453  11.116  0.00  0.00    +0.013 A 
ATOM      3  C   UNL     1      -3.244  56.159  11.654  0.00  0.00    +0.019 A 
ATOM     38  C   UNL     1      -4.550  56.054  12.287  0.00  0.00    +0.120 A 
ATOM     39  N   UNL     1      -5.374  57.173  12.367  0.00  0.00    -0.263 NA
ATOM     40  C   UNL     1      -4.999  58.424  11.854  0.00  0.00    +0.111 A 
ENDBRANCH   4   3
ENDBRANCH  10   9
BRANCH  12  13
ATOM     13  N   UNL     1      -0.568  48.022   8.879  0.00  0.00    -0.281 N 
ATOM     14  C   UNL     1      -0.935  46.934   8.105  0.00  0.00    +0.248 C 
ATOM     30  O   UNL     1      -1.700  46.053   8.468  0.00  0.00    -0.270 OA
ATOM     31  H   UNL     1       0.220  48.571   8.536  0.00  0.00    +0.155 HD
BRANCH  14  15
ATOM     15  C   UNL     1      -0.357  46.796   6.733  0.00  0.00    +0.037 A 
ATOM     16  C   UNL     1       0.986  47.290   6.421  0.00  0.00    +0.013 A 
ATOM     17  C   UNL     1       1.513  47.159   5.086  0.00  0.00    +0.005 A 
ATOM     18  C   UNL     1       0.695  46.531   4.051  0.00  0.00    -0.033 A 
ATOM     28  C   UNL     1      -0.633  46.045   4.389  0.00  0.00    +0.005 A 
ATOM     29  C   UNL     1      -1.153  46.172   5.697  0.00  0.00    +0.013 A 
BRANCH  18  19
ATOM     19  C   UNL     1       1.167  46.369   2.594  0.00  0.00    +0.119 C 
BRANCH  19  20
ATOM     20  N   UNL     1       0.466  47.179   1.554  0.00  0.00    -0.302 NA
ATOM     21  C   UNL     1       0.558  46.536   0.167  0.00  0.00    +0.066 C 
ATOM     22  C   UNL     1      -0.201  47.384  -0.905  0.00  0.00    -0.064 C 
ATOM     23  N   UNL     1       0.371  48.803  -0.926  0.00  0.00    +0.379 N 
ATOM     24  C   UNL     1      -0.300  49.587  -1.973  0.00  0.00    -0.096 C 
ATOM     25  H   UNL     1       1.450  48.728  -1.199  0.00  0.00    -0.082 HD
ATOM     26  C   UNL     1       0.286  49.448   0.449  0.00  0.00    -0.064 C 
ATOM     27  C   UNL     1       1.018  48.582   1.513  0.00  0.00    +0.066 C 
ENDBRANCH  19  20
ENDBRANCH  18  19
ENDBRANCH  14  15
ENDBRANCH  12  13
TORSDOF 6
ENDMDL
