MODEL 1
REMARK VINA RESULT:      -8.1      0.000      0.000
REMARK  Name = C:\Users\Docking\Desktop\test protocol\1iep_ligandH.pdb
REMARK  8 active torsions:
REMARK  status: ('A' for Active; 'I' for Inactive)
REMARK    1  A    between atoms: _5  and  _11
REMARK    2  A    between atoms: _19  and  _21
REMARK    3  A    between atoms: _22  and  _66
REMARK    4  A    between atoms: _27  and  _30
REMARK    5  A    between atoms: _32  and  _33
REMARK    6  A    between atoms: _38  and  _43
REMARK    7  A    between atoms: _43  and  _46
REMARK    8  A    between atoms: _53  and  _55
REMARK                            x       y       z     vdW  Elec       q    Type
REMARK                         _______ _______ _______ _____ _____    ______ ____
ROOT
ATOM     10  C   UNL     1      63.910  51.796  18.725  0.00  0.00    +0.038 A 
ATOM     11  C   UNL     1      65.242  51.331  18.866  0.00  0.00    +0.047 A 
ATOM     12  C   UNL     1      66.337  51.948  18.133  0.00  0.00    +0.035 A 
ATOM     32  C   UNL     1      66.038  53.040  17.267  0.00  0.00    +0.024 A 
ATOM     33  C   UNL     1      64.690  53.525  17.111  0.00  0.00    +0.007 A 
ATOM     34  C   UNL     1      63.606  52.919  17.829  0.00  0.00    -0.029 A 
ATOM     35  C   UNL     1      62.179  53.477  17.619  0.00  0.00    +0.045 C 
ENDROOT
BRANCH  10   9
ATOM      4  C   UNL     1      61.177  51.331  22.643  0.00  0.00    +0.077 A 
ATOM      5  C   UNL     1      61.840  52.416  23.307  0.00  0.00    +0.048 A 
ATOM      6  C   UNL     1      62.883  53.064  22.608  0.00  0.00    +0.116 A 
ATOM      7  N   UNL     1      63.230  52.648  21.341  0.00  0.00    -0.223 NA
ATOM      8  C   UNL     1      62.571  51.596  20.730  0.00  0.00    +0.220 A 
ATOM      9  N   UNL     1      62.898  51.167  19.453  0.00  0.00    -0.283 N 
ATOM     36  H   UNL     1      62.393  50.383  19.041  0.00  0.00    +0.155 HD
ATOM     37  N   UNL     1      61.572  50.961  21.377  0.00  0.00    -0.214 NA
BRANCH   4   3
ATOM      1  C   UNL     1      59.145  48.700  24.706  0.00  0.00    +0.020 A 
ATOM      2  C   UNL     1      60.266  49.421  24.147  0.00  0.00    +0.013 A 
ATOM      3  C   UNL     1      60.053  50.550  23.250  0.00  0.00    +0.019 A 
ATOM     38  C   UNL     1      58.683  50.927  22.937  0.00  0.00    +0.120 A 
ATOM     39  N   UNL     1      57.624  50.214  23.490  0.00  0.00    -0.263 NA
ATOM     40  C   UNL     1      57.816  49.125  24.353  0.00  0.00    +0.111 A 
ENDBRANCH   4   3
ENDBRANCH  10   9
BRANCH  12  13
ATOM     13  N   UNL     1      67.708  51.513  18.229  0.00  0.00    -0.281 N 
ATOM     14  C   UNL     1      68.556  51.137  17.201  0.00  0.00    +0.248 C 
ATOM     30  O   UNL     1      68.196  50.913  16.055  0.00  0.00    -0.270 OA
ATOM     31  H   UNL     1      68.101  51.477  19.170  0.00  0.00    +0.155 HD
BRANCH  14  15
ATOM     15  C   UNL     1      70.013  50.973  17.491  0.00  0.00    +0.037 A 
ATOM     16  C   UNL     1      70.910  52.129  17.558  0.00  0.00    +0.013 A 
ATOM     17  C   UNL     1      72.315  51.941  17.822  0.00  0.00    +0.005 A 
ATOM     18  C   UNL     1      72.831  50.590  18.023  0.00  0.00    -0.033 A 
ATOM     28  C   UNL     1      71.918  49.460  17.956  0.00  0.00    +0.005 A 
ATOM     29  C   UNL     1      70.541  49.641  17.696  0.00  0.00    +0.013 A 
BRANCH  18  19
ATOM     19  C   UNL     1      74.319  50.293  18.289  0.00  0.00    +0.119 C 
BRANCH  19  20
ATOM     20  N   UNL     1      74.676  49.733  19.626  0.00  0.00    -0.302 NA
ATOM     21  C   UNL     1      75.661  50.631  20.380  0.00  0.00    +0.066 C 
ATOM     22  C   UNL     1      76.007  50.041  21.787  0.00  0.00    -0.064 C 
ATOM     23  N   UNL     1      76.576  48.632  21.620  0.00  0.00    +0.379 N 
ATOM     24  C   UNL     1      76.956  48.097  22.936  0.00  0.00    -0.096 C 
ATOM     25  H   UNL     1      77.504  48.713  21.007  0.00  0.00    -0.082 HD
ATOM     26  C   UNL     1      75.604  47.733  20.869  0.00  0.00    -0.064 C 
ATOM     27  C   UNL     1      75.245  48.343  19.485  0.00  0.00    +0.066 C 
ENDBRANCH  19  20
ENDBRANCH  18  19
ENDBRANCH  14  15
ENDBRANCH  12  13
TORSDOF 6
ENDMDL
MODEL 2
REMARK VINA RESULT:      -7.7     24.846     32.035
REMARK  Name = C:\Users\Docking\Desktop\test protocol\1iep_ligandH.pdb
REMARK  8 active torsions:
REMARK  status: ('A' for Active; 'I' for Inactive)
REMARK    1  A    between atoms: _5  and  _11
REMARK    2  A    between atoms: _19  and  _21
REMARK    3  A    between atoms: _22  and  _66
REMARK    4  A    between atoms: _27  and  _30
REMARK    5  A    between atoms: _32  and  _33
REMARK    6  A    between atoms: _38  and  _43
REMARK    7  A    between atoms: _43  and  _46
REMARK    8  A    between atoms: _53  and  _55
REMARK                            x       y       z     vdW  Elec       q    Type
REMARK                         _______ _______ _______ _____ _____    ______ ____
ROOT
ATOM     10  C   UNL     1      80.741  39.381  41.728  0.00  0.00    +0.038 A 
ATOM     11  C   UNL     1      80.828  37.977  41.912  0.00  0.00    +0.047 A 
ATOM     12  C   UNL     1      80.560  37.370  43.206  0.00  0.00    +0.035 A 
ATOM     32  C   UNL     1      80.203  38.222  44.292  0.00  0.00    +0.024 A 
ATOM     33  C   UNL     1      80.111  39.651  44.123  0.00  0.00    +0.007 A 
ATOM     34  C   UNL     1      80.376  40.256  42.849  0.00  0.00    -0.029 A 
ATOM     35  C   UNL     1      80.269  41.794  42.727  0.00  0.00    +0.045 C 
ENDROOT
BRANCH  10   9
ATOM      4  C   UNL     1      83.758  40.576  38.192  0.00  0.00    +0.077 A 
ATOM      5  C   UNL     1      84.901  40.132  38.937  0.00  0.00    +0.048 A 
ATOM      6  C   UNL     1      84.670  39.609  40.229  0.00  0.00    +0.116 A 
ATOM      7  N   UNL     1      83.387  39.540  40.729  0.00  0.00    -0.223 NA
ATOM      8  C   UNL     1      82.307  39.978  39.984  0.00  0.00    +0.220 A 
ATOM      9  N   UNL     1      81.008  39.910  40.464  0.00  0.00    -0.283 N 
ATOM     36  H   UNL     1      80.240  40.251  39.887  0.00  0.00    +0.155 HD
ATOM     37  N   UNL     1      82.502  40.483  38.748  0.00  0.00    -0.214 NA
BRANCH   4   3
ATOM      1  C   UNL     1      84.689  41.147  34.436  0.00  0.00    +0.020 A 
ATOM      2  C   UNL     1      84.645  40.554  35.753  0.00  0.00    +0.013 A 
ATOM      3  C   UNL     1      83.839  41.149  36.811  0.00  0.00    +0.019 A 
ATOM     38  C   UNL     1      83.083  42.353  36.502  0.00  0.00    +0.120 A 
ATOM     39  N   UNL     1      83.146  42.903  35.225  0.00  0.00    -0.263 NA
ATOM     40  C   UNL     1      83.919  42.340  34.199  0.00  0.00    +0.111 A 
ENDBRANCH   4   3
ENDBRANCH  10   9
BRANCH  12  13
ATOM     13  N   UNL     1      80.640  35.952  43.455  0.00  0.00    -0.281 N 
ATOM     14  C   UNL     1      81.509  35.284  44.302  0.00  0.00    +0.248 C 
ATOM     30  O   UNL     1      82.496  35.788  44.817  0.00  0.00    -0.270 OA
ATOM     31  H   UNL     1      79.976  35.370  42.945  0.00  0.00    +0.155 HD
BRANCH  14  15
ATOM     15  C   UNL     1      81.252  33.844  44.611  0.00  0.00    +0.037 A 
ATOM     16  C   UNL     1      80.676  33.433  45.894  0.00  0.00    +0.013 A 
ATOM     17  C   UNL     1      80.455  32.037  46.174  0.00  0.00    +0.005 A 
ATOM     18  C   UNL     1      80.808  31.040  45.166  0.00  0.00    -0.033 A 
ATOM     28  C   UNL     1      81.373  31.476  43.899  0.00  0.00    +0.005 A 
ATOM     29  C   UNL     1      81.593  32.844  43.623  0.00  0.00    +0.013 A 
BRANCH  18  19
ATOM     19  C   UNL     1      80.626  29.527  45.386  0.00  0.00    +0.119 C 
BRANCH  19  20
ATOM     20  N   UNL     1      81.610  28.616  44.727  0.00  0.00    -0.302 NA
ATOM     21  C   UNL     1      80.959  27.760  43.637  0.00  0.00    +0.066 C 
ATOM     22  C   UNL     1      82.007  26.830  42.943  0.00  0.00    -0.064 C 
ATOM     23  N   UNL     1      82.678  25.947  43.996  0.00  0.00    +0.379 N 
ATOM     24  C   UNL     1      83.622  25.031  43.339  0.00  0.00    -0.096 C 
ATOM     25  H   UNL     1      81.884  25.329  44.474  0.00  0.00    -0.082 HD
ATOM     26  C   UNL     1      83.325  26.791  45.086  0.00  0.00    -0.064 C 
ATOM     27  C   UNL     1      82.281  27.732  45.749  0.00  0.00    +0.066 C 
ENDBRANCH  19  20
ENDBRANCH  18  19
ENDBRANCH  14  15
ENDBRANCH  12  13
TORSDOF 6
ENDMDL
MODEL 3
REMARK VINA RESULT:      -7.6     24.311     29.189
REMARK  Name = C:\Users\Docking\Desktop\test protocol\1iep_ligandH.pdb
REMARK  8 active torsions:
REMARK  status: ('A' for Active; 'I' for Inactive)
REMARK    1  A    between atoms: _5  and  _11
REMARK    2  A    between atoms: _19  and  _21
REMARK    3  A    between atoms: _22  and  _66
REMARK    4  A    between atoms: _27  and  _30
REMARK    5  A    between atoms: _32  and  _33
REMARK    6  A    between atoms: _38  and  _43
REMARK    7  A    between atoms: _43  and  _46
REMARK    8  A    between atoms: _53  and  _55
REMARK                            x       y       z     vdW  Elec       q    Type
REMARK                         _______ _______ _______ _____ _____    ______ ____
ROOT
ATOM     10  C   UNL     1      58.502  52.398  50.553  0.00  0.00    +0.038 A 
ATOM     11  C   UNL     1      59.285  52.596  49.386  0.00  0.00    +0.047 A 
ATOM     12  C   UNL     1      58.847  53.495  48.330  0.00  0.00    +0.035 A 
ATOM     32  C   UNL     1      57.608  54.180  48.496  0.00  0.00    +0.024 A 
ATOM     33  C   UNL     1      56.799  53.990  49.674  0.00  0.00    +0.007 A 
ATOM     34  C   UNL     1      57.225  53.102  50.718  0.00  0.00    -0.029 A 
ATOM     35  C   UNL     1      56.314  52.932  51.957  0.00  0.00    +0.045 C 
ENDROOT
BRANCH  10   9
ATOM      4  C   UNL     1      59.161  47.987  52.326  0.00  0.00    +0.077 A 
ATOM      5  C   UNL     1      58.492  47.376  51.213  0.00  0.00    +0.048 A 
ATOM      6  C   UNL     1      57.987  48.232  50.210  0.00  0.00    +0.116 A 
ATOM      7  N   UNL     1      58.145  49.597  50.320  0.00  0.00    -0.223 NA
ATOM      8  C   UNL     1      58.793  50.154  51.407  0.00  0.00    +0.220 A 
ATOM      9  N   UNL     1      58.970  51.523  51.535  0.00  0.00    -0.283 N 
ATOM     36  H   UNL     1      59.447  51.895  52.356  0.00  0.00    +0.155 HD
ATOM     37  N   UNL     1      59.283  49.358  52.380  0.00  0.00    -0.214 NA
BRANCH   4   3
ATOM      1  C   UNL     1      60.574  45.083  54.532  0.00  0.00    +0.020 A 
ATOM      2  C   UNL     1      60.001  45.781  53.405  0.00  0.00    +0.013 A 
ATOM      3  C   UNL     1      59.752  47.215  53.465  0.00  0.00    +0.019 A 
ATOM     38  C   UNL     1      60.097  47.920  54.690  0.00  0.00    +0.120 A 
ATOM     39  N   UNL     1      60.646  47.222  55.760  0.00  0.00    -0.263 NA
ATOM     40  C   UNL     1      60.889  45.841  55.715  0.00  0.00    +0.111 A 
ENDBRANCH   4   3
ENDBRANCH  10   9
BRANCH  12  13
ATOM     13  N   UNL     1      59.596  53.730  47.120  0.00  0.00    -0.281 N 
ATOM     14  C   UNL     1      59.125  53.746  45.817  0.00  0.00    +0.248 C 
ATOM     30  O   UNL     1      58.021  53.349  45.476  0.00  0.00    -0.270 OA
ATOM     31  H   UNL     1      60.594  53.904  47.238  0.00  0.00    +0.155 HD
BRANCH  14  15
ATOM     15  C   UNL     1      60.014  54.267  44.735  0.00  0.00    +0.037 A 
ATOM     16  C   UNL     1      59.821  53.873  43.337  0.00  0.00    +0.013 A 
ATOM     17  C   UNL     1      60.703  54.376  42.315  0.00  0.00    +0.005 A 
ATOM     18  C   UNL     1      61.789  55.280  42.687  0.00  0.00    -0.033 A 
ATOM     28  C   UNL     1      61.955  55.659  44.081  0.00  0.00    +0.005 A 
ATOM     29  C   UNL     1      61.092  55.167  45.086  0.00  0.00    +0.013 A 
BRANCH  18  19
ATOM     19  C   UNL     1      62.791  55.849  41.666  0.00  0.00    +0.119 C 
BRANCH  19  20
ATOM     20  N   UNL     1      62.787  55.251  40.297  0.00  0.00    -0.302 NA
ATOM     21  C   UNL     1      64.111  54.554  39.971  0.00  0.00    +0.066 C 
ATOM     22  C   UNL     1      64.081  53.914  38.545  0.00  0.00    -0.064 C 
ATOM     23  N   UNL     1      63.769  54.997  37.510  0.00  0.00    +0.379 N 
ATOM     24  C   UNL     1      63.797  54.410  36.162  0.00  0.00    -0.096 C 
ATOM     25  H   UNL     1      64.580  55.759  37.564  0.00  0.00    -0.082 HD
ATOM     26  C   UNL     1      62.455  55.697  37.828  0.00  0.00    -0.064 C 
ATOM     27  C   UNL     1      62.485  56.303  39.259  0.00  0.00    +0.066 C 
ENDBRANCH  19  20
ENDBRANCH  18  19
ENDBRANCH  14  15
ENDBRANCH  12  13
TORSDOF 6
ENDMDL
