MODEL 1
REMARK VINA RESULT:      -8.0      0.000      0.000
REMARK  Name = C:\Users\Docking\Desktop\test protocol\1iep_ligandH.pdb
REMARK  8 active torsions:
REMARK  status: ('A' for Active; 'I' for Inactive)
REMARK    1  A    between atoms: _5  and  _11
REMARK    2  A    between atoms: _19  and  _21
REMARK    3  A    between atoms: _22  and  _66
REMARK    4  A    between atoms: _27  and  _30
REMARK    5  A    between atoms: _32  and  _33
REMARK    6  A    between atoms: _38  and  _43
REMARK    7  A    between atoms: _43  and  _46
REMARK    8  A    between atoms: _53  and  _55
REMARK                            x       y       z     vdW  Elec       q    Type
REMARK                         _______ _______ _______ _____ _____    ______ ____
ROOT
ATOM     10  C   UNL     1     -15.590  20.810  30.487  0.00  0.00    +0.038 A 
ATOM     11  C   UNL     1     -14.648  20.114  29.688  0.00  0.00    +0.047 A 
ATOM     12  C   UNL     1     -13.821  19.056  30.249  0.00  0.00    +0.035 A 
ATOM     32  C   UNL     1     -13.983  18.732  31.627  0.00  0.00    +0.024 A 
ATOM     33  C   UNL     1     -14.935  19.430  32.454  0.00  0.00    +0.007 A 
ATOM     34  C   UNL     1     -15.751  20.476  31.907  0.00  0.00    -0.029 A 
ATOM     35  C   UNL     1     -16.751  21.196  32.842  0.00  0.00    +0.045 C 
ENDROOT
BRANCH  10   9
ATOM      4  C   UNL     1     -16.414  25.408  29.384  0.00  0.00    +0.077 A 
ATOM      5  C   UNL     1     -15.229  25.845  30.065  0.00  0.00    +0.048 A 
ATOM      6  C   UNL     1     -14.439  24.856  30.692  0.00  0.00    +0.116 A 
ATOM      7  N   UNL     1     -14.815  23.532  30.636  0.00  0.00    -0.223 NA
ATOM      8  C   UNL     1     -15.965  23.144  29.973  0.00  0.00    +0.220 A 
ATOM      9  N   UNL     1     -16.358  21.817  29.897  0.00  0.00    -0.283 N 
ATOM     36  H   UNL     1     -17.216  21.573  29.404  0.00  0.00    +0.155 HD
ATOM     37  N   UNL     1     -16.737  24.070  29.367  0.00  0.00    -0.214 NA
BRANCH   4   3
ATOM      1  C   UNL     1     -18.737  28.436  28.525  0.00  0.00    +0.020 A 
ATOM      2  C   UNL     1     -17.834  27.578  29.257  0.00  0.00    +0.013 A 
ATOM      3  C   UNL     1     -17.350  26.334  28.671  0.00  0.00    +0.019 A 
ATOM     38  C   UNL     1     -17.802  25.985  27.332  0.00  0.00    +0.120 A 
ATOM     39  N   UNL     1     -18.673  26.831  26.652  0.00  0.00    -0.263 NA
ATOM     40  C   UNL     1     -19.146  28.030  27.207  0.00  0.00    +0.111 A 
ENDBRANCH   4   3
ENDBRANCH  10   9
BRANCH  12  13
ATOM     13  N   UNL     1     -12.842  18.320  29.489  0.00  0.00    -0.281 N 
ATOM     14  C   UNL     1     -12.843  16.969  29.181  0.00  0.00    +0.248 C 
ATOM     30  O   UNL     1     -13.581  16.143  29.696  0.00  0.00    -0.270 OA
ATOM     31  H   UNL     1     -12.052  18.860  29.134  0.00  0.00    +0.155 HD
BRANCH  14  15
ATOM     15  C   UNL     1     -11.873  16.460  28.163  0.00  0.00    +0.037 A 
ATOM     16  C   UNL     1     -12.183  15.291  27.337  0.00  0.00    +0.013 A 
ATOM     17  C   UNL     1     -11.223  14.810  26.375  0.00  0.00    +0.005 A 
ATOM     18  C   UNL     1      -9.944  15.501  26.233  0.00  0.00    -0.033 A 
ATOM     28  C   UNL     1      -9.665  16.663  27.061  0.00  0.00    +0.005 A 
ATOM     29  C   UNL     1     -10.603  17.136  28.006  0.00  0.00    +0.013 A 
BRANCH  18  19
ATOM     19  C   UNL     1      -8.853  15.046  25.246  0.00  0.00    +0.119 C 
BRANCH  19  20
ATOM     20  N   UNL     1      -8.570  15.935  24.081  0.00  0.00    -0.302 NA
ATOM     21  C   UNL     1      -8.382  15.142  22.785  0.00  0.00    +0.066 C 
ATOM     22  C   UNL     1      -8.109  16.090  21.571  0.00  0.00    -0.064 C 
ATOM     23  N   UNL     1      -6.877  16.947  21.865  0.00  0.00    +0.379 N 
ATOM     24  C   UNL     1      -6.583  17.798  20.702  0.00  0.00    -0.096 C 
ATOM     25  H   UNL     1      -6.012  16.258  22.007  0.00  0.00    -0.082 HD
ATOM     26  C   UNL     1      -7.054  17.737  23.153  0.00  0.00    -0.064 C 
ATOM     27  C   UNL     1      -7.354  16.788  24.347  0.00  0.00    +0.066 C 
ENDBRANCH  19  20
ENDBRANCH  18  19
ENDBRANCH  14  15
ENDBRANCH  12  13
TORSDOF 6
ENDMDL
MODEL 2
REMARK VINA RESULT:      -7.9      2.364      3.467
REMARK  Name = C:\Users\Docking\Desktop\test protocol\1iep_ligandH.pdb
REMARK  8 active torsions:
REMARK  status: ('A' for Active; 'I' for Inactive)
REMARK    1  A    between atoms: _5  and  _11
REMARK    2  A    between atoms: _19  and  _21
REMARK    3  A    between atoms: _22  and  _66
REMARK    4  A    between atoms: _27  and  _30
REMARK    5  A    between atoms: _32  and  _33
REMARK    6  A    between atoms: _38  and  _43
REMARK    7  A    between atoms: _43  and  _46
REMARK    8  A    between atoms: _53  and  _55
REMARK                            x       y       z     vdW  Elec       q    Type
REMARK                         _______ _______ _______ _____ _____    ______ ____
ROOT
ATOM     10  C   UNL     1     -15.615  20.577  30.237  0.00  0.00    +0.038 A 
ATOM     11  C   UNL     1     -14.719  19.884  29.383  0.00  0.00    +0.047 A 
ATOM     12  C   UNL     1     -13.915  18.776  29.875  0.00  0.00    +0.035 A 
ATOM     32  C   UNL     1     -14.051  18.398  31.243  0.00  0.00    +0.024 A 
ATOM     33  C   UNL     1     -14.955  19.092  32.126  0.00  0.00    +0.007 A 
ATOM     34  C   UNL     1     -15.749  20.187  31.646  0.00  0.00    -0.029 A 
ATOM     35  C   UNL     1     -16.698  20.899  32.639  0.00  0.00    +0.045 C 
ENDROOT
BRANCH  10   9
ATOM      4  C   UNL     1     -16.325  25.246  29.384  0.00  0.00    +0.077 A 
ATOM      5  C   UNL     1     -15.118  25.615  30.065  0.00  0.00    +0.048 A 
ATOM      6  C   UNL     1     -14.346  24.573  30.627  0.00  0.00    +0.116 A 
ATOM      7  N   UNL     1     -14.761  23.264  30.511  0.00  0.00    -0.223 NA
ATOM      8  C   UNL     1     -15.931  22.943  29.848  0.00  0.00    +0.220 A 
ATOM      9  N   UNL     1     -16.363  21.633  29.712  0.00  0.00    -0.283 N 
ATOM     36  H   UNL     1     -17.236  21.438  29.223  0.00  0.00    +0.155 HD
ATOM     37  N   UNL     1     -16.687  23.920  29.304  0.00  0.00    -0.214 NA
BRANCH   4   3
ATOM      1  C   UNL     1     -18.546  28.394  28.705  0.00  0.00    +0.020 A 
ATOM      2  C   UNL     1     -17.655  27.475  29.375  0.00  0.00    +0.013 A 
ATOM      3  C   UNL     1     -17.246  26.232  28.734  0.00  0.00    +0.019 A 
ATOM     38  C   UNL     1     -17.760  25.946  27.403  0.00  0.00    +0.120 A 
ATOM     39  N   UNL     1     -18.617  26.849  26.782  0.00  0.00    -0.263 NA
ATOM     40  C   UNL     1     -19.019  28.048  27.390  0.00  0.00    +0.111 A 
ENDBRANCH   4   3
ENDBRANCH  10   9
BRANCH  12  13
ATOM     13  N   UNL     1     -12.983  18.041  29.057  0.00  0.00    -0.281 N 
ATOM     14  C   UNL     1     -11.643  17.793  29.305  0.00  0.00    +0.248 C 
ATOM     30  O   UNL     1     -10.986  18.352  30.171  0.00  0.00    -0.270 OA
ATOM     31  H   UNL     1     -13.357  17.656  28.189  0.00  0.00    +0.155 HD
BRANCH  14  15
ATOM     15  C   UNL     1     -10.925  16.791  28.460  0.00  0.00    +0.037 A 
ATOM     16  C   UNL     1      -9.463  16.705  28.459  0.00  0.00    +0.013 A 
ATOM     17  C   UNL     1      -8.795  15.741  27.622  0.00  0.00    +0.005 A 
ATOM     18  C   UNL     1      -9.591  14.852  26.779  0.00  0.00    -0.033 A 
ATOM     28  C   UNL     1     -11.040  14.954  26.803  0.00  0.00    +0.005 A 
ATOM     29  C   UNL     1     -11.698  15.899  27.622  0.00  0.00    +0.013 A 
BRANCH  18  19
ATOM     19  C   UNL     1      -8.962  13.806  25.839  0.00  0.00    +0.119 C 
BRANCH  19  20
ATOM     20  N   UNL     1      -9.498  12.414  25.907  0.00  0.00    -0.302 NA
ATOM     21  C   UNL     1      -8.417  11.401  26.292  0.00  0.00    +0.066 C 
ATOM     22  C   UNL     1      -9.000   9.953  26.381  0.00  0.00    -0.064 C 
ATOM     23  N   UNL     1      -9.640   9.580  25.043  0.00  0.00    +0.379 N 
ATOM     24  C   UNL     1     -10.138   8.198  25.105  0.00  0.00    -0.096 C 
ATOM     25  H   UNL     1      -8.843   9.618  24.265  0.00  0.00    -0.082 HD
ATOM     26  C   UNL     1     -10.715  10.585  24.651  0.00  0.00    -0.064 C 
ATOM     27  C   UNL     1     -10.131  12.024  24.594  0.00  0.00    +0.066 C 
ENDBRANCH  19  20
ENDBRANCH  18  19
ENDBRANCH  14  15
ENDBRANCH  12  13
TORSDOF 6
ENDMDL
MODEL 3
REMARK VINA RESULT:      -7.9      2.257     11.896
REMARK  Name = C:\Users\Docking\Desktop\test protocol\1iep_ligandH.pdb
REMARK  8 active torsions:
REMARK  status: ('A' for Active; 'I' for Inactive)
REMARK    1  A    between atoms: _5  and  _11
REMARK    2  A    between atoms: _19  and  _21
REMARK    3  A    between atoms: _22  and  _66
REMARK    4  A    between atoms: _27  and  _30
REMARK    5  A    between atoms: _32  and  _33
REMARK    6  A    between atoms: _38  and  _43
REMARK    7  A    between atoms: _43  and  _46
REMARK    8  A    between atoms: _53  and  _55
REMARK                            x       y       z     vdW  Elec       q    Type
REMARK                         _______ _______ _______ _____ _____    ______ ____
ROOT
ATOM     10  C   UNL     1     -10.317  14.111  25.900  0.00  0.00    +0.038 A 
ATOM     11  C   UNL     1     -11.088  15.035  26.652  0.00  0.00    +0.047 A 
ATOM     12  C   UNL     1     -12.236  14.598  27.431  0.00  0.00    +0.035 A 
ATOM     32  C   UNL     1     -12.570  13.212  27.425  0.00  0.00    +0.024 A 
ATOM     33  C   UNL     1     -11.798  12.260  26.665  0.00  0.00    +0.007 A 
ATOM     34  C   UNL     1     -10.666  12.685  25.893  0.00  0.00    -0.029 A 
ATOM     35  C   UNL     1      -9.879  11.621  25.093  0.00  0.00    +0.045 C 
ENDROOT
BRANCH  10   9
ATOM      4  C   UNL     1      -8.411  16.313  22.085  0.00  0.00    +0.077 A 
ATOM      5  C   UNL     1      -9.698  16.513  21.483  0.00  0.00    +0.048 A 
ATOM      6  C   UNL     1     -10.825  16.027  22.184  0.00  0.00    +0.116 A 
ATOM      7  N   UNL     1     -10.665  15.392  23.397  0.00  0.00    -0.223 NA
ATOM      8  C   UNL     1      -9.409  15.214  23.948  0.00  0.00    +0.220 A 
ATOM      9  N   UNL     1      -9.225  14.585  25.170  0.00  0.00    -0.283 N 
ATOM     36  H   UNL     1      -8.282  14.467  25.540  0.00  0.00    +0.155 HD
ATOM     37  N   UNL     1      -8.317  15.668  23.298  0.00  0.00    -0.214 NA
BRANCH   4   3
ATOM      1  C   UNL     1      -5.300  16.624  19.735  0.00  0.00    +0.020 A 
ATOM      2  C   UNL     1      -6.543  16.142  20.291  0.00  0.00    +0.013 A 
ATOM      3  C   UNL     1      -7.127  16.772  21.469  0.00  0.00    +0.019 A 
ATOM     38  C   UNL     1      -6.422  17.899  22.063  0.00  0.00    +0.120 A 
ATOM     39  N   UNL     1      -5.226  18.341  21.506  0.00  0.00    -0.263 NA
ATOM     40  C   UNL     1      -4.654  17.740  20.374  0.00  0.00    +0.111 A 
ENDBRANCH   4   3
ENDBRANCH  10   9
BRANCH  12  13
ATOM     13  N   UNL     1     -13.060  15.491  28.207  0.00  0.00    -0.281 N 
ATOM     14  C   UNL     1     -12.895  15.870  29.530  0.00  0.00    +0.248 C 
ATOM     30  O   UNL     1     -12.129  15.328  30.313  0.00  0.00    -0.270 OA
ATOM     31  H   UNL     1     -13.863  15.893  27.723  0.00  0.00    +0.155 HD
BRANCH  14  15
ATOM     15  C   UNL     1     -13.708  17.005  30.063  0.00  0.00    +0.037 A 
ATOM     16  C   UNL     1     -14.889  16.768  30.897  0.00  0.00    +0.013 A 
ATOM     17  C   UNL     1     -15.665  17.880  31.384  0.00  0.00    +0.005 A 
ATOM     18  C   UNL     1     -15.262  19.241  31.039  0.00  0.00    -0.033 A 
ATOM     28  C   UNL     1     -14.083  19.448  30.213  0.00  0.00    +0.005 A 
ATOM     29  C   UNL     1     -13.320  18.360  29.733  0.00  0.00    +0.013 A 
BRANCH  18  19
ATOM     19  C   UNL     1     -16.043  20.487  31.497  0.00  0.00    +0.119 C 
BRANCH  19  20
ATOM     20  N   UNL     1     -15.460  21.821  31.163  0.00  0.00    -0.302 NA
ATOM     21  C   UNL     1     -15.747  22.861  32.249  0.00  0.00    +0.066 C 
ATOM     22  C   UNL     1     -15.111  24.245  31.894  0.00  0.00    -0.064 C 
ATOM     23  N   UNL     1     -15.643  24.715  30.539  0.00  0.00    +0.379 N 
ATOM     24  C   UNL     1     -15.091  26.042  30.229  0.00  0.00    -0.096 C 
ATOM     25  H   UNL     1     -16.749  24.821  30.628  0.00  0.00    -0.082 HD
ATOM     26  C   UNL     1     -15.364  23.685  29.454  0.00  0.00    -0.064 C 
ATOM     27  C   UNL     1     -15.975  22.306  29.830  0.00  0.00    +0.066 C 
ENDBRANCH  19  20
ENDBRANCH  18  19
ENDBRANCH  14  15
ENDBRANCH  12  13
TORSDOF 6
ENDMDL
MODEL 4
REMARK VINA RESULT:      -7.9      3.544     12.326
REMARK  Name = C:\Users\Docking\Desktop\test protocol\1iep_ligandH.pdb
REMARK  8 active torsions:
REMARK  status: ('A' for Active; 'I' for Inactive)
REMARK    1  A    between atoms: _5  and  _11
REMARK    2  A    between atoms: _19  and  _21
REMARK    3  A    between atoms: _22  and  _66
REMARK    4  A    between atoms: _27  and  _30
REMARK    5  A    between atoms: _32  and  _33
REMARK    6  A    between atoms: _38  and  _43
REMARK    7  A    between atoms: _43  and  _46
REMARK    8  A    between atoms: _53  and  _55
REMARK                            x       y       z     vdW  Elec       q    Type
REMARK                         _______ _______ _______ _____ _____    ______ ____
ROOT
ATOM     10  C   UNL     1     -10.419  14.322  26.120  0.00  0.00    +0.038 A 
ATOM     11  C   UNL     1     -11.224  15.202  26.888  0.00  0.00    +0.047 A 
ATOM     12  C   UNL     1     -12.389  14.717  27.613  0.00  0.00    +0.035 A 
ATOM     32  C   UNL     1     -12.703  13.329  27.536  0.00  0.00    +0.024 A 
ATOM     33  C   UNL     1     -11.896  12.421  26.759  0.00  0.00    +0.007 A 
ATOM     34  C   UNL     1     -10.748  12.893  26.040  0.00  0.00    -0.029 A 
ATOM     35  C   UNL     1      -9.923  11.876  25.219  0.00  0.00    +0.045 C 
ENDROOT
BRANCH  10   9
ATOM      4  C   UNL     1      -8.401  16.492  22.345  0.00  0.00    +0.077 A 
ATOM      5  C   UNL     1      -9.653  16.575  21.649  0.00  0.00    +0.048 A 
ATOM      6  C   UNL     1     -10.791  16.041  22.294  0.00  0.00    +0.116 A 
ATOM      7  N   UNL     1     -10.674  15.469  23.542  0.00  0.00    -0.223 NA
ATOM      8  C   UNL     1      -9.452  15.404  24.185  0.00  0.00    +0.220 A 
ATOM      9  N   UNL     1      -9.313  14.841  25.444  0.00  0.00    -0.283 N 
ATOM     36  H   UNL     1      -8.392  14.805  25.882  0.00  0.00    +0.155 HD
ATOM     37  N   UNL     1      -8.350  15.906  23.590  0.00  0.00    -0.214 NA
BRANCH   4   3
ATOM      1  C   UNL     1      -5.329  17.148  20.015  0.00  0.00    +0.020 A 
ATOM      2  C   UNL     1      -6.580  16.613  20.499  0.00  0.00    +0.013 A 
ATOM      3  C   UNL     1      -7.110  17.015  21.796  0.00  0.00    +0.019 A 
ATOM     38  C   UNL     1      -6.344  17.968  22.584  0.00  0.00    +0.120 A 
ATOM     39  N   UNL     1      -5.141  18.466  22.092  0.00  0.00    -0.263 NA
ATOM     40  C   UNL     1      -4.620  18.085  20.847  0.00  0.00    +0.111 A 
ENDBRANCH   4   3
ENDBRANCH  10   9
BRANCH  12  13
ATOM     13  N   UNL     1     -13.248  15.565  28.402  0.00  0.00    -0.281 N 
ATOM     14  C   UNL     1     -12.969  16.161  29.621  0.00  0.00    +0.248 C 
ATOM     30  O   UNL     1     -12.009  15.882  30.324  0.00  0.00    -0.270 OA
ATOM     31  H   UNL     1     -14.174  15.747  28.015  0.00  0.00    +0.155 HD
BRANCH  14  15
ATOM     15  C   UNL     1     -13.898  17.210  30.141  0.00  0.00    +0.037 A 
ATOM     16  C   UNL     1     -13.798  18.602  29.695  0.00  0.00    +0.013 A 
ATOM     17  C   UNL     1     -14.696  19.598  30.225  0.00  0.00    +0.005 A 
ATOM     18  C   UNL     1     -15.704  19.203  31.207  0.00  0.00    -0.033 A 
ATOM     28  C   UNL     1     -15.784  17.814  31.627  0.00  0.00    +0.005 A 
ATOM     29  C   UNL     1     -14.905  16.836  31.111  0.00  0.00    +0.013 A 
BRANCH  18  19
ATOM     19  C   UNL     1     -16.689  20.202  31.842  0.00  0.00    +0.119 C 
BRANCH  19  20
ATOM     20  N   UNL     1     -16.151  21.124  32.885  0.00  0.00    -0.302 NA
ATOM     21  C   UNL     1     -16.695  20.796  34.278  0.00  0.00    +0.066 C 
ATOM     22  C   UNL     1     -16.104  21.756  35.361  0.00  0.00    -0.064 C 
ATOM     23  N   UNL     1     -16.422  23.204  34.983  0.00  0.00    +0.379 N 
ATOM     24  C   UNL     1     -15.918  24.106  36.029  0.00  0.00    -0.096 C 
ATOM     25  H   UNL     1     -17.531  23.308  34.952  0.00  0.00    -0.082 HD
ATOM     26  C   UNL     1     -15.887  23.538  33.598  0.00  0.00    -0.064 C 
ATOM     27  C   UNL     1     -16.458  22.560  32.534  0.00  0.00    +0.066 C 
ENDBRANCH  19  20
ENDBRANCH  18  19
ENDBRANCH  14  15
ENDBRANCH  12  13
TORSDOF 6
ENDMDL
MODEL 5
REMARK VINA RESULT:      -7.8      4.489     14.420
REMARK  Name = C:\Users\Docking\Desktop\test protocol\1iep_ligandH.pdb
REMARK  8 active torsions:
REMARK  status: ('A' for Active; 'I' for Inactive)
REMARK    1  A    between atoms: _5  and  _11
REMARK    2  A    between atoms: _19  and  _21
REMARK    3  A    between atoms: _22  and  _66
REMARK    4  A    between atoms: _27  and  _30
REMARK    5  A    between atoms: _32  and  _33
REMARK    6  A    between atoms: _38  and  _43
REMARK    7  A    between atoms: _43  and  _46
REMARK    8  A    between atoms: _53  and  _55
REMARK                            x       y       z     vdW  Elec       q    Type
REMARK                         _______ _______ _______ _____ _____    ______ ____
ROOT
ATOM     10  C   UNL     1      -9.733  13.743  25.916  0.00  0.00    +0.038 A 
ATOM     11  C   UNL     1     -10.666  14.189  26.887  0.00  0.00    +0.047 A 
ATOM     12  C   UNL     1     -11.492  15.364  26.653  0.00  0.00    +0.035 A 
ATOM     32  C   UNL     1     -11.344  16.058  25.417  0.00  0.00    +0.024 A 
ATOM     33  C   UNL     1     -10.400  15.620  24.420  0.00  0.00    +0.007 A 
ATOM     34  C   UNL     1      -9.580  14.464  24.646  0.00  0.00    -0.029 A 
ATOM     35  C   UNL     1      -8.580  14.042  23.544  0.00  0.00    +0.045 C 
ENDROOT
BRANCH  10   9
ATOM      4  C   UNL     1      -8.828   9.046  25.528  0.00  0.00    +0.077 A 
ATOM      5  C   UNL     1      -9.998   8.826  24.728  0.00  0.00    +0.048 A 
ATOM      6  C   UNL     1     -10.810   9.947  24.445  0.00  0.00    +0.116 A 
ATOM      7  N   UNL     1     -10.468  11.191  24.930  0.00  0.00    -0.223 NA
ATOM      8  C   UNL     1      -9.333  11.367  25.701  0.00  0.00    +0.220 A 
ATOM      9  N   UNL     1      -8.965  12.610  26.193  0.00  0.00    -0.283 N 
ATOM     36  H   UNL     1      -8.125  12.698  26.764  0.00  0.00    +0.155 HD
ATOM     37  N   UNL     1      -8.542  10.312  25.986  0.00  0.00    -0.214 NA
BRANCH   4   3
ATOM      1  C   UNL     1      -7.312   5.571  26.490  0.00  0.00    +0.020 A 
ATOM      2  C   UNL     1      -8.279   6.580  26.123  0.00  0.00    +0.013 A 
ATOM      3  C   UNL     1      -7.868   7.962  25.910  0.00  0.00    +0.019 A 
ATOM     38  C   UNL     1      -6.461   8.292  26.077  0.00  0.00    +0.120 A 
ATOM     39  N   UNL     1      -5.553   7.300  26.432  0.00  0.00    -0.263 NA
ATOM     40  C   UNL     1      -5.937   5.967  26.642  0.00  0.00    +0.111 A 
ENDBRANCH   4   3
ENDBRANCH  10   9
BRANCH  12  13
ATOM     13  N   UNL     1     -12.450  15.868  27.605  0.00  0.00    -0.281 N 
ATOM     14  C   UNL     1     -12.235  16.212  28.929  0.00  0.00    +0.248 C 
ATOM     30  O   UNL     1     -11.226  15.934  29.560  0.00  0.00    -0.270 OA
ATOM     31  H   UNL     1     -13.403  15.986  27.260  0.00  0.00    +0.155 HD
BRANCH  14  15
ATOM     15  C   UNL     1     -13.301  16.960  29.664  0.00  0.00    +0.037 A 
ATOM     16  C   UNL     1     -14.199  16.279  30.600  0.00  0.00    +0.013 A 
ATOM     17  C   UNL     1     -15.230  17.021  31.282  0.00  0.00    +0.005 A 
ATOM     18  C   UNL     1     -15.366  18.453  31.031  0.00  0.00    -0.033 A 
ATOM     28  C   UNL     1     -14.458  19.104  30.102  0.00  0.00    +0.005 A 
ATOM     29  C   UNL     1     -13.448  18.380  29.430  0.00  0.00    +0.013 A 
BRANCH  18  19
ATOM     19  C   UNL     1     -16.451  19.320  31.699  0.00  0.00    +0.119 C 
BRANCH  19  20
ATOM     20  N   UNL     1     -15.995  20.350  32.679  0.00  0.00    -0.302 NA
ATOM     21  C   UNL     1     -16.768  20.270  33.998  0.00  0.00    +0.066 C 
ATOM     22  C   UNL     1     -16.263  21.341  35.020  0.00  0.00    -0.064 C 
ATOM     23  N   UNL     1     -16.393  22.733  34.400  0.00  0.00    +0.379 N 
ATOM     24  C   UNL     1     -15.973  23.747  35.379  0.00  0.00    -0.096 C 
ATOM     25  H   UNL     1     -17.471  22.905  34.176  0.00  0.00    -0.082 HD
ATOM     26  C   UNL     1     -15.629  22.821  33.086  0.00  0.00    -0.064 C 
ATOM     27  C   UNL     1     -16.118  21.734  32.089  0.00  0.00    +0.066 C 
ENDBRANCH  19  20
ENDBRANCH  18  19
ENDBRANCH  14  15
ENDBRANCH  12  13
TORSDOF 6
ENDMDL
