MODEL 1
REMARK VINA RESULT:      -8.4      0.000      0.000
REMARK  Name = C:\Users\Docking\Desktop\test protocol\1iep_ligandH.pdb
REMARK  8 active torsions:
REMARK  status: ('A' for Active; 'I' for Inactive)
REMARK    1  A    between atoms: _5  and  _11
REMARK    2  A    between atoms: _19  and  _21
REMARK    3  A    between atoms: _22  and  _66
REMARK    4  A    between atoms: _27  and  _30
REMARK    5  A    between atoms: _32  and  _33
REMARK    6  A    between atoms: _38  and  _43
REMARK    7  A    between atoms: _43  and  _46
REMARK    8  A    between atoms: _53  and  _55
REMARK                            x       y       z     vdW  Elec       q    Type
REMARK                         _______ _______ _______ _____ _____    ______ ____
ROOT
ATOM     10  C   UNL     1      59.044  18.291  23.959  0.00  0.00    +0.038 A 
ATOM     11  C   UNL     1      58.999  17.921  25.327  0.00  0.00    +0.047 A 
ATOM     12  C   UNL     1      58.097  18.584  26.257  0.00  0.00    +0.035 A 
ATOM     32  C   UNL     1      57.254  19.619  25.757  0.00  0.00    +0.024 A 
ATOM     33  C   UNL     1      57.288  20.009  24.370  0.00  0.00    +0.007 A 
ATOM     34  C   UNL     1      58.177  19.360  23.449  0.00  0.00    -0.029 A 
ATOM     35  C   UNL     1      58.176  19.823  21.973  0.00  0.00    +0.045 C 
ENDROOT
BRANCH  10   9
ATOM      4  C   UNL     1      63.102  18.056  21.406  0.00  0.00    +0.077 A 
ATOM      5  C   UNL     1      63.479  19.391  21.772  0.00  0.00    +0.048 A 
ATOM      6  C   UNL     1      62.598  20.107  22.612  0.00  0.00    +0.116 A 
ATOM      7  N   UNL     1      61.429  19.521  23.049  0.00  0.00    -0.223 NA
ATOM      8  C   UNL     1      61.095  18.233  22.677  0.00  0.00    +0.220 A 
ATOM      9  N   UNL     1      59.929  17.621  23.111  0.00  0.00    -0.283 N 
ATOM     36  H   UNL     1      59.714  16.671  22.807  0.00  0.00    +0.155 HD
ATOM     37  N   UNL     1      61.919  17.528  21.873  0.00  0.00    -0.214 NA
BRANCH   4   3
ATOM      1  C   UNL     1      65.443  16.770  18.549  0.00  0.00    +0.020 A 
ATOM      2  C   UNL     1      64.657  17.666  19.365  0.00  0.00    +0.013 A 
ATOM      3  C   UNL     1      63.930  17.171  20.527  0.00  0.00    +0.019 A 
ATOM     38  C   UNL     1      64.021  15.753  20.839  0.00  0.00    +0.120 A 
ATOM     39  N   UNL     1      64.784  14.913  20.034  0.00  0.00    -0.263 NA
ATOM     40  C   UNL     1      65.487  15.378  18.912  0.00  0.00    +0.111 A 
ENDBRANCH   4   3
ENDBRANCH  10   9
BRANCH  12  13
ATOM     13  N   UNL     1      58.013  18.256  27.658  0.00  0.00    -0.281 N 
ATOM     14  C   UNL     1      56.880  17.952  28.395  0.00  0.00    +0.248 C 
ATOM     30  O   UNL     1      55.735  18.126  28.005  0.00  0.00    -0.270 OA
ATOM     31  H   UNL     1      58.896  18.247  28.169  0.00  0.00    +0.155 HD
BRANCH  14  15
ATOM     15  C   UNL     1      57.042  17.387  29.769  0.00  0.00    +0.037 A 
ATOM     16  C   UNL     1      56.099  16.401  30.301  0.00  0.00    +0.013 A 
ATOM     17  C   UNL     1      56.269  15.884  31.637  0.00  0.00    +0.005 A 
ATOM     18  C   UNL     1      57.389  16.354  32.449  0.00  0.00    -0.033 A 
ATOM     28  C   UNL     1      58.313  17.329  31.894  0.00  0.00    +0.005 A 
ATOM     29  C   UNL     1      58.149  17.838  30.586  0.00  0.00    +0.013 A 
BRANCH  18  19
ATOM     19  C   UNL     1      57.635  15.873  33.891  0.00  0.00    +0.119 C 
BRANCH  19  20
ATOM     20  N   UNL     1      58.909  15.142  34.160  0.00  0.00    -0.302 NA
ATOM     21  C   UNL     1      59.185  14.063  33.108  0.00  0.00    +0.066 C 
ATOM     22  C   UNL     1      60.533  13.323  33.392  0.00  0.00    -0.064 C 
ATOM     23  N   UNL     1      60.491  12.714  34.795  0.00  0.00    +0.379 N 
ATOM     24  C   UNL     1      61.734  11.968  35.043  0.00  0.00    -0.096 C 
ATOM     25  H   UNL     1      59.648  11.985  34.822  0.00  0.00    -0.082 HD
ATOM     26  C   UNL     1      60.215  13.779  35.846  0.00  0.00    -0.064 C 
ATOM     27  C   UNL     1      58.888  14.529  35.538  0.00  0.00    +0.066 C 
ENDBRANCH  19  20
ENDBRANCH  18  19
ENDBRANCH  14  15
ENDBRANCH  12  13
TORSDOF 6
ENDMDL
MODEL 2
REMARK VINA RESULT:      -8.3      9.667     14.527
REMARK  Name = C:\Users\Docking\Desktop\test protocol\1iep_ligandH.pdb
REMARK  8 active torsions:
REMARK  status: ('A' for Active; 'I' for Inactive)
REMARK    1  A    between atoms: _5  and  _11
REMARK    2  A    between atoms: _19  and  _21
REMARK    3  A    between atoms: _22  and  _66
REMARK    4  A    between atoms: _27  and  _30
REMARK    5  A    between atoms: _32  and  _33
REMARK    6  A    between atoms: _38  and  _43
REMARK    7  A    between atoms: _43  and  _46
REMARK    8  A    between atoms: _53  and  _55
REMARK                            x       y       z     vdW  Elec       q    Type
REMARK                         _______ _______ _______ _____ _____    ______ ____
ROOT
ATOM     10  C   UNL     1      59.709  14.312  35.058  0.00  0.00    +0.038 A 
ATOM     11  C   UNL     1      60.516  14.175  36.217  0.00  0.00    +0.047 A 
ATOM     12  C   UNL     1      61.785  13.464  36.170  0.00  0.00    +0.035 A 
ATOM     32  C   UNL     1      62.203  12.909  34.926  0.00  0.00    +0.024 A 
ATOM     33  C   UNL     1      61.395  13.038  33.739  0.00  0.00    +0.007 A 
ATOM     34  C   UNL     1      60.141  13.736  33.779  0.00  0.00    -0.029 A 
ATOM     35  C   UNL     1      59.313  13.838  32.477  0.00  0.00    +0.045 C 
ENDROOT
BRANCH  10   9
ATOM      4  C   UNL     1      54.942  14.448  35.600  0.00  0.00    +0.077 A 
ATOM      5  C   UNL     1      54.849  13.017  35.659  0.00  0.00    +0.048 A 
ATOM      6  C   UNL     1      56.050  12.283  35.538  0.00  0.00    +0.116 A 
ATOM      7  N   UNL     1      57.250  12.941  35.372  0.00  0.00    -0.223 NA
ATOM      8  C   UNL     1      57.304  14.322  35.318  0.00  0.00    +0.220 A 
ATOM      9  N   UNL     1      58.500  15.004  35.160  0.00  0.00    -0.283 N 
ATOM     36  H   UNL     1      58.498  16.023  35.117  0.00  0.00    +0.155 HD
ATOM     37  N   UNL     1      56.171  15.045  35.429  0.00  0.00    -0.214 NA
BRANCH   4   3
ATOM      1  C   UNL     1      51.349  15.837  36.277  0.00  0.00    +0.020 A 
ATOM      2  C   UNL     1      52.456  14.914  36.183  0.00  0.00    +0.013 A 
ATOM      3  C   UNL     1      53.762  15.361  35.715  0.00  0.00    +0.019 A 
ATOM     38  C   UNL     1      53.915  16.761  35.348  0.00  0.00    +0.120 A 
ATOM     39  N   UNL     1      52.831  17.627  35.446  0.00  0.00    -0.263 NA
ATOM     40  C   UNL     1      51.569  17.207  35.894  0.00  0.00    +0.111 A 
ENDBRANCH   4   3
ENDBRANCH  10   9
BRANCH  12  13
ATOM     13  N   UNL     1      62.642  13.286  37.315  0.00  0.00    -0.281 N 
ATOM     14  C   UNL     1      63.263  14.263  38.076  0.00  0.00    +0.248 C 
ATOM     30  O   UNL     1      63.346  15.440  37.754  0.00  0.00    -0.270 OA
ATOM     31  H   UNL     1      62.813  12.321  37.600  0.00  0.00    +0.155 HD
BRANCH  14  15
ATOM     15  C   UNL     1      63.894  13.876  39.374  0.00  0.00    +0.037 A 
ATOM     16  C   UNL     1      63.502  14.519  40.631  0.00  0.00    +0.013 A 
ATOM     17  C   UNL     1      64.139  14.139  41.867  0.00  0.00    +0.005 A 
ATOM     18  C   UNL     1      65.175  13.109  41.851  0.00  0.00    -0.033 A 
ATOM     28  C   UNL     1      65.541  12.484  40.591  0.00  0.00    +0.005 A 
ATOM     29  C   UNL     1      64.919  12.855  39.377  0.00  0.00    +0.013 A 
BRANCH  18  19
ATOM     19  C   UNL     1      65.923  12.656  43.119  0.00  0.00    +0.119 C 
BRANCH  19  20
ATOM     20  N   UNL     1      65.112  12.020  44.201  0.00  0.00    -0.302 NA
ATOM     21  C   UNL     1      65.577  12.451  45.595  0.00  0.00    +0.066 C 
ATOM     22  C   UNL     1      64.704  11.794  46.714  0.00  0.00    -0.064 C 
ATOM     23  N   UNL     1      64.757  10.272  46.571  0.00  0.00    +0.379 N 
ATOM     24  C   UNL     1      63.984   9.651  47.656  0.00  0.00    -0.096 C 
ATOM     25  H   UNL     1      65.820   9.959  46.690  0.00  0.00    -0.082 HD
ATOM     26  C   UNL     1      64.299   9.836  45.187  0.00  0.00    -0.064 C 
ATOM     27  C   UNL     1      65.154  10.517  44.081  0.00  0.00    +0.066 C 
ENDBRANCH  19  20
ENDBRANCH  18  19
ENDBRANCH  14  15
ENDBRANCH  12  13
TORSDOF 6
ENDMDL
MODEL 3
REMARK VINA RESULT:      -8.2      3.631     12.435
REMARK  Name = C:\Users\Docking\Desktop\test protocol\1iep_ligandH.pdb
REMARK  8 active torsions:
REMARK  status: ('A' for Active; 'I' for Inactive)
REMARK    1  A    between atoms: _5  and  _11
REMARK    2  A    between atoms: _19  and  _21
REMARK    3  A    between atoms: _22  and  _66
REMARK    4  A    between atoms: _27  and  _30
REMARK    5  A    between atoms: _32  and  _33
REMARK    6  A    between atoms: _38  and  _43
REMARK    7  A    between atoms: _43  and  _46
REMARK    8  A    between atoms: _53  and  _55
REMARK                            x       y       z     vdW  Elec       q    Type
REMARK                         _______ _______ _______ _____ _____    ______ ____
ROOT
ATOM     10  C   UNL     1      57.320  16.158  32.366  0.00  0.00    +0.038 A 
ATOM     11  C   UNL     1      57.592  16.473  31.010  0.00  0.00    +0.047 A 
ATOM     12  C   UNL     1      56.569  16.333  29.985  0.00  0.00    +0.035 A 
ATOM     32  C   UNL     1      55.278  15.873  30.377  0.00  0.00    +0.024 A 
ATOM     33  C   UNL     1      54.985  15.547  31.751  0.00  0.00    +0.007 A 
ATOM     34  C   UNL     1      55.991  15.681  32.766  0.00  0.00    -0.029 A 
ATOM     35  C   UNL     1      55.622  15.312  34.221  0.00  0.00    +0.045 C 
ENDROOT
BRANCH  10   9
ATOM      4  C   UNL     1      61.170  14.546  34.735  0.00  0.00    +0.077 A 
ATOM      5  C   UNL     1      61.132  13.282  34.057  0.00  0.00    +0.048 A 
ATOM      6  C   UNL     1      60.101  13.085  33.111  0.00  0.00    +0.116 A 
ATOM      7  N   UNL     1      59.183  14.083  32.869  0.00  0.00    -0.223 NA
ATOM      8  C   UNL     1      59.247  15.290  33.541  0.00  0.00    +0.220 A 
ATOM      9  N   UNL     1      58.339  16.311  33.308  0.00  0.00    -0.283 N 
ATOM     36  H   UNL     1      58.417  17.183  33.830  0.00  0.00    +0.155 HD
ATOM     37  N   UNL     1      60.221  15.503  34.451  0.00  0.00    -0.214 NA
BRANCH   4   3
ATOM      1  C   UNL     1      63.477  14.481  37.893  0.00  0.00    +0.020 A 
ATOM      2  C   UNL     1      62.471  14.087  36.934  0.00  0.00    +0.013 A 
ATOM      3  C   UNL     1      62.201  14.907  35.759  0.00  0.00    +0.019 A 
ATOM     38  C   UNL     1      62.973  16.128  35.583  0.00  0.00    +0.120 A 
ATOM     39  N   UNL     1      63.935  16.482  36.524  0.00  0.00    -0.263 NA
ATOM     40  C   UNL     1      64.202  15.702  37.659  0.00  0.00    +0.111 A 
ENDBRANCH   4   3
ENDBRANCH  10   9
BRANCH  12  13
ATOM     13  N   UNL     1      56.789  16.630  28.591  0.00  0.00    -0.281 N 
ATOM     14  C   UNL     1      56.207  17.631  27.831  0.00  0.00    +0.248 C 
ATOM     30  O   UNL     1      55.243  18.294  28.183  0.00  0.00    -0.270 OA
ATOM     31  H   UNL     1      57.455  16.028  28.106  0.00  0.00    +0.155 HD
BRANCH  14  15
ATOM     15  C   UNL     1      56.768  17.929  26.478  0.00  0.00    +0.037 A 
ATOM     16  C   UNL     1      58.200  18.174  26.287  0.00  0.00    +0.013 A 
ATOM     17  C   UNL     1      58.713  18.476  24.974  0.00  0.00    +0.005 A 
ATOM     18  C   UNL     1      57.792  18.535  23.841  0.00  0.00    -0.033 A 
ATOM     28  C   UNL     1      56.377  18.283  24.059  0.00  0.00    +0.005 A 
ATOM     29  C   UNL     1      55.871  17.987  25.344  0.00  0.00    +0.013 A 
BRANCH  18  19
ATOM     19  C   UNL     1      58.248  18.871  22.409  0.00  0.00    +0.119 C 
BRANCH  19  20
ATOM     20  N   UNL     1      58.098  20.287  21.959  0.00  0.00    -0.302 NA
ATOM     21  C   UNL     1      56.895  20.470  21.030  0.00  0.00    +0.066 C 
ATOM     22  C   UNL     1      56.740  21.961  20.586  0.00  0.00    -0.064 C 
ATOM     23  N   UNL     1      58.027  22.424  19.902  0.00  0.00    +0.379 N 
ATOM     24  C   UNL     1      57.864  23.807  19.433  0.00  0.00    -0.096 C 
ATOM     25  H   UNL     1      58.185  21.779  19.007  0.00  0.00    -0.082 HD
ATOM     26  C   UNL     1      59.229  22.243  20.818  0.00  0.00    -0.064 C 
ATOM     27  C   UNL     1      59.357  20.763  21.277  0.00  0.00    +0.066 C 
ENDBRANCH  19  20
ENDBRANCH  18  19
ENDBRANCH  14  15
ENDBRANCH  12  13
TORSDOF 6
ENDMDL
MODEL 4
REMARK VINA RESULT:      -8.2      5.177     15.045
REMARK  Name = C:\Users\Docking\Desktop\test protocol\1iep_ligandH.pdb
REMARK  8 active torsions:
REMARK  status: ('A' for Active; 'I' for Inactive)
REMARK    1  A    between atoms: _5  and  _11
REMARK    2  A    between atoms: _19  and  _21
REMARK    3  A    between atoms: _22  and  _66
REMARK    4  A    between atoms: _27  and  _30
REMARK    5  A    between atoms: _32  and  _33
REMARK    6  A    between atoms: _38  and  _43
REMARK    7  A    between atoms: _43  and  _46
REMARK    8  A    between atoms: _53  and  _55
REMARK                            x       y       z     vdW  Elec       q    Type
REMARK                         _______ _______ _______ _____ _____    ______ ____
ROOT
ATOM     10  C   UNL     1      55.922  15.418  35.899  0.00  0.00    +0.038 A 
ATOM     11  C   UNL     1      55.870  15.870  34.556  0.00  0.00    +0.047 A 
ATOM     12  C   UNL     1      56.650  15.222  33.513  0.00  0.00    +0.035 A 
ATOM     32  C   UNL     1      57.470  14.113  33.873  0.00  0.00    +0.024 A 
ATOM     33  C   UNL     1      57.536  13.641  35.234  0.00  0.00    +0.007 A 
ATOM     34  C   UNL     1      56.771  14.278  36.267  0.00  0.00    -0.029 A 
ATOM     35  C   UNL     1      56.885  13.734  37.710  0.00  0.00    +0.045 C 
ENDROOT
BRANCH  10   9
ATOM      4  C   UNL     1      51.915  15.931  38.490  0.00  0.00    +0.077 A 
ATOM      5  C   UNL     1      51.290  14.806  37.856  0.00  0.00    +0.048 A 
ATOM      6  C   UNL     1      52.032  14.126  36.863  0.00  0.00    +0.116 A 
ATOM      7  N   UNL     1      53.302  14.550  36.537  0.00  0.00    -0.223 NA
ATOM      8  C   UNL     1      53.874  15.640  37.167  0.00  0.00    +0.220 A 
ATOM      9  N   UNL     1      55.153  16.078  36.860  0.00  0.00    -0.283 N 
ATOM     36  H   UNL     1      55.537  16.891  37.342  0.00  0.00    +0.155 HD
ATOM     37  N   UNL     1      53.186  16.306  38.117  0.00  0.00    -0.214 NA
BRANCH   4   3
ATOM      1  C   UNL     1      49.620  18.494  40.352  0.00  0.00    +0.020 A 
ATOM      2  C   UNL     1      50.220  17.730  39.282  0.00  0.00    +0.013 A 
ATOM      3  C   UNL     1      51.260  16.749  39.560  0.00  0.00    +0.019 A 
ATOM     38  C   UNL     1      51.674  16.562  40.942  0.00  0.00    +0.120 A 
ATOM     39  N   UNL     1      51.080  17.313  41.952  0.00  0.00    -0.263 NA
ATOM     40  C   UNL     1      50.079  18.261  41.696  0.00  0.00    +0.111 A 
ENDBRANCH   4   3
ENDBRANCH  10   9
BRANCH  12  13
ATOM     13  N   UNL     1      56.643  15.642  32.133  0.00  0.00    -0.281 N 
ATOM     14  C   UNL     1      55.621  15.511  31.208  0.00  0.00    +0.248 C 
ATOM     30  O   UNL     1      54.628  14.817  31.369  0.00  0.00    -0.270 OA
ATOM     31  H   UNL     1      57.497  16.090  31.798  0.00  0.00    +0.155 HD
BRANCH  14  15
ATOM     15  C   UNL     1      55.722  16.247  29.911  0.00  0.00    +0.037 A 
ATOM     16  C   UNL     1      55.295  15.631  28.652  0.00  0.00    +0.013 A 
ATOM     17  C   UNL     1      55.419  16.356  27.413  0.00  0.00    +0.005 A 
ATOM     18  C   UNL     1      55.974  17.707  27.427  0.00  0.00    -0.033 A 
ATOM     28  C   UNL     1      56.386  18.296  28.690  0.00  0.00    +0.005 A 
ATOM     29  C   UNL     1      56.266  17.588  29.907  0.00  0.00    +0.013 A 
BRANCH  18  19
ATOM     19  C   UNL     1      56.163  18.546  26.149  0.00  0.00    +0.119 C 
BRANCH  19  20
ATOM     20  N   UNL     1      57.261  18.141  25.221  0.00  0.00    -0.302 NA
ATOM     21  C   UNL     1      58.639  18.242  25.882  0.00  0.00    +0.066 C 
ATOM     22  C   UNL     1      59.773  17.793  24.905  0.00  0.00    -0.064 C 
ATOM     23  N   UNL     1      59.717  18.646  23.636  0.00  0.00    +0.379 N 
ATOM     24  C   UNL     1      60.819  18.265  22.740  0.00  0.00    -0.096 C 
ATOM     25  H   UNL     1      59.877  19.708  23.936  0.00  0.00    -0.082 HD
ATOM     26  C   UNL     1      58.350  18.554  22.974  0.00  0.00    -0.064 C 
ATOM     27  C   UNL     1      57.227  18.974  23.963  0.00  0.00    +0.066 C 
ENDBRANCH  19  20
ENDBRANCH  18  19
ENDBRANCH  14  15
ENDBRANCH  12  13
TORSDOF 6
ENDMDL
MODEL 5
REMARK VINA RESULT:      -8.0      2.431     12.000
REMARK  Name = C:\Users\Docking\Desktop\test protocol\1iep_ligandH.pdb
REMARK  8 active torsions:
REMARK  status: ('A' for Active; 'I' for Inactive)
REMARK    1  A    between atoms: _5  and  _11
REMARK    2  A    between atoms: _19  and  _21
REMARK    3  A    between atoms: _22  and  _66
REMARK    4  A    between atoms: _27  and  _30
REMARK    5  A    between atoms: _32  and  _33
REMARK    6  A    between atoms: _38  and  _43
REMARK    7  A    between atoms: _43  and  _46
REMARK    8  A    between atoms: _53  and  _55
REMARK                            x       y       z     vdW  Elec       q    Type
REMARK                         _______ _______ _______ _____ _____    ______ ____
ROOT
ATOM     10  C   UNL     1      57.306  15.970  32.758  0.00  0.00    +0.038 A 
ATOM     11  C   UNL     1      57.596  16.359  31.425  0.00  0.00    +0.047 A 
ATOM     12  C   UNL     1      56.595  16.254  30.375  0.00  0.00    +0.035 A 
ATOM     32  C   UNL     1      55.307  15.750  30.719  0.00  0.00    +0.024 A 
ATOM     33  C   UNL     1      54.995  15.349  32.068  0.00  0.00    +0.007 A 
ATOM     34  C   UNL     1      55.980  15.448  33.107  0.00  0.00    -0.029 A 
ATOM     35  C   UNL     1      55.592  14.997  34.535  0.00  0.00    +0.045 C 
ENDROOT
BRANCH  10   9
ATOM      4  C   UNL     1      61.263  14.404  34.979  0.00  0.00    +0.077 A 
ATOM      5  C   UNL     1      61.329  13.229  34.158  0.00  0.00    +0.048 A 
ATOM      6  C   UNL     1      60.322  13.061  33.182  0.00  0.00    +0.116 A 
ATOM      7  N   UNL     1      59.328  14.005  33.044  0.00  0.00    -0.223 NA
ATOM      8  C   UNL     1      59.292  15.127  33.852  0.00  0.00    +0.220 A 
ATOM      9  N   UNL     1      58.306  16.093  33.726  0.00  0.00    -0.283 N 
ATOM     36  H   UNL     1      58.310  16.902  34.346  0.00  0.00    +0.155 HD
ATOM     37  N   UNL     1      60.241  15.309  34.794  0.00  0.00    -0.214 NA
BRANCH   4   3
ATOM      1  C   UNL     1      63.425  14.237  38.234  0.00  0.00    +0.020 A 
ATOM      2  C   UNL     1      62.452  13.883  37.226  0.00  0.00    +0.013 A 
ATOM      3  C   UNL     1      62.256  14.724  36.052  0.00  0.00    +0.019 A 
ATOM     38  C   UNL     1      63.067  15.925  35.927  0.00  0.00    +0.120 A 
ATOM     39  N   UNL     1      63.995  16.241  36.914  0.00  0.00    -0.263 NA
ATOM     40  C   UNL     1      64.191  15.441  38.049  0.00  0.00    +0.111 A 
ENDBRANCH   4   3
ENDBRANCH  10   9
BRANCH  12  13
ATOM     13  N   UNL     1      56.834  16.626  29.003  0.00  0.00    -0.281 N 
ATOM     14  C   UNL     1      56.481  17.804  28.366  0.00  0.00    +0.248 C 
ATOM     30  O   UNL     1      55.711  18.635  28.826  0.00  0.00    -0.270 OA
ATOM     31  H   UNL     1      57.324  15.937  28.432  0.00  0.00    +0.155 HD
BRANCH  14  15
ATOM     15  C   UNL     1      57.053  18.095  27.016  0.00  0.00    +0.037 A 
ATOM     16  C   UNL     1      56.278  17.860  25.795  0.00  0.00    +0.013 A 
ATOM     17  C   UNL     1      56.860  18.133  24.505  0.00  0.00    +0.005 A 
ATOM     18  C   UNL     1      58.226  18.647  24.430  0.00  0.00    -0.033 A 
ATOM     28  C   UNL     1      58.970  18.876  25.657  0.00  0.00    +0.005 A 
ATOM     29  C   UNL     1      58.403  18.609  26.924  0.00  0.00    +0.013 A 
BRANCH  18  19
ATOM     19  C   UNL     1      58.934  18.947  23.096  0.00  0.00    +0.119 C 
BRANCH  19  20
ATOM     20  N   UNL     1      60.315  19.510  23.167  0.00  0.00    -0.302 NA
ATOM     21  C   UNL     1      60.314  21.041  23.120  0.00  0.00    +0.066 C 
ATOM     22  C   UNL     1      61.765  21.614  23.218  0.00  0.00    -0.064 C 
ATOM     23  N   UNL     1      62.616  21.038  22.084  0.00  0.00    +0.379 N 
ATOM     24  C   UNL     1      63.965  21.620  22.139  0.00  0.00    -0.096 C 
ATOM     25  H   UNL     1      62.151  21.352  21.120  0.00  0.00    -0.082 HD
ATOM     26  C   UNL     1      62.620  19.517  22.121  0.00  0.00    -0.064 C 
ATOM     27  C   UNL     1      61.171  18.958  22.053  0.00  0.00    +0.066 C 
ENDBRANCH  19  20
ENDBRANCH  18  19
ENDBRANCH  14  15
ENDBRANCH  12  13
TORSDOF 6
ENDMDL
