MODEL 1
REMARK VINA RESULT:      -7.5      0.000      0.000
REMARK  Name = C:\Users\Docking\Desktop\test protocol\1iep_ligandH.pdb
REMARK  8 active torsions:
REMARK  status: ('A' for Active; 'I' for Inactive)
REMARK    1  A    between atoms: _5  and  _11
REMARK    2  A    between atoms: _19  and  _21
REMARK    3  A    between atoms: _22  and  _66
REMARK    4  A    between atoms: _27  and  _30
REMARK    5  A    between atoms: _32  and  _33
REMARK    6  A    between atoms: _38  and  _43
REMARK    7  A    between atoms: _43  and  _46
REMARK    8  A    between atoms: _53  and  _55
REMARK                            x       y       z     vdW  Elec       q    Type
REMARK                         _______ _______ _______ _____ _____    ______ ____
ROOT
ATOM     10  C   UNL     1      16.579  45.727  15.544  0.00  0.00    +0.038 A 
ATOM     11  C   UNL     1      16.299  47.097  15.309  0.00  0.00    +0.047 A 
ATOM     12  C   UNL     1      17.358  48.094  15.321  0.00  0.00    +0.035 A 
ATOM     32  C   UNL     1      18.692  47.660  15.573  0.00  0.00    +0.024 A 
ATOM     33  C   UNL     1      18.994  46.271  15.815  0.00  0.00    +0.007 A 
ATOM     34  C   UNL     1      17.953  45.283  15.807  0.00  0.00    -0.029 A 
ATOM     35  C   UNL     1      18.334  43.809  16.079  0.00  0.00    +0.045 C 
ENDROOT
BRANCH  10   9
ATOM      4  C   UNL     1      13.806  42.520  13.293  0.00  0.00    +0.077 A 
ATOM      5  C   UNL     1      14.501  42.702  12.052  0.00  0.00    +0.048 A 
ATOM      6  C   UNL     1      15.562  43.635  12.033  0.00  0.00    +0.116 A 
ATOM      7  N   UNL     1      15.894  44.329  13.176  0.00  0.00    -0.223 NA
ATOM      8  C   UNL     1      15.202  44.131  14.356  0.00  0.00    +0.220 A 
ATOM      9  N   UNL     1      15.523  44.812  15.520  0.00  0.00    -0.283 N 
ATOM     36  H   UNL     1      14.983  44.644  16.369  0.00  0.00    +0.155 HD
ATOM     37  N   UNL     1      14.184  43.247  14.400  0.00  0.00    -0.214 NA
BRANCH   4   3
ATOM      1  C   UNL     1      10.315  41.005  14.199  0.00  0.00    +0.020 A 
ATOM      2  C   UNL     1      11.385  41.964  14.048  0.00  0.00    +0.013 A 
ATOM      3  C   UNL     1      12.665  41.568  13.473  0.00  0.00    +0.019 A 
ATOM     38  C   UNL     1      12.830  40.183  13.058  0.00  0.00    +0.120 A 
ATOM     39  N   UNL     1      11.782  39.281  13.217  0.00  0.00    -0.263 NA
ATOM     40  C   UNL     1      10.547  39.651  13.771  0.00  0.00    +0.111 A 
ENDBRANCH   4   3
ENDBRANCH  10   9
BRANCH  12  13
ATOM     13  N   UNL     1      17.133  49.501  15.097  0.00  0.00    -0.281 N 
ATOM     14  C   UNL     1      16.011  50.246  15.420  0.00  0.00    +0.248 C 
ATOM     30  O   UNL     1      14.938  49.768  15.759  0.00  0.00    -0.270 OA
ATOM     31  H   UNL     1      17.894  50.009  14.646  0.00  0.00    +0.155 HD
BRANCH  14  15
ATOM     15  C   UNL     1      16.086  51.736  15.340  0.00  0.00    +0.037 A 
ATOM     16  C   UNL     1      14.971  52.527  14.812  0.00  0.00    +0.013 A 
ATOM     17  C   UNL     1      15.077  53.962  14.730  0.00  0.00    +0.005 A 
ATOM     18  C   UNL     1      16.303  54.617  15.181  0.00  0.00    -0.033 A 
ATOM     28  C   UNL     1      17.391  53.809  15.706  0.00  0.00    +0.005 A 
ATOM     29  C   UNL     1      17.292  52.402  15.786  0.00  0.00    +0.013 A 
BRANCH  18  19
ATOM     19  C   UNL     1      16.511  56.141  15.111  0.00  0.00    +0.119 C 
BRANCH  19  20
ATOM     20  N   UNL     1      16.706  56.864  16.403  0.00  0.00    -0.302 NA
ATOM     21  C   UNL     1      15.376  57.166  17.099  0.00  0.00    +0.066 C 
ATOM     22  C   UNL     1      15.600  57.902  18.460  0.00  0.00    -0.064 C 
ATOM     23  N   UNL     1      16.387  59.191  18.215  0.00  0.00    +0.379 N 
ATOM     24  C   UNL     1      16.550  59.915  19.484  0.00  0.00    -0.096 C 
ATOM     25  H   UNL     1      15.782  59.833  17.534  0.00  0.00    -0.082 HD
ATOM     26  C   UNL     1      17.710  58.901  17.521  0.00  0.00    -0.064 C 
ATOM     27  C   UNL     1      17.478  58.142  16.184  0.00  0.00    +0.066 C 
ENDBRANCH  19  20
ENDBRANCH  18  19
ENDBRANCH  14  15
ENDBRANCH  12  13
TORSDOF 6
ENDMDL
MODEL 2
REMARK VINA RESULT:      -7.4      6.245     11.758
REMARK  Name = C:\Users\Docking\Desktop\test protocol\1iep_ligandH.pdb
REMARK  8 active torsions:
REMARK  status: ('A' for Active; 'I' for Inactive)
REMARK    1  A    between atoms: _5  and  _11
REMARK    2  A    between atoms: _19  and  _21
REMARK    3  A    between atoms: _22  and  _66
REMARK    4  A    between atoms: _27  and  _30
REMARK    5  A    between atoms: _32  and  _33
REMARK    6  A    between atoms: _38  and  _43
REMARK    7  A    between atoms: _43  and  _46
REMARK    8  A    between atoms: _53  and  _55
REMARK                            x       y       z     vdW  Elec       q    Type
REMARK                         _______ _______ _______ _____ _____    ______ ____
ROOT
ATOM     10  C   UNL     1      17.729  44.518  15.990  0.00  0.00    +0.038 A 
ATOM     11  C   UNL     1      18.889  44.335  16.786  0.00  0.00    +0.047 A 
ATOM     12  C   UNL     1      19.663  43.105  16.717  0.00  0.00    +0.035 A 
ATOM     32  C   UNL     1      19.228  42.083  15.823  0.00  0.00    +0.024 A 
ATOM     33  C   UNL     1      18.051  42.252  15.008  0.00  0.00    +0.007 A 
ATOM     34  C   UNL     1      17.283  43.462  15.073  0.00  0.00    -0.029 A 
ATOM     35  C   UNL     1      16.026  43.586  14.181  0.00  0.00    +0.045 C 
ENDROOT
BRANCH  10   9
ATOM      4  C   UNL     1      16.837  49.037  14.639  0.00  0.00    +0.077 A 
ATOM      5  C   UNL     1      17.882  49.012  13.656  0.00  0.00    +0.048 A 
ATOM      6  C   UNL     1      18.631  47.819  13.535  0.00  0.00    +0.116 A 
ATOM      7  N   UNL     1      18.346  46.739  14.341  0.00  0.00    -0.223 NA
ATOM      8  C   UNL     1      17.333  46.797  15.280  0.00  0.00    +0.220 A 
ATOM      9  N   UNL     1      17.024  45.719  16.096  0.00  0.00    -0.283 N 
ATOM     36  H   UNL     1      16.274  45.804  16.782  0.00  0.00    +0.155 HD
ATOM     37  N   UNL     1      16.605  47.924  15.417  0.00  0.00    -0.214 NA
BRANCH   4   3
ATOM      1  C   UNL     1      13.817  51.291  15.685  0.00  0.00    +0.020 A 
ATOM      2  C   UNL     1      14.627  50.114  15.469  0.00  0.00    +0.013 A 
ATOM      3  C   UNL     1      15.957  50.223  14.884  0.00  0.00    +0.019 A 
ATOM     38  C   UNL     1      16.443  51.547  14.527  0.00  0.00    +0.120 A 
ATOM     39  N   UNL     1      15.641  52.662  14.746  0.00  0.00    -0.263 NA
ATOM     40  C   UNL     1      14.358  52.570  15.306  0.00  0.00    +0.111 A 
ENDBRANCH   4   3
ENDBRANCH  10   9
BRANCH  12  13
ATOM     13  N   UNL     1      20.844  42.859  17.507  0.00  0.00    -0.281 N 
ATOM     14  C   UNL     1      22.154  43.189  17.204  0.00  0.00    +0.248 C 
ATOM     30  O   UNL     1      22.538  43.558  16.104  0.00  0.00    -0.270 OA
ATOM     31  H   UNL     1      20.695  42.384  18.397  0.00  0.00    +0.155 HD
BRANCH  14  15
ATOM     15  C   UNL     1      23.192  43.080  18.274  0.00  0.00    +0.037 A 
ATOM     16  C   UNL     1      23.642  41.776  18.766  0.00  0.00    +0.013 A 
ATOM     17  C   UNL     1      24.632  41.699  19.811  0.00  0.00    +0.005 A 
ATOM     18  C   UNL     1      25.180  42.933  20.371  0.00  0.00    -0.033 A 
ATOM     28  C   UNL     1      24.719  44.213  19.861  0.00  0.00    +0.005 A 
ATOM     29  C   UNL     1      23.748  44.292  18.837  0.00  0.00    +0.013 A 
BRANCH  18  19
ATOM     19  C   UNL     1      26.224  42.946  21.503  0.00  0.00    +0.119 C 
BRANCH  19  20
ATOM     20  N   UNL     1      25.713  43.043  22.903  0.00  0.00    -0.302 NA
ATOM     21  C   UNL     1      24.481  42.161  23.127  0.00  0.00    +0.066 C 
ATOM     22  C   UNL     1      23.974  42.257  24.603  0.00  0.00    -0.064 C 
ATOM     23  N   UNL     1      23.663  43.716  24.939  0.00  0.00    +0.379 N 
ATOM     24  C   UNL     1      23.131  43.802  26.307  0.00  0.00    -0.096 C 
ATOM     25  H   UNL     1      22.864  44.060  24.242  0.00  0.00    -0.082 HD
ATOM     26  C   UNL     1      24.882  44.601  24.716  0.00  0.00    -0.064 C 
ATOM     27  C   UNL     1      25.396  44.475  23.254  0.00  0.00    +0.066 C 
ENDBRANCH  19  20
ENDBRANCH  18  19
ENDBRANCH  14  15
ENDBRANCH  12  13
TORSDOF 6
ENDMDL
MODEL 3
REMARK VINA RESULT:      -7.4      7.335     12.865
REMARK  Name = C:\Users\Docking\Desktop\test protocol\1iep_ligandH.pdb
REMARK  8 active torsions:
REMARK  status: ('A' for Active; 'I' for Inactive)
REMARK    1  A    between atoms: _5  and  _11
REMARK    2  A    between atoms: _19  and  _21
REMARK    3  A    between atoms: _22  and  _66
REMARK    4  A    between atoms: _27  and  _30
REMARK    5  A    between atoms: _32  and  _33
REMARK    6  A    between atoms: _38  and  _43
REMARK    7  A    between atoms: _43  and  _46
REMARK    8  A    between atoms: _53  and  _55
REMARK                            x       y       z     vdW  Elec       q    Type
REMARK                         _______ _______ _______ _____ _____    ______ ____
ROOT
ATOM     10  C   UNL     1      18.218  44.037  16.063  0.00  0.00    +0.038 A 
ATOM     11  C   UNL     1      19.277  44.004  17.006  0.00  0.00    +0.047 A 
ATOM     12  C   UNL     1      20.174  42.861  17.090  0.00  0.00    +0.035 A 
ATOM     32  C   UNL     1      19.965  41.771  16.196  0.00  0.00    +0.024 A 
ATOM     33  C   UNL     1      18.893  41.788  15.232  0.00  0.00    +0.007 A 
ATOM     34  C   UNL     1      18.004  42.911  15.146  0.00  0.00    -0.029 A 
ATOM     35  C   UNL     1      16.868  42.873  14.097  0.00  0.00    +0.045 C 
ENDROOT
BRANCH  10   9
ATOM      4  C   UNL     1      17.432  48.695  15.211  0.00  0.00    +0.077 A 
ATOM      5  C   UNL     1      18.798  48.918  14.834  0.00  0.00    +0.048 A 
ATOM      6  C   UNL     1      19.673  47.809  14.880  0.00  0.00    +0.116 A 
ATOM      7  N   UNL     1      19.205  46.574  15.274  0.00  0.00    -0.223 NA
ATOM      8  C   UNL     1      17.882  46.394  15.633  0.00  0.00    +0.220 A 
ATOM      9  N   UNL     1      17.388  45.160  16.025  0.00  0.00    -0.283 N 
ATOM     36  H   UNL     1      16.407  45.070  16.289  0.00  0.00    +0.155 HD
ATOM     37  N   UNL     1      17.027  47.437  15.599  0.00  0.00    -0.214 NA
BRANCH   4   3
ATOM      1  C   UNL     1      13.999  50.561  15.391  0.00  0.00    +0.020 A 
ATOM      2  C   UNL     1      14.968  49.489  15.400  0.00  0.00    +0.013 A 
ATOM      3  C   UNL     1      16.386  49.766  15.210  0.00  0.00    +0.019 A 
ATOM     38  C   UNL     1      16.794  51.150  15.015  0.00  0.00    +0.120 A 
ATOM     39  N   UNL     1      15.838  52.160  15.010  0.00  0.00    -0.263 NA
ATOM     40  C   UNL     1      14.470  51.905  15.190  0.00  0.00    +0.111 A 
ENDBRANCH   4   3
ENDBRANCH  10   9
BRANCH  12  13
ATOM     13  N   UNL     1      21.260  42.767  18.033  0.00  0.00    -0.281 N 
ATOM     14  C   UNL     1      22.573  43.178  17.864  0.00  0.00    +0.248 C 
ATOM     30  O   UNL     1      23.064  43.496  16.791  0.00  0.00    -0.270 OA
ATOM     31  H   UNL     1      21.035  42.347  18.935  0.00  0.00    +0.155 HD
BRANCH  14  15
ATOM     15  C   UNL     1      23.473  43.229  19.056  0.00  0.00    +0.037 A 
ATOM     16  C   UNL     1      24.073  42.011  19.607  0.00  0.00    +0.013 A 
ATOM     17  C   UNL     1      24.924  42.086  20.768  0.00  0.00    +0.005 A 
ATOM     18  C   UNL     1      25.181  43.385  21.385  0.00  0.00    -0.033 A 
ATOM     28  C   UNL     1      24.577  44.578  20.815  0.00  0.00    +0.005 A 
ATOM     29  C   UNL     1      23.741  44.508  19.677  0.00  0.00    +0.013 A 
BRANCH  18  19
ATOM     19  C   UNL     1      26.059  43.557  22.639  0.00  0.00    +0.119 C 
BRANCH  19  20
ATOM     20  N   UNL     1      27.033  42.467  22.946  0.00  0.00    -0.302 NA
ATOM     21  C   UNL     1      26.380  41.311  23.708  0.00  0.00    +0.066 C 
ATOM     22  C   UNL     1      27.408  40.170  24.001  0.00  0.00    -0.064 C 
ATOM     23  N   UNL     1      28.588  40.740  24.789  0.00  0.00    +0.379 N 
ATOM     24  C   UNL     1      29.528  39.658  25.117  0.00  0.00    -0.096 C 
ATOM     25  H   UNL     1      28.189  41.144  25.749  0.00  0.00    -0.082 HD
ATOM     26  C   UNL     1      29.242  41.893  24.040  0.00  0.00    -0.064 C 
ATOM     27  C   UNL     1      28.205  43.008  23.728  0.00  0.00    +0.066 C 
ENDBRANCH  19  20
ENDBRANCH  18  19
ENDBRANCH  14  15
ENDBRANCH  12  13
TORSDOF 6
ENDMDL
