MODEL 1
REMARK VINA RESULT:      -6.6      0.000      0.000
REMARK  Name = C:\Users\Docking\Desktop\test protocol\1iep_ligandH.pdb
REMARK  8 active torsions:
REMARK  status: ('A' for Active; 'I' for Inactive)
REMARK    1  A    between atoms: _5  and  _11
REMARK    2  A    between atoms: _19  and  _21
REMARK    3  A    between atoms: _22  and  _66
REMARK    4  A    between atoms: _27  and  _30
REMARK    5  A    between atoms: _32  and  _33
REMARK    6  A    between atoms: _38  and  _43
REMARK    7  A    between atoms: _43  and  _46
REMARK    8  A    between atoms: _53  and  _55
REMARK                            x       y       z     vdW  Elec       q    Type
REMARK                         _______ _______ _______ _____ _____    ______ ____
ROOT
ATOM     10  C   UNL     1      42.920  36.483   7.208  0.00  0.00    +0.038 A 
ATOM     11  C   UNL     1      42.538  35.140   6.959  0.00  0.00    +0.047 A 
ATOM     12  C   UNL     1      41.655  34.801   5.853  0.00  0.00    +0.035 A 
ATOM     32  C   UNL     1      41.182  35.856   5.019  0.00  0.00    +0.024 A 
ATOM     33  C   UNL     1      41.560  37.226   5.258  0.00  0.00    +0.007 A 
ATOM     34  C   UNL     1      42.428  37.567   6.349  0.00  0.00    -0.029 A 
ATOM     35  C   UNL     1      42.795  39.054   6.562  0.00  0.00    +0.045 C 
ENDROOT
BRANCH  10   9
ATOM      4  C   UNL     1      43.701  37.582  11.814  0.00  0.00    +0.077 A 
ATOM      5  C   UNL     1      42.296  37.654  12.096  0.00  0.00    +0.048 A 
ATOM      6  C   UNL     1      41.406  37.409  11.027  0.00  0.00    +0.116 A 
ATOM      7  N   UNL     1      41.895  37.114   9.773  0.00  0.00    -0.223 NA
ATOM      8  C   UNL     1      43.256  37.053   9.534  0.00  0.00    +0.220 A 
ATOM      9  N   UNL     1      43.770  36.751   8.283  0.00  0.00    -0.283 N 
ATOM     36  H   UNL     1      44.780  36.723   8.146  0.00  0.00    +0.155 HD
ATOM     37  N   UNL     1      44.127  37.285  10.539  0.00  0.00    -0.214 NA
BRANCH   4   3
ATOM      1  C   UNL     1      46.988  38.747  13.586  0.00  0.00    +0.020 A 
ATOM      2  C   UNL     1      45.990  38.551  12.559  0.00  0.00    +0.013 A 
ATOM      3  C   UNL     1      44.766  37.812  12.840  0.00  0.00    +0.019 A 
ATOM     38  C   UNL     1      44.580  37.280  14.182  0.00  0.00    +0.120 A 
ATOM     39  N   UNL     1      45.558  37.483  15.150  0.00  0.00    -0.263 NA
ATOM     40  C   UNL     1      46.741  38.191  14.891  0.00  0.00    +0.111 A 
ENDBRANCH   4   3
ENDBRANCH  10   9
BRANCH  12  13
ATOM     13  N   UNL     1      41.226  33.457   5.557  0.00  0.00    -0.281 N 
ATOM     14  C   UNL     1      41.846  32.526   4.739  0.00  0.00    +0.248 C 
ATOM     30  O   UNL     1      42.756  32.784   3.965  0.00  0.00    -0.270 OA
ATOM     31  H   UNL     1      40.361  33.154   6.004  0.00  0.00    +0.155 HD
BRANCH  14  15
ATOM     15  C   UNL     1      41.377  31.107   4.775  0.00  0.00    +0.037 A 
ATOM     16  C   UNL     1      40.072  30.752   5.338  0.00  0.00    +0.013 A 
ATOM     17  C   UNL     1      39.652  29.374   5.376  0.00  0.00    +0.005 A 
ATOM     18  C   UNL     1      40.538  28.340   4.848  0.00  0.00    -0.033 A 
ATOM     28  C   UNL     1      41.825  28.721   4.290  0.00  0.00    +0.005 A 
ATOM     29  C   UNL     1      42.241  30.070   4.252  0.00  0.00    +0.013 A 
BRANCH  18  19
ATOM     19  C   UNL     1      40.180  26.842   4.867  0.00  0.00    +0.119 C 
BRANCH  19  20
ATOM     20  N   UNL     1      39.906  26.188   3.553  0.00  0.00    -0.302 NA
ATOM     21  C   UNL     1      38.405  26.025   3.295  0.00  0.00    +0.066 C 
ATOM     22  C   UNL     1      38.135  25.359   1.906  0.00  0.00    -0.064 C 
ATOM     23  N   UNL     1      38.845  24.006   1.846  0.00  0.00    +0.379 N 
ATOM     24  C   UNL     1      38.546  23.352   0.564  0.00  0.00    -0.096 C 
ATOM     25  H   UNL     1      38.426  23.367   2.657  0.00  0.00    -0.082 HD
ATOM     26  C   UNL     1      40.338  24.159   2.104  0.00  0.00    -0.064 C 
ATOM     27  C   UNL     1      40.594  24.848   3.473  0.00  0.00    +0.066 C 
ENDBRANCH  19  20
ENDBRANCH  18  19
ENDBRANCH  14  15
ENDBRANCH  12  13
TORSDOF 6
ENDMDL
MODEL 2
REMARK VINA RESULT:      -6.6      1.617      2.351
REMARK  Name = C:\Users\Docking\Desktop\test protocol\1iep_ligandH.pdb
REMARK  8 active torsions:
REMARK  status: ('A' for Active; 'I' for Inactive)
REMARK    1  A    between atoms: _5  and  _11
REMARK    2  A    between atoms: _19  and  _21
REMARK    3  A    between atoms: _22  and  _66
REMARK    4  A    between atoms: _27  and  _30
REMARK    5  A    between atoms: _32  and  _33
REMARK    6  A    between atoms: _38  and  _43
REMARK    7  A    between atoms: _43  and  _46
REMARK    8  A    between atoms: _53  and  _55
REMARK                            x       y       z     vdW  Elec       q    Type
REMARK                         _______ _______ _______ _____ _____    ______ ____
ROOT
ATOM     10  C   UNL     1      42.785  36.368   7.048  0.00  0.00    +0.038 A 
ATOM     11  C   UNL     1      42.441  35.026   6.744  0.00  0.00    +0.047 A 
ATOM     12  C   UNL     1      41.564  34.709   5.628  0.00  0.00    +0.035 A 
ATOM     32  C   UNL     1      41.058  35.783   4.840  0.00  0.00    +0.024 A 
ATOM     33  C   UNL     1      41.396  37.153   5.135  0.00  0.00    +0.007 A 
ATOM     34  C   UNL     1      42.259  37.472   6.237  0.00  0.00    -0.029 A 
ATOM     35  C   UNL     1      42.583  38.959   6.512  0.00  0.00    +0.045 C 
ENDROOT
BRANCH  10   9
ATOM      4  C   UNL     1      43.549  37.516  11.646  0.00  0.00    +0.077 A 
ATOM      5  C   UNL     1      42.145  37.661  11.904  0.00  0.00    +0.048 A 
ATOM      6  C   UNL     1      41.260  37.438  10.825  0.00  0.00    +0.116 A 
ATOM      7  N   UNL     1      41.753  37.096   9.585  0.00  0.00    -0.223 NA
ATOM      8  C   UNL     1      43.113  36.966   9.369  0.00  0.00    +0.220 A 
ATOM      9  N   UNL     1      43.631  36.615   8.132  0.00  0.00    -0.283 N 
ATOM     36  H   UNL     1      44.640  36.537   8.012  0.00  0.00    +0.155 HD
ATOM     37  N   UNL     1      43.979  37.175  10.383  0.00  0.00    -0.214 NA
BRANCH   4   3
ATOM      1  C   UNL     1      46.819  38.638  13.475  0.00  0.00    +0.020 A 
ATOM      2  C   UNL     1      45.827  38.476  12.438  0.00  0.00    +0.013 A 
ATOM      3  C   UNL     1      44.609  37.714  12.684  0.00  0.00    +0.019 A 
ATOM     38  C   UNL     1      44.423  37.127  14.003  0.00  0.00    +0.120 A 
ATOM     39  N   UNL     1      45.396  37.299  14.982  0.00  0.00    -0.263 NA
ATOM     40  C   UNL     1      46.573  38.028  14.755  0.00  0.00    +0.111 A 
ENDBRANCH   4   3
ENDBRANCH  10   9
BRANCH  12  13
ATOM     13  N   UNL     1      41.173  33.366   5.276  0.00  0.00    -0.281 N 
ATOM     14  C   UNL     1      41.441  32.681   4.102  0.00  0.00    +0.248 C 
ATOM     30  O   UNL     1      41.877  33.199   3.084  0.00  0.00    -0.270 OA
ATOM     31  H   UNL     1      40.634  32.859   5.978  0.00  0.00    +0.155 HD
BRANCH  14  15
ATOM     15  C   UNL     1      41.171  31.212   4.045  0.00  0.00    +0.037 A 
ATOM     16  C   UNL     1      39.844  30.696   3.702  0.00  0.00    +0.013 A 
ATOM     17  C   UNL     1      39.607  29.274   3.672  0.00  0.00    +0.005 A 
ATOM     18  C   UNL     1      40.701  28.359   3.984  0.00  0.00    -0.033 A 
ATOM     28  C   UNL     1      42.010  28.898   4.316  0.00  0.00    +0.005 A 
ATOM     29  C   UNL     1      42.246  30.291   4.348  0.00  0.00    +0.013 A 
BRANCH  18  19
ATOM     19  C   UNL     1      40.534  26.828   3.996  0.00  0.00    +0.119 C 
BRANCH  19  20
ATOM     20  N   UNL     1      41.044  26.093   5.192  0.00  0.00    -0.302 NA
ATOM     21  C   UNL     1      42.394  25.423   4.921  0.00  0.00    +0.066 C 
ATOM     22  C   UNL     1      42.925  24.679   6.190  0.00  0.00    -0.064 C 
ATOM     23  N   UNL     1      41.890  23.648   6.643  0.00  0.00    +0.379 N 
ATOM     24  C   UNL     1      42.410  22.906   7.800  0.00  0.00    -0.096 C 
ATOM     25  H   UNL     1      41.750  22.920   5.809  0.00  0.00    -0.082 HD
ATOM     26  C   UNL     1      40.543  24.305   6.911  0.00  0.00    -0.064 C 
ATOM     27  C   UNL     1      40.039  25.067   5.654  0.00  0.00    +0.066 C 
ENDBRANCH  19  20
ENDBRANCH  18  19
ENDBRANCH  14  15
ENDBRANCH  12  13
TORSDOF 6
ENDMDL
MODEL 3
REMARK VINA RESULT:      -6.3      7.521     14.752
REMARK  Name = C:\Users\Docking\Desktop\test protocol\1iep_ligandH.pdb
REMARK  8 active torsions:
REMARK  status: ('A' for Active; 'I' for Inactive)
REMARK    1  A    between atoms: _5  and  _11
REMARK    2  A    between atoms: _19  and  _21
REMARK    3  A    between atoms: _22  and  _66
REMARK    4  A    between atoms: _27  and  _30
REMARK    5  A    between atoms: _32  and  _33
REMARK    6  A    between atoms: _38  and  _43
REMARK    7  A    between atoms: _43  and  _46
REMARK    8  A    between atoms: _53  and  _55
REMARK                            x       y       z     vdW  Elec       q    Type
REMARK                         _______ _______ _______ _____ _____    ______ ____
ROOT
ATOM     10  C   UNL     1      42.644  40.417   6.422  0.00  0.00    +0.038 A 
ATOM     11  C   UNL     1      43.893  40.938   5.997  0.00  0.00    +0.047 A 
ATOM     12  C   UNL     1      44.323  42.273   6.385  0.00  0.00    +0.035 A 
ATOM     32  C   UNL     1      43.456  43.048   7.210  0.00  0.00    +0.024 A 
ATOM     33  C   UNL     1      42.183  42.535   7.650  0.00  0.00    +0.007 A 
ATOM     34  C   UNL     1      41.753  41.220   7.268  0.00  0.00    -0.029 A 
ATOM     35  C   UNL     1      40.375  40.723   7.764  0.00  0.00    +0.045 C 
ENDROOT
BRANCH  10   9
ATOM      4  C   UNL     1      42.691  35.647   6.951  0.00  0.00    +0.077 A 
ATOM      5  C   UNL     1      43.530  35.725   8.112  0.00  0.00    +0.048 A 
ATOM      6  C   UNL     1      43.934  37.011   8.536  0.00  0.00    +0.116 A 
ATOM      7  N   UNL     1      43.522  38.129   7.843  0.00  0.00    -0.223 NA
ATOM      8  C   UNL     1      42.714  38.018   6.727  0.00  0.00    +0.220 A 
ATOM      9  N   UNL     1      42.282  39.130   6.020  0.00  0.00    -0.283 N 
ATOM     36  H   UNL     1      41.692  39.006   5.197  0.00  0.00    +0.155 HD
ATOM     37  N   UNL     1      42.316  36.802   6.301  0.00  0.00    -0.214 NA
BRANCH   4   3
ATOM      1  C   UNL     1      42.175  32.526   4.650  0.00  0.00    +0.020 A 
ATOM      2  C   UNL     1      42.704  33.771   5.157  0.00  0.00    +0.013 A 
ATOM      3  C   UNL     1      42.179  34.360   6.382  0.00  0.00    +0.019 A 
ATOM     38  C   UNL     1      41.110  33.658   7.077  0.00  0.00    +0.120 A 
ATOM     39  N   UNL     1      40.619  32.461   6.564  0.00  0.00    -0.263 NA
ATOM     40  C   UNL     1      41.116  31.886   5.385  0.00  0.00    +0.111 A 
ENDBRANCH   4   3
ENDBRANCH  10   9
BRANCH  12  13
ATOM     13  N   UNL     1      45.576  42.858   5.978  0.00  0.00    -0.281 N 
ATOM     14  C   UNL     1      45.820  43.669   4.882  0.00  0.00    +0.248 C 
ATOM     30  O   UNL     1      45.036  43.841   3.960  0.00  0.00    -0.270 OA
ATOM     31  H   UNL     1      46.380  42.649   6.569  0.00  0.00    +0.155 HD
BRANCH  14  15
ATOM     15  C   UNL     1      47.131  44.381   4.788  0.00  0.00    +0.037 A 
ATOM     16  C   UNL     1      47.827  44.853   5.988  0.00  0.00    +0.013 A 
ATOM     17  C   UNL     1      49.082  45.552   5.869  0.00  0.00    +0.005 A 
ATOM     18  C   UNL     1      49.651  45.781   4.543  0.00  0.00    -0.033 A 
ATOM     28  C   UNL     1      48.942  45.297   3.369  0.00  0.00    +0.005 A 
ATOM     29  C   UNL     1      47.711  44.613   3.483  0.00  0.00    +0.013 A 
BRANCH  18  19
ATOM     19  C   UNL     1      50.975  46.536   4.319  0.00  0.00    +0.119 C 
BRANCH  19  20
ATOM     20  N   UNL     1      52.160  45.729   3.903  0.00  0.00    -0.302 NA
ATOM     21  C   UNL     1      52.433  44.570   4.867  0.00  0.00    +0.066 C 
ATOM     22  C   UNL     1      53.663  43.723   4.404  0.00  0.00    -0.064 C 
ATOM     23  N   UNL     1      54.889  44.631   4.286  0.00  0.00    +0.379 N 
ATOM     24  C   UNL     1      56.060  43.826   3.907  0.00  0.00    -0.096 C 
ATOM     25  H   UNL     1      55.087  45.063   5.294  0.00  0.00    -0.082 HD
ATOM     26  C   UNL     1      54.625  45.787   3.332  0.00  0.00    -0.064 C 
ATOM     27  C   UNL     1      53.383  46.605   3.785  0.00  0.00    +0.066 C 
ENDBRANCH  19  20
ENDBRANCH  18  19
ENDBRANCH  14  15
ENDBRANCH  12  13
TORSDOF 6
ENDMDL
MODEL 4
REMARK VINA RESULT:      -6.2      7.415     10.474
REMARK  Name = C:\Users\Docking\Desktop\test protocol\1iep_ligandH.pdb
REMARK  8 active torsions:
REMARK  status: ('A' for Active; 'I' for Inactive)
REMARK    1  A    between atoms: _5  and  _11
REMARK    2  A    between atoms: _19  and  _21
REMARK    3  A    between atoms: _22  and  _66
REMARK    4  A    between atoms: _27  and  _30
REMARK    5  A    between atoms: _32  and  _33
REMARK    6  A    between atoms: _38  and  _43
REMARK    7  A    between atoms: _43  and  _46
REMARK    8  A    between atoms: _53  and  _55
REMARK                            x       y       z     vdW  Elec       q    Type
REMARK                         _______ _______ _______ _____ _____    ______ ____
ROOT
ATOM     10  C   UNL     1      46.200  44.694   7.130  0.00  0.00    +0.038 A 
ATOM     11  C   UNL     1      45.637  43.408   6.931  0.00  0.00    +0.047 A 
ATOM     12  C   UNL     1      44.212  43.174   7.107  0.00  0.00    +0.035 A 
ATOM     32  C   UNL     1      43.389  44.275   7.484  0.00  0.00    +0.024 A 
ATOM     33  C   UNL     1      43.945  45.589   7.692  0.00  0.00    +0.007 A 
ATOM     34  C   UNL     1      45.350  45.825   7.522  0.00  0.00    -0.029 A 
ATOM     35  C   UNL     1      45.892  47.253   7.764  0.00  0.00    +0.045 C 
ENDROOT
BRANCH  10   9
ATOM      4  C   UNL     1      50.034  45.492   4.355  0.00  0.00    +0.077 A 
ATOM      5  C   UNL     1      49.235  45.554   3.166  0.00  0.00    +0.048 A 
ATOM      6  C   UNL     1      47.841  45.368   3.310  0.00  0.00    +0.116 A 
ATOM      7  N   UNL     1      47.299  45.138   4.556  0.00  0.00    -0.223 NA
ATOM      8  C   UNL     1      48.099  45.083   5.683  0.00  0.00    +0.220 A 
ATOM      9  N   UNL     1      47.575  44.862   6.947  0.00  0.00    -0.283 N 
ATOM     36  H   UNL     1      48.199  44.821   7.752  0.00  0.00    +0.155 HD
ATOM     37  N   UNL     1      49.433  45.256   5.571  0.00  0.00    -0.214 NA
BRANCH   4   3
ATOM      1  C   UNL     1      53.871  44.843   4.759  0.00  0.00    +0.020 A 
ATOM      2  C   UNL     1      52.443  44.618   4.768  0.00  0.00    +0.013 A 
ATOM      3  C   UNL     1      51.521  45.672   4.366  0.00  0.00    +0.019 A 
ATOM     38  C   UNL     1      52.079  46.952   3.957  0.00  0.00    +0.120 A 
ATOM     39  N   UNL     1      53.457  47.141   3.961  0.00  0.00    -0.263 NA
ATOM     40  C   UNL     1      54.355  46.134   4.347  0.00  0.00    +0.111 A 
ENDBRANCH   4   3
ENDBRANCH  10   9
BRANCH  12  13
ATOM     13  N   UNL     1      43.586  41.888   6.927  0.00  0.00    -0.281 N 
ATOM     14  C   UNL     1      43.912  40.903   6.010  0.00  0.00    +0.248 C 
ATOM     30  O   UNL     1      44.661  41.066   5.057  0.00  0.00    -0.270 OA
ATOM     31  H   UNL     1      42.807  41.679   7.551  0.00  0.00    +0.155 HD
BRANCH  14  15
ATOM     15  C   UNL     1      43.309  39.544   6.164  0.00  0.00    +0.037 A 
ATOM     16  C   UNL     1      42.416  38.988   5.144  0.00  0.00    +0.013 A 
ATOM     17  C   UNL     1      41.835  37.682   5.326  0.00  0.00    +0.005 A 
ATOM     18  C   UNL     1      42.146  36.922   6.534  0.00  0.00    -0.033 A 
ATOM     28  C   UNL     1      43.039  37.495   7.527  0.00  0.00    +0.005 A 
ATOM     29  C   UNL     1      43.610  38.775   7.353  0.00  0.00    +0.013 A 
BRANCH  18  19
ATOM     19  C   UNL     1      41.554  35.529   6.821  0.00  0.00    +0.119 C 
BRANCH  19  20
ATOM     20  N   UNL     1      41.172  34.692   5.645  0.00  0.00    -0.302 NA
ATOM     21  C   UNL     1      39.712  34.236   5.714  0.00  0.00    +0.066 C 
ATOM     22  C   UNL     1      39.323  33.381   4.465  0.00  0.00    -0.064 C 
ATOM     23  N   UNL     1      40.262  32.178   4.361  0.00  0.00    +0.379 N 
ATOM     24  C   UNL     1      39.863  31.340   3.220  0.00  0.00    -0.096 C 
ATOM     25  H   UNL     1      40.137  31.570   5.287  0.00  0.00    -0.082 HD
ATOM     26  C   UNL     1      41.716  32.623   4.294  0.00  0.00    -0.064 C 
ATOM     27  C   UNL     1      42.084  33.496   5.526  0.00  0.00    +0.066 C 
ENDBRANCH  19  20
ENDBRANCH  18  19
ENDBRANCH  14  15
ENDBRANCH  12  13
TORSDOF 6
ENDMDL
MODEL 5
REMARK VINA RESULT:      -6.1      4.334      6.490
REMARK  Name = C:\Users\Docking\Desktop\test protocol\1iep_ligandH.pdb
REMARK  8 active torsions:
REMARK  status: ('A' for Active; 'I' for Inactive)
REMARK    1  A    between atoms: _5  and  _11
REMARK    2  A    between atoms: _19  and  _21
REMARK    3  A    between atoms: _22  and  _66
REMARK    4  A    between atoms: _27  and  _30
REMARK    5  A    between atoms: _32  and  _33
REMARK    6  A    between atoms: _38  and  _43
REMARK    7  A    between atoms: _43  and  _46
REMARK    8  A    between atoms: _53  and  _55
REMARK                            x       y       z     vdW  Elec       q    Type
REMARK                         _______ _______ _______ _____ _____    ______ ____
ROOT
ATOM     10  C   UNL     1      42.344  39.291   6.635  0.00  0.00    +0.038 A 
ATOM     11  C   UNL     1      42.405  37.989   6.076  0.00  0.00    +0.047 A 
ATOM     12  C   UNL     1      41.297  37.057   6.216  0.00  0.00    +0.035 A 
ATOM     32  C   UNL     1      40.140  37.486   6.930  0.00  0.00    +0.024 A 
ATOM     33  C   UNL     1      40.061  38.805   7.506  0.00  0.00    +0.007 A 
ATOM     34  C   UNL     1      41.153  39.728   7.373  0.00  0.00    -0.029 A 
ATOM     35  C   UNL     1      41.016  41.128   8.016  0.00  0.00    +0.045 C 
ENDROOT
BRANCH  10   9
ATOM      4  C   UNL     1      44.849  42.522   4.120  0.00  0.00    +0.077 A 
ATOM      5  C   UNL     1      43.916  42.486   3.032  0.00  0.00    +0.048 A 
ATOM      6  C   UNL     1      42.808  41.617   3.155  0.00  0.00    +0.116 A 
ATOM      7  N   UNL     1      42.655  40.847   4.288  0.00  0.00    -0.223 NA
ATOM      8  C   UNL     1      43.575  40.904   5.319  0.00  0.00    +0.220 A 
ATOM      9  N   UNL     1      43.437  40.145   6.470  0.00  0.00    -0.283 N 
ATOM     36  H   UNL     1      44.141  40.210   7.205  0.00  0.00    +0.155 HD
ATOM     37  N   UNL     1      44.642  41.725   5.224  0.00  0.00    -0.214 NA
BRANCH   4   3
ATOM      1  C   UNL     1      47.822  44.756   5.334  0.00  0.00    +0.020 A 
ATOM      2  C   UNL     1      46.643  43.921   5.370  0.00  0.00    +0.013 A 
ATOM      3  C   UNL     1      46.068  43.391   4.140  0.00  0.00    +0.019 A 
ATOM     38  C   UNL     1      46.715  43.726   2.881  0.00  0.00    +0.120 A 
ATOM     39  N   UNL     1      47.848  44.534   2.877  0.00  0.00    -0.263 NA
ATOM     40  C   UNL     1      48.410  45.051   4.054  0.00  0.00    +0.111 A 
ENDBRANCH   4   3
ENDBRANCH  10   9
BRANCH  12  13
ATOM     13  N   UNL     1      41.305  35.720   5.678  0.00  0.00    -0.281 N 
ATOM     14  C   UNL     1      42.145  34.671   6.015  0.00  0.00    +0.248 C 
ATOM     30  O   UNL     1      43.161  34.787   6.683  0.00  0.00    -0.270 OA
ATOM     31  H   UNL     1      40.607  35.522   4.960  0.00  0.00    +0.155 HD
BRANCH  14  15
ATOM     15  C   UNL     1      41.815  33.297   5.527  0.00  0.00    +0.037 A 
ATOM     16  C   UNL     1      40.713  32.527   6.111  0.00  0.00    +0.013 A 
ATOM     17  C   UNL     1      40.428  31.197   5.633  0.00  0.00    +0.005 A 
ATOM     18  C   UNL     1      41.246  30.629   4.565  0.00  0.00    -0.033 A 
ATOM     28  C   UNL     1      42.330  31.416   4.000  0.00  0.00    +0.005 A 
ATOM     29  C   UNL     1      42.613  32.720   4.466  0.00  0.00    +0.013 A 
BRANCH  18  19
ATOM     19  C   UNL     1      41.026  29.210   4.008  0.00  0.00    +0.119 C 
BRANCH  19  20
ATOM     20  N   UNL     1      41.358  28.064   4.907  0.00  0.00    -0.302 NA
ATOM     21  C   UNL     1      42.866  27.930   5.134  0.00  0.00    +0.066 C 
ATOM     22  C   UNL     1      43.194  26.740   6.095  0.00  0.00    -0.064 C 
ATOM     23  N   UNL     1      42.616  25.448   5.516  0.00  0.00    +0.379 N 
ATOM     24  C   UNL     1      42.972  24.318   6.387  0.00  0.00    -0.096 C 
ATOM     25  H   UNL     1      43.097  25.276   4.526  0.00  0.00    -0.082 HD
ATOM     26  C   UNL     1      41.117  25.573   5.285  0.00  0.00    -0.064 C 
ATOM     27  C   UNL     1      40.800  26.776   4.353  0.00  0.00    +0.066 C 
ENDBRANCH  19  20
ENDBRANCH  18  19
ENDBRANCH  14  15
ENDBRANCH  12  13
TORSDOF 6
ENDMDL
