MODEL 1
REMARK VINA RESULT:      -7.4      0.000      0.000
REMARK  Name = C:\Users\Docking\Desktop\test protocol\1iep_ligandH.pdb
REMARK  8 active torsions:
REMARK  status: ('A' for Active; 'I' for Inactive)
REMARK    1  A    between atoms: _5  and  _11
REMARK    2  A    between atoms: _19  and  _21
REMARK    3  A    between atoms: _22  and  _66
REMARK    4  A    between atoms: _27  and  _30
REMARK    5  A    between atoms: _32  and  _33
REMARK    6  A    between atoms: _38  and  _43
REMARK    7  A    between atoms: _43  and  _46
REMARK    8  A    between atoms: _53  and  _55
REMARK                            x       y       z     vdW  Elec       q    Type
REMARK                         _______ _______ _______ _____ _____    ______ ____
ROOT
ATOM     10  C   UNL     1     197.398  15.851  57.207  0.00  0.00    +0.038 A 
ATOM     11  C   UNL     1     197.852  15.388  58.469  0.00  0.00    +0.047 A 
ATOM     12  C   UNL     1     198.235  13.999  58.668  0.00  0.00    +0.035 A 
ATOM     32  C   UNL     1     198.144  13.108  57.559  0.00  0.00    +0.024 A 
ATOM     33  C   UNL     1     197.683  13.561  56.270  0.00  0.00    +0.007 A 
ATOM     34  C   UNL     1     197.302  14.930  56.068  0.00  0.00    -0.029 A 
ATOM     35  C   UNL     1     196.809  15.358  54.667  0.00  0.00    +0.045 C 
ENDROOT
BRANCH  10   9
ATOM      4  C   UNL     1     198.472  20.441  56.309  0.00  0.00    +0.077 A 
ATOM      5  C   UNL     1     199.862  20.140  56.118  0.00  0.00    +0.048 A 
ATOM      6  C   UNL     1     200.260  18.793  56.267  0.00  0.00    +0.116 A 
ATOM      7  N   UNL     1     199.330  17.827  56.583  0.00  0.00    -0.223 NA
ATOM      8  C   UNL     1     197.998  18.151  56.762  0.00  0.00    +0.220 A 
ATOM      9  N   UNL     1     197.043  17.195  57.073  0.00  0.00    -0.283 N 
ATOM     36  H   UNL     1     196.072  17.476  57.204  0.00  0.00    +0.155 HD
ATOM     37  N   UNL     1     197.592  19.431  56.627  0.00  0.00    -0.214 NA
BRANCH   4   3
ATOM      1  C   UNL     1     196.067  23.517  56.539  0.00  0.00    +0.020 A 
ATOM      2  C   UNL     1     196.576  22.173  56.686  0.00  0.00    +0.013 A 
ATOM      3  C   UNL     1     197.897  21.818  56.183  0.00  0.00    +0.019 A 
ATOM     38  C   UNL     1     198.684  22.854  55.531  0.00  0.00    +0.120 A 
ATOM     39  N   UNL     1     198.167  24.139  55.402  0.00  0.00    -0.263 NA
ATOM     40  C   UNL     1     196.896  24.492  55.881  0.00  0.00    +0.111 A 
ENDBRANCH   4   3
ENDBRANCH  10   9
BRANCH  12  13
ATOM     13  N   UNL     1     198.696  13.470  59.927  0.00  0.00    -0.281 N 
ATOM     14  C   UNL     1     199.745  13.925  60.709  0.00  0.00    +0.248 C 
ATOM     30  O   UNL     1     200.585  14.730  60.337  0.00  0.00    -0.270 OA
ATOM     31  H   UNL     1     198.187  12.662  60.286  0.00  0.00    +0.155 HD
BRANCH  14  15
ATOM     15  C   UNL     1     199.889  13.400  62.101  0.00  0.00    +0.037 A 
ATOM     16  C   UNL     1     200.495  12.091  62.360  0.00  0.00    +0.013 A 
ATOM     17  C   UNL     1     200.606  11.600  63.711  0.00  0.00    +0.005 A 
ATOM     18  C   UNL     1     200.111  12.421  64.814  0.00  0.00    -0.033 A 
ATOM     28  C   UNL     1     199.519  13.717  64.529  0.00  0.00    +0.005 A 
ATOM     29  C   UNL     1     199.408  14.201  63.206  0.00  0.00    +0.013 A 
BRANCH  18  19
ATOM     19  C   UNL     1     200.170  11.968  66.285  0.00  0.00    +0.119 C 
BRANCH  19  20
ATOM     20  N   UNL     1     201.337  12.427  67.096  0.00  0.00    -0.302 NA
ATOM     21  C   UNL     1     201.326  13.943  67.312  0.00  0.00    +0.066 C 
ATOM     22  C   UNL     1     202.541  14.403  68.181  0.00  0.00    -0.064 C 
ATOM     23  N   UNL     1     203.842  13.961  67.508  0.00  0.00    +0.379 N 
ATOM     24  C   UNL     1     204.988  14.442  68.292  0.00  0.00    -0.096 C 
ATOM     25  H   UNL     1     203.888  14.450  66.507  0.00  0.00    -0.082 HD
ATOM     26  C   UNL     1     203.860  12.455  67.287  0.00  0.00    -0.064 C 
ATOM     27  C   UNL     1     202.632  12.005  66.447  0.00  0.00    +0.066 C 
ENDBRANCH  19  20
ENDBRANCH  18  19
ENDBRANCH  14  15
ENDBRANCH  12  13
TORSDOF 6
ENDMDL
MODEL 2
REMARK VINA RESULT:      -7.0     25.155     28.971
REMARK  Name = C:\Users\Docking\Desktop\test protocol\1iep_ligandH.pdb
REMARK  8 active torsions:
REMARK  status: ('A' for Active; 'I' for Inactive)
REMARK    1  A    between atoms: _5  and  _11
REMARK    2  A    between atoms: _19  and  _21
REMARK    3  A    between atoms: _22  and  _66
REMARK    4  A    between atoms: _27  and  _30
REMARK    5  A    between atoms: _32  and  _33
REMARK    6  A    between atoms: _38  and  _43
REMARK    7  A    between atoms: _43  and  _46
REMARK    8  A    between atoms: _53  and  _55
REMARK                            x       y       z     vdW  Elec       q    Type
REMARK                         _______ _______ _______ _____ _____    ______ ____
ROOT
ATOM     10  C   UNL     1     170.844  22.037  48.783  0.00  0.00    +0.038 A 
ATOM     11  C   UNL     1     171.557  21.175  49.655  0.00  0.00    +0.047 A 
ATOM     12  C   UNL     1     172.443  20.145  49.136  0.00  0.00    +0.035 A 
ATOM     32  C   UNL     1     172.582  20.022  47.722  0.00  0.00    +0.024 A 
ATOM     33  C   UNL     1     171.864  20.890  46.822  0.00  0.00    +0.007 A 
ATOM     34  C   UNL     1     170.986  21.906  47.328  0.00  0.00    -0.029 A 
ATOM     35  C   UNL     1     170.237  22.803  46.316  0.00  0.00    +0.045 C 
ENDROOT
BRANCH  10   9
ATOM      4  C   UNL     1     170.011  26.471  50.421  0.00  0.00    +0.077 A 
ATOM      5  C   UNL     1     171.365  26.879  50.180  0.00  0.00    +0.048 A 
ATOM      6  C   UNL     1     172.246  25.915  49.640  0.00  0.00    +0.116 A 
ATOM      7  N   UNL     1     171.796  24.642  49.365  0.00  0.00    -0.223 NA
ATOM      8  C   UNL     1     170.484  24.281  49.612  0.00  0.00    +0.220 A 
ATOM      9  N   UNL     1     170.007  23.009  49.337  0.00  0.00    -0.283 N 
ATOM     36  H   UNL     1     169.035  22.780  49.540  0.00  0.00    +0.155 HD
ATOM     37  N   UNL     1     169.623  25.183  50.129  0.00  0.00    -0.214 NA
BRANCH   4   3
ATOM      1  C   UNL     1     166.732  27.799  52.091  0.00  0.00    +0.020 A 
ATOM      2  C   UNL     1     167.714  26.883  51.558  0.00  0.00    +0.013 A 
ATOM      3  C   UNL     1     168.960  27.376  50.986  0.00  0.00    +0.019 A 
ATOM     38  C   UNL     1     169.184  28.814  50.967  0.00  0.00    +0.120 A 
ATOM     39  N   UNL     1     168.220  29.672  51.486  0.00  0.00    -0.263 NA
ATOM     40  C   UNL     1     167.016  29.209  52.038  0.00  0.00    +0.111 A 
ENDBRANCH   4   3
ENDBRANCH  10   9
BRANCH  12  13
ATOM     13  N   UNL     1     173.187  19.235  49.972  0.00  0.00    -0.281 N 
ATOM     14  C   UNL     1     174.085  19.545  50.979  0.00  0.00    +0.248 C 
ATOM     30  O   UNL     1     174.549  20.659  51.172  0.00  0.00    -0.270 OA
ATOM     31  H   UNL     1     173.032  18.242  49.800  0.00  0.00    +0.155 HD
BRANCH  14  15
ATOM     15  C   UNL     1     174.546  18.459  51.896  0.00  0.00    +0.037 A 
ATOM     16  C   UNL     1     173.595  17.526  52.507  0.00  0.00    +0.013 A 
ATOM     17  C   UNL     1     174.064  16.497  53.401  0.00  0.00    +0.005 A 
ATOM     18  C   UNL     1     175.493  16.395  53.689  0.00  0.00    -0.033 A 
ATOM     28  C   UNL     1     176.415  17.330  53.065  0.00  0.00    +0.005 A 
ATOM     29  C   UNL     1     175.958  18.340  52.189  0.00  0.00    +0.013 A 
BRANCH  18  19
ATOM     19  C   UNL     1     176.080  15.342  54.647  0.00  0.00    +0.119 C 
BRANCH  19  20
ATOM     20  N   UNL     1     176.225  13.950  54.127  0.00  0.00    -0.302 NA
ATOM     21  C   UNL     1     175.023  13.073  54.490  0.00  0.00    +0.066 C 
ATOM     22  C   UNL     1     175.180  11.626  53.919  0.00  0.00    -0.064 C 
ATOM     23  N   UNL     1     176.478  11.011  54.446  0.00  0.00    +0.379 N 
ATOM     24  C   UNL     1     176.600   9.630  53.958  0.00  0.00    -0.096 C 
ATOM     25  H   UNL     1     176.407  10.972  55.558  0.00  0.00    -0.082 HD
ATOM     26  C   UNL     1     177.678  11.878  54.091  0.00  0.00    -0.064 C 
ATOM     27  C   UNL     1     177.498  13.322  54.638  0.00  0.00    +0.066 C 
ENDBRANCH  19  20
ENDBRANCH  18  19
ENDBRANCH  14  15
ENDBRANCH  12  13
TORSDOF 6
ENDMDL
MODEL 3
REMARK VINA RESULT:      -6.9     25.518     29.711
REMARK  Name = C:\Users\Docking\Desktop\test protocol\1iep_ligandH.pdb
REMARK  8 active torsions:
REMARK  status: ('A' for Active; 'I' for Inactive)
REMARK    1  A    between atoms: _5  and  _11
REMARK    2  A    between atoms: _19  and  _21
REMARK    3  A    between atoms: _22  and  _66
REMARK    4  A    between atoms: _27  and  _30
REMARK    5  A    between atoms: _32  and  _33
REMARK    6  A    between atoms: _38  and  _43
REMARK    7  A    between atoms: _43  and  _46
REMARK    8  A    between atoms: _53  and  _55
REMARK                            x       y       z     vdW  Elec       q    Type
REMARK                         _______ _______ _______ _____ _____    ______ ____
ROOT
ATOM     10  C   UNL     1     171.207  24.317  48.547  0.00  0.00    +0.038 A 
ATOM     11  C   UNL     1     171.583  23.162  49.279  0.00  0.00    +0.047 A 
ATOM     12  C   UNL     1     172.746  22.375  48.898  0.00  0.00    +0.035 A 
ATOM     32  C   UNL     1     173.506  22.797  47.768  0.00  0.00    +0.024 A 
ATOM     33  C   UNL     1     173.138  23.968  47.012  0.00  0.00    +0.007 A 
ATOM     34  C   UNL     1     171.990  24.746  47.382  0.00  0.00    -0.029 A 
ATOM     35  C   UNL     1     171.638  25.989  46.531  0.00  0.00    +0.045 C 
ENDROOT
BRANCH  10   9
ATOM      4  C   UNL     1     169.064  27.632  51.277  0.00  0.00    +0.077 A 
ATOM      5  C   UNL     1     170.285  27.942  51.964  0.00  0.00    +0.048 A 
ATOM      6  C   UNL     1     171.441  27.220  51.589  0.00  0.00    +0.116 A 
ATOM      7  N   UNL     1     171.369  26.263  50.601  0.00  0.00    -0.223 NA
ATOM      8  C   UNL     1     170.175  25.988  49.960  0.00  0.00    +0.220 A 
ATOM      9  N   UNL     1     170.081  25.035  48.957  0.00  0.00    -0.283 N 
ATOM     36  H   UNL     1     169.181  24.856  48.514  0.00  0.00    +0.155 HD
ATOM     37  N   UNL     1     169.057  26.662  50.300  0.00  0.00    -0.214 NA
BRANCH   4   3
ATOM      1  C   UNL     1     165.314  28.287  52.177  0.00  0.00    +0.020 A 
ATOM      2  C   UNL     1     166.548  27.583  51.915  0.00  0.00    +0.013 A 
ATOM      3  C   UNL     1     167.759  28.311  51.558  0.00  0.00    +0.019 A 
ATOM     38  C   UNL     1     167.687  29.762  51.475  0.00  0.00    +0.120 A 
ATOM     39  N   UNL     1     166.484  30.413  51.731  0.00  0.00    -0.263 NA
ATOM     40  C   UNL     1     165.312  29.722  52.073  0.00  0.00    +0.111 A 
ENDBRANCH   4   3
ENDBRANCH  10   9
BRANCH  12  13
ATOM     13  N   UNL     1     173.172  21.188  49.598  0.00  0.00    -0.281 N 
ATOM     14  C   UNL     1     174.199  21.065  50.518  0.00  0.00    +0.248 C 
ATOM     30  O   UNL     1     175.051  21.917  50.722  0.00  0.00    -0.270 OA
ATOM     31  H   UNL     1     172.652  20.336  49.389  0.00  0.00    +0.155 HD
BRANCH  14  15
ATOM     15  C   UNL     1     174.304  19.807  51.319  0.00  0.00    +0.037 A 
ATOM     16  C   UNL     1     175.606  19.270  51.724  0.00  0.00    +0.013 A 
ATOM     17  C   UNL     1     175.679  18.046  52.482  0.00  0.00    +0.005 A 
ATOM     18  C   UNL     1     174.445  17.351  52.840  0.00  0.00    -0.033 A 
ATOM     28  C   UNL     1     173.167  17.908  52.429  0.00  0.00    +0.005 A 
ATOM     29  C   UNL     1     173.091  19.107  51.686  0.00  0.00    +0.013 A 
BRANCH  18  19
ATOM     19  C   UNL     1     174.430  16.027  53.628  0.00  0.00    +0.119 C 
BRANCH  19  20
ATOM     20  N   UNL     1     175.390  14.966  53.201  0.00  0.00    -0.302 NA
ATOM     21  C   UNL     1     174.686  13.636  52.914  0.00  0.00    +0.066 C 
ATOM     22  C   UNL     1     175.701  12.544  52.447  0.00  0.00    -0.064 C 
ATOM     23  N   UNL     1     176.781  12.365  53.515  0.00  0.00    +0.379 N 
ATOM     24  C   UNL     1     177.705  11.297  53.105  0.00  0.00    -0.096 C 
ATOM     25  H   UNL     1     176.278  12.035  54.453  0.00  0.00    -0.082 HD
ATOM     26  C   UNL     1     177.485  13.683  53.808  0.00  0.00    -0.064 C 
ATOM     27  C   UNL     1     176.463  14.770  54.243  0.00  0.00    +0.066 C 
ENDBRANCH  19  20
ENDBRANCH  18  19
ENDBRANCH  14  15
ENDBRANCH  12  13
TORSDOF 6
ENDMDL
