MODEL 1
REMARK VINA RESULT:      -8.8      0.000      0.000
REMARK  Name = C:\Users\Docking\Desktop\test protocol\1iep_ligandH.pdb
REMARK  8 active torsions:
REMARK  status: ('A' for Active; 'I' for Inactive)
REMARK    1  A    between atoms: _5  and  _11
REMARK    2  A    between atoms: _19  and  _21
REMARK    3  A    between atoms: _22  and  _66
REMARK    4  A    between atoms: _27  and  _30
REMARK    5  A    between atoms: _32  and  _33
REMARK    6  A    between atoms: _38  and  _43
REMARK    7  A    between atoms: _43  and  _46
REMARK    8  A    between atoms: _53  and  _55
REMARK                            x       y       z     vdW  Elec       q    Type
REMARK                         _______ _______ _______ _____ _____    ______ ____
ROOT
ATOM     10  C   UNL     1      19.823  27.084  13.431  0.00  0.00    +0.038 A 
ATOM     11  C   UNL     1      20.898  27.771  12.811  0.00  0.00    +0.047 A 
ATOM     12  C   UNL     1      22.176  27.116  12.579  0.00  0.00    +0.035 A 
ATOM     32  C   UNL     1      22.324  25.759  12.990  0.00  0.00    +0.024 A 
ATOM     33  C   UNL     1      21.243  25.046  13.623  0.00  0.00    +0.007 A 
ATOM     34  C   UNL     1      19.981  25.687  13.857  0.00  0.00    -0.029 A 
ATOM     35  C   UNL     1      18.859  24.876  14.546  0.00  0.00    +0.045 C 
ENDROOT
BRANCH  10   9
ATOM      4  C   UNL     1      16.880  29.801  16.075  0.00  0.00    +0.077 A 
ATOM      5  C   UNL     1      17.812  29.855  17.165  0.00  0.00    +0.048 A 
ATOM      6  C   UNL     1      19.034  29.163  17.008  0.00  0.00    +0.116 A 
ATOM      7  N   UNL     1      19.295  28.474  15.843  0.00  0.00    -0.223 NA
ATOM      8  C   UNL     1      18.373  28.441  14.812  0.00  0.00    +0.220 A 
ATOM      9  N   UNL     1      18.618  27.761  13.629  0.00  0.00    -0.283 N 
ATOM     36  H   UNL     1      17.910  27.754  12.896  0.00  0.00    +0.155 HD
ATOM     37  N   UNL     1      17.198  29.092  14.938  0.00  0.00    -0.214 NA
BRANCH   4   3
ATOM      1  C   UNL     1      13.040  30.487  16.367  0.00  0.00    +0.020 A 
ATOM      2  C   UNL     1      14.301  29.781  16.366  0.00  0.00    +0.013 A 
ATOM      3  C   UNL     1      15.547  30.483  16.089  0.00  0.00    +0.019 A 
ATOM     38  C   UNL     1      15.484  31.911  15.816  0.00  0.00    +0.120 A 
ATOM     39  N   UNL     1      14.255  32.564  15.823  0.00  0.00    -0.263 NA
ATOM     40  C   UNL     1      13.048  31.899  16.086  0.00  0.00    +0.111 A 
ENDBRANCH   4   3
ENDBRANCH  10   9
BRANCH  12  13
ATOM     13  N   UNL     1      23.305  27.766  11.960  0.00  0.00    -0.281 N 
ATOM     14  C   UNL     1      24.472  28.203  12.565  0.00  0.00    +0.248 C 
ATOM     30  O   UNL     1      24.632  28.294  13.773  0.00  0.00    -0.270 OA
ATOM     31  H   UNL     1      23.235  27.922  10.955  0.00  0.00    +0.155 HD
BRANCH  14  15
ATOM     15  C   UNL     1      25.623  28.611  11.703  0.00  0.00    +0.037 A 
ATOM     16  C   UNL     1      26.985  28.153  11.986  0.00  0.00    +0.013 A 
ATOM     17  C   UNL     1      28.079  28.576  11.149  0.00  0.00    +0.005 A 
ATOM     18  C   UNL     1      27.815  29.462  10.018  0.00  0.00    -0.033 A 
ATOM     28  C   UNL     1      26.453  29.897   9.756  0.00  0.00    +0.005 A 
ATOM     29  C   UNL     1      25.378  29.486  10.576  0.00  0.00    +0.013 A 
BRANCH  18  19
ATOM     19  C   UNL     1      28.924  29.980   9.084  0.00  0.00    +0.119 C 
BRANCH  19  20
ATOM     20  N   UNL     1      29.348  29.087   7.964  0.00  0.00    -0.302 NA
ATOM     21  C   UNL     1      30.572  28.244   8.333  0.00  0.00    +0.066 C 
ATOM     22  C   UNL     1      30.988  27.300   7.158  0.00  0.00    -0.064 C 
ATOM     23  N   UNL     1      31.263  28.137   5.908  0.00  0.00    +0.379 N 
ATOM     24  C   UNL     1      31.711  27.258   4.818  0.00  0.00    -0.096 C 
ATOM     25  H   UNL     1      32.100  28.834   6.146  0.00  0.00    -0.082 HD
ATOM     26  C   UNL     1      30.052  28.980   5.536  0.00  0.00    -0.064 C 
ATOM     27  C   UNL     1      29.629  29.894   6.720  0.00  0.00    +0.066 C 
ENDBRANCH  19  20
ENDBRANCH  18  19
ENDBRANCH  14  15
ENDBRANCH  12  13
TORSDOF 6
ENDMDL
MODEL 2
REMARK VINA RESULT:      -8.7     21.216     25.580
REMARK  Name = C:\Users\Docking\Desktop\test protocol\1iep_ligandH.pdb
REMARK  8 active torsions:
REMARK  status: ('A' for Active; 'I' for Inactive)
REMARK    1  A    between atoms: _5  and  _11
REMARK    2  A    between atoms: _19  and  _21
REMARK    3  A    between atoms: _22  and  _66
REMARK    4  A    between atoms: _27  and  _30
REMARK    5  A    between atoms: _32  and  _33
REMARK    6  A    between atoms: _38  and  _43
REMARK    7  A    between atoms: _43  and  _46
REMARK    8  A    between atoms: _53  and  _55
REMARK                            x       y       z     vdW  Elec       q    Type
REMARK                         _______ _______ _______ _____ _____    ______ ____
ROOT
ATOM     10  C   UNL     1      19.183   4.937  17.768  0.00  0.00    +0.038 A 
ATOM     11  C   UNL     1      20.010   5.295  18.863  0.00  0.00    +0.047 A 
ATOM     12  C   UNL     1      19.686   4.880  20.218  0.00  0.00    +0.035 A 
ATOM     32  C   UNL     1      18.512   4.097  20.423  0.00  0.00    +0.024 A 
ATOM     33  C   UNL     1      17.659   3.725  19.321  0.00  0.00    +0.007 A 
ATOM     34  C   UNL     1      17.973   4.135  17.982  0.00  0.00    -0.029 A 
ATOM     35  C   UNL     1      17.019   3.712  16.840  0.00  0.00    +0.045 C 
ENDROOT
BRANCH  10   9
ATOM      4  C   UNL     1      19.279   8.226  14.273  0.00  0.00    +0.077 A 
ATOM      5  C   UNL     1      18.527   9.165  15.055  0.00  0.00    +0.048 A 
ATOM      6  C   UNL     1      18.129   8.760  16.349  0.00  0.00    +0.116 A 
ATOM      7  N   UNL     1      18.463   7.507  16.815  0.00  0.00    -0.223 NA
ATOM      8  C   UNL     1      19.188   6.625  16.035  0.00  0.00    +0.220 A 
ATOM      9  N   UNL     1      19.542   5.363  16.487  0.00  0.00    -0.283 N 
ATOM     36  H   UNL     1      20.071   4.740  15.878  0.00  0.00    +0.155 HD
ATOM     37  N   UNL     1      19.579   6.988  14.795  0.00  0.00    -0.214 NA
BRANCH   4   3
ATOM      1  C   UNL     1      20.145  10.033  10.914  0.00  0.00    +0.020 A 
ATOM      2  C   UNL     1      19.649   9.813  12.253  0.00  0.00    +0.013 A 
ATOM      3  C   UNL     1      19.775   8.508  12.889  0.00  0.00    +0.019 A 
ATOM     38  C   UNL     1      20.414   7.438  12.137  0.00  0.00    +0.120 A 
ATOM     39  N   UNL     1      20.881   7.679  10.849  0.00  0.00    -0.263 NA
ATOM     40  C   UNL     1      20.763   8.931  10.226  0.00  0.00    +0.111 A 
ENDBRANCH   4   3
ENDBRANCH  10   9
BRANCH  12  13
ATOM     13  N   UNL     1      20.484   5.220  21.370  0.00  0.00    -0.281 N 
ATOM     14  C   UNL     1      21.834   4.984  21.571  0.00  0.00    +0.248 C 
ATOM     30  O   UNL     1      22.518   4.250  20.874  0.00  0.00    -0.270 OA
ATOM     31  H   UNL     1      19.993   5.692  22.130  0.00  0.00    +0.155 HD
BRANCH  14  15
ATOM     15  C   UNL     1      22.520   5.649  22.720  0.00  0.00    +0.037 A 
ATOM     16  C   UNL     1      23.921   6.068  22.630  0.00  0.00    +0.013 A 
ATOM     17  C   UNL     1      24.564   6.692  23.759  0.00  0.00    +0.005 A 
ATOM     18  C   UNL     1      23.805   6.902  24.989  0.00  0.00    -0.033 A 
ATOM     28  C   UNL     1      22.415   6.481  25.050  0.00  0.00    +0.005 A 
ATOM     29  C   UNL     1      21.782   5.869  23.945  0.00  0.00    +0.013 A 
BRANCH  18  19
ATOM     19  C   UNL     1      24.416   7.540  26.250  0.00  0.00    +0.119 C 
BRANCH  19  20
ATOM     20  N   UNL     1      25.446   6.749  26.987  0.00  0.00    -0.302 NA
ATOM     21  C   UNL     1      24.908   5.391  27.445  0.00  0.00    +0.066 C 
ATOM     22  C   UNL     1      26.005   4.567  28.194  0.00  0.00    -0.064 C 
ATOM     23  N   UNL     1      26.521   5.375  29.386  0.00  0.00    +0.379 N 
ATOM     24  C   UNL     1      27.511   4.579  30.126  0.00  0.00    -0.096 C 
ATOM     25  H   UNL     1      25.658   5.560  30.067  0.00  0.00    -0.082 HD
ATOM     26  C   UNL     1      27.056   6.728  28.940  0.00  0.00    -0.064 C 
ATOM     27  C   UNL     1      25.966   7.527  28.171  0.00  0.00    +0.066 C 
ENDBRANCH  19  20
ENDBRANCH  18  19
ENDBRANCH  14  15
ENDBRANCH  12  13
TORSDOF 6
ENDMDL
MODEL 3
REMARK VINA RESULT:      -8.7      2.357     13.628
REMARK  Name = C:\Users\Docking\Desktop\test protocol\1iep_ligandH.pdb
REMARK  8 active torsions:
REMARK  status: ('A' for Active; 'I' for Inactive)
REMARK    1  A    between atoms: _5  and  _11
REMARK    2  A    between atoms: _19  and  _21
REMARK    3  A    between atoms: _22  and  _66
REMARK    4  A    between atoms: _27  and  _30
REMARK    5  A    between atoms: _32  and  _33
REMARK    6  A    between atoms: _38  and  _43
REMARK    7  A    between atoms: _43  and  _46
REMARK    8  A    between atoms: _53  and  _55
REMARK                            x       y       z     vdW  Elec       q    Type
REMARK                         _______ _______ _______ _____ _____    ______ ____
ROOT
ATOM     10  C   UNL     1      22.002  26.975  13.551  0.00  0.00    +0.038 A 
ATOM     11  C   UNL     1      20.958  27.917  13.740  0.00  0.00    +0.047 A 
ATOM     12  C   UNL     1      19.949  27.725  14.771  0.00  0.00    +0.035 A 
ATOM     32  C   UNL     1      20.036  26.564  15.593  0.00  0.00    +0.024 A 
ATOM     33  C   UNL     1      21.090  25.597  15.414  0.00  0.00    +0.007 A 
ATOM     34  C   UNL     1      22.086  25.779  14.398  0.00  0.00    -0.029 A 
ATOM     35  C   UNL     1      23.189  24.706  14.246  0.00  0.00    +0.045 C 
ENDROOT
BRANCH  10   9
ATOM      4  C   UNL     1      26.116  28.870  11.964  0.00  0.00    +0.077 A 
ATOM      5  C   UNL     1      26.401  29.467  13.237  0.00  0.00    +0.048 A 
ATOM      6  C   UNL     1      25.460  29.269  14.272  0.00  0.00    +0.116 A 
ATOM      7  N   UNL     1      24.322  28.527  14.040  0.00  0.00    -0.223 NA
ATOM      8  C   UNL     1      24.077  27.966  12.800  0.00  0.00    +0.220 A 
ATOM      9  N   UNL     1      22.943  27.209  12.546  0.00  0.00    -0.283 N 
ATOM     36  H   UNL     1      22.795  26.819  11.616  0.00  0.00    +0.155 HD
ATOM     37  N   UNL     1      24.960  28.142  11.795  0.00  0.00    -0.214 NA
BRANCH   4   3
ATOM      1  C   UNL     1      28.864  28.147   9.276  0.00  0.00    +0.020 A 
ATOM      2  C   UNL     1      28.021  27.986  10.438  0.00  0.00    +0.013 A 
ATOM      3  C   UNL     1      27.016  28.987  10.773  0.00  0.00    +0.019 A 
ATOM     38  C   UNL     1      26.888  30.147   9.904  0.00  0.00    +0.120 A 
ATOM     39  N   UNL     1      27.715  30.276   8.793  0.00  0.00    -0.263 NA
ATOM     40  C   UNL     1      28.687  29.320   8.461  0.00  0.00    +0.111 A 
ENDBRANCH   4   3
ENDBRANCH  10   9
BRANCH  12  13
ATOM     13  N   UNL     1      18.862  28.643  15.004  0.00  0.00    -0.281 N 
ATOM     14  C   UNL     1      17.722  28.825  14.238  0.00  0.00    +0.248 C 
ATOM     30  O   UNL     1      17.567  28.374  13.112  0.00  0.00    -0.270 OA
ATOM     31  H   UNL     1      18.942  29.229  15.835  0.00  0.00    +0.155 HD
BRANCH  14  15
ATOM     15  C   UNL     1      16.599  29.638  14.796  0.00  0.00    +0.037 A 
ATOM     16  C   UNL     1      15.891  30.621  13.973  0.00  0.00    +0.013 A 
ATOM     17  C   UNL     1      14.822  31.404  14.541  0.00  0.00    +0.005 A 
ATOM     18  C   UNL     1      14.454  31.205  15.941  0.00  0.00    -0.033 A 
ATOM     28  C   UNL     1      15.170  30.218  16.733  0.00  0.00    +0.005 A 
ATOM     29  C   UNL     1      16.219  29.450  16.180  0.00  0.00    +0.013 A 
BRANCH  18  19
ATOM     19  C   UNL     1      13.341  32.011  16.636  0.00  0.00    +0.119 C 
BRANCH  19  20
ATOM     20  N   UNL     1      12.014  32.074  15.953  0.00  0.00    -0.302 NA
ATOM     21  C   UNL     1      11.167  33.248  16.451  0.00  0.00    +0.066 C 
ATOM     22  C   UNL     1       9.792  33.313  15.710  0.00  0.00    -0.064 C 
ATOM     23  N   UNL     1       9.049  31.989  15.903  0.00  0.00    +0.379 N 
ATOM     24  C   UNL     1       7.731  32.068  15.257  0.00  0.00    -0.096 C 
ATOM     25  H   UNL     1       8.882  31.852  16.997  0.00  0.00    -0.082 HD
ATOM     26  C   UNL     1       9.886  30.816  15.414  0.00  0.00    -0.064 C 
ATOM     27  C   UNL     1      11.262  30.778  16.135  0.00  0.00    +0.066 C 
ENDBRANCH  19  20
ENDBRANCH  18  19
ENDBRANCH  14  15
ENDBRANCH  12  13
TORSDOF 6
ENDMDL
