MODEL 1
REMARK VINA RESULT:      -9.2      0.000      0.000
REMARK  Name = C:\Users\Docking\Desktop\test protocol\1iep_ligandH.pdb
REMARK  8 active torsions:
REMARK  status: ('A' for Active; 'I' for Inactive)
REMARK    1  A    between atoms: _5  and  _11
REMARK    2  A    between atoms: _19  and  _21
REMARK    3  A    between atoms: _22  and  _66
REMARK    4  A    between atoms: _27  and  _30
REMARK    5  A    between atoms: _32  and  _33
REMARK    6  A    between atoms: _38  and  _43
REMARK    7  A    between atoms: _43  and  _46
REMARK    8  A    between atoms: _53  and  _55
REMARK                            x       y       z     vdW  Elec       q    Type
REMARK                         _______ _______ _______ _____ _____    ______ ____
ROOT
ATOM     10  C   UNL     1      19.517  53.909  41.611  0.00  0.00    +0.038 A 
ATOM     11  C   UNL     1      19.694  52.504  41.698  0.00  0.00    +0.047 A 
ATOM     12  C   UNL     1      18.955  51.712  42.669  0.00  0.00    +0.035 A 
ATOM     32  C   UNL     1      18.042  52.383  43.534  0.00  0.00    +0.024 A 
ATOM     33  C   UNL     1      17.851  53.810  43.459  0.00  0.00    +0.007 A 
ATOM     34  C   UNL     1      18.579  54.597  42.505  0.00  0.00    -0.029 A 
ATOM     35  C   UNL     1      18.339  56.124  42.475  0.00  0.00    +0.045 C 
ENDROOT
BRANCH  10   9
ATOM      4  C   UNL     1      20.050  55.837  37.248  0.00  0.00    +0.077 A 
ATOM      5  C   UNL     1      18.766  55.365  36.817  0.00  0.00    +0.048 A 
ATOM      6  C   UNL     1      18.003  54.623  37.746  0.00  0.00    +0.116 A 
ATOM      7  N   UNL     1      18.496  54.378  39.009  0.00  0.00    -0.223 NA
ATOM      8  C   UNL     1      19.740  54.847  39.392  0.00  0.00    +0.220 A 
ATOM      9  N   UNL     1      20.253  54.620  40.660  0.00  0.00    -0.283 N 
ATOM     36  H   UNL     1      21.177  54.977  40.901  0.00  0.00    +0.155 HD
ATOM     37  N   UNL     1      20.489  55.557  38.523  0.00  0.00    -0.214 NA
BRANCH   4   3
ATOM      1  C   UNL     1      21.790  58.811  35.395  0.00  0.00    +0.020 A 
ATOM      2  C   UNL     1      20.873  58.085  36.244  0.00  0.00    +0.013 A 
ATOM      3  C   UNL     1      20.973  56.638  36.382  0.00  0.00    +0.019 A 
ATOM     38  C   UNL     1      22.019  55.949  35.642  0.00  0.00    +0.120 A 
ATOM     39  N   UNL     1      22.886  56.674  34.830  0.00  0.00    -0.263 NA
ATOM     40  C   UNL     1      22.799  58.068  34.689  0.00  0.00    +0.111 A 
ENDBRANCH   4   3
ENDBRANCH  10   9
BRANCH  12  13
ATOM     13  N   UNL     1      19.098  50.284  42.809  0.00  0.00    -0.281 N 
ATOM     14  C   UNL     1      20.067  49.591  43.516  0.00  0.00    +0.248 C 
ATOM     30  O   UNL     1      21.089  50.092  43.962  0.00  0.00    -0.270 OA
ATOM     31  H   UNL     1      18.401  49.715  42.329  0.00  0.00    +0.155 HD
BRANCH  14  15
ATOM     15  C   UNL     1      19.882  48.126  43.748  0.00  0.00    +0.037 A 
ATOM     16  C   UNL     1      18.688  47.608  44.421  0.00  0.00    +0.013 A 
ATOM     17  C   UNL     1      18.542  46.192  44.648  0.00  0.00    +0.005 A 
ATOM     18  C   UNL     1      19.594  45.283  44.200  0.00  0.00    -0.033 A 
ATOM     28  C   UNL     1      20.765  45.823  43.530  0.00  0.00    +0.005 A 
ATOM     29  C   UNL     1      20.912  47.210  43.307  0.00  0.00    +0.013 A 
BRANCH  18  19
ATOM     19  C   UNL     1      19.532  43.760  44.419  0.00  0.00    +0.119 C 
BRANCH  19  20
ATOM     20  N   UNL     1      19.939  43.245  45.760  0.00  0.00    -0.302 NA
ATOM     21  C   UNL     1      19.376  41.848  46.034  0.00  0.00    +0.066 C 
ATOM     22  C   UNL     1      19.830  41.315  47.432  0.00  0.00    -0.064 C 
ATOM     23  N   UNL     1      19.389  42.299  48.517  0.00  0.00    +0.379 N 
ATOM     24  C   UNL     1      19.764  41.772  49.838  0.00  0.00    -0.096 C 
ATOM     25  H   UNL     1      18.277  42.365  48.482  0.00  0.00    -0.082 HD
ATOM     26  C   UNL     1      19.943  43.691  48.251  0.00  0.00    -0.064 C 
ATOM     27  C   UNL     1      19.510  44.199  46.847  0.00  0.00    +0.066 C 
ENDBRANCH  19  20
ENDBRANCH  18  19
ENDBRANCH  14  15
ENDBRANCH  12  13
TORSDOF 6
ENDMDL
MODEL 2
REMARK VINA RESULT:      -9.2      2.973      4.693
REMARK  Name = C:\Users\Docking\Desktop\test protocol\1iep_ligandH.pdb
REMARK  8 active torsions:
REMARK  status: ('A' for Active; 'I' for Inactive)
REMARK    1  A    between atoms: _5  and  _11
REMARK    2  A    between atoms: _19  and  _21
REMARK    3  A    between atoms: _22  and  _66
REMARK    4  A    between atoms: _27  and  _30
REMARK    5  A    between atoms: _32  and  _33
REMARK    6  A    between atoms: _38  and  _43
REMARK    7  A    between atoms: _43  and  _46
REMARK    8  A    between atoms: _53  and  _55
REMARK                            x       y       z     vdW  Elec       q    Type
REMARK                         _______ _______ _______ _____ _____    ______ ____
ROOT
ATOM     10  C   UNL     1      19.613  53.245  41.463  0.00  0.00    +0.038 A 
ATOM     11  C   UNL     1      19.355  51.927  41.918  0.00  0.00    +0.047 A 
ATOM     12  C   UNL     1      20.320  50.858  41.716  0.00  0.00    +0.035 A 
ATOM     32  C   UNL     1      21.541  51.168  41.048  0.00  0.00    +0.024 A 
ATOM     33  C   UNL     1      21.820  52.502  40.578  0.00  0.00    +0.007 A 
ATOM     34  C   UNL     1      20.870  53.560  40.772  0.00  0.00    -0.029 A 
ATOM     35  C   UNL     1      21.219  54.970  40.241  0.00  0.00    +0.045 C 
ENDROOT
BRANCH  10   9
ATOM      4  C   UNL     1      15.728  55.739  40.149  0.00  0.00    +0.077 A 
ATOM      5  C   UNL     1      15.623  55.033  38.905  0.00  0.00    +0.048 A 
ATOM      6  C   UNL     1      16.592  54.040  38.638  0.00  0.00    +0.116 A 
ATOM      7  N   UNL     1      17.588  53.781  39.555  0.00  0.00    -0.223 NA
ATOM      8  C   UNL     1      17.662  54.482  40.744  0.00  0.00    +0.220 A 
ATOM      9  N   UNL     1      18.651  54.233  41.684  0.00  0.00    -0.283 N 
ATOM     36  H   UNL     1      18.676  54.777  42.546  0.00  0.00    +0.155 HD
ATOM     37  N   UNL     1      16.750  55.436  41.022  0.00  0.00    -0.214 NA
BRANCH   4   3
ATOM      1  C   UNL     1      12.972  57.734  42.079  0.00  0.00    +0.020 A 
ATOM      2  C   UNL     1      13.871  56.665  41.708  0.00  0.00    +0.013 A 
ATOM      3  C   UNL     1      14.778  56.814  40.576  0.00  0.00    +0.019 A 
ATOM     38  C   UNL     1      14.751  58.066  39.836  0.00  0.00    +0.120 A 
ATOM     39  N   UNL     1      13.874  59.078  40.216  0.00  0.00    -0.263 NA
ATOM     40  C   UNL     1      12.995  58.946  41.302  0.00  0.00    +0.111 A 
ENDBRANCH   4   3
ENDBRANCH  10   9
BRANCH  12  13
ATOM     13  N   UNL     1      20.110  49.499  42.149  0.00  0.00    -0.281 N 
ATOM     14  C   UNL     1      19.874  48.382  41.365  0.00  0.00    +0.248 C 
ATOM     30  O   UNL     1      19.595  48.419  40.176  0.00  0.00    -0.270 OA
ATOM     31  H   UNL     1      20.138  49.342  43.157  0.00  0.00    +0.155 HD
BRANCH  14  15
ATOM     15  C   UNL     1      19.944  47.029  41.996  0.00  0.00    +0.037 A 
ATOM     16  C   UNL     1      21.203  46.503  42.528  0.00  0.00    +0.013 A 
ATOM     17  C   UNL     1      21.247  45.188  43.116  0.00  0.00    +0.005 A 
ATOM     18  C   UNL     1      20.025  44.389  43.176  0.00  0.00    -0.033 A 
ATOM     28  C   UNL     1      18.788  44.937  42.644  0.00  0.00    +0.005 A 
ATOM     29  C   UNL     1      18.742  46.226  42.066  0.00  0.00    +0.013 A 
BRANCH  18  19
ATOM     19  C   UNL     1      19.983  42.967  43.766  0.00  0.00    +0.119 C 
BRANCH  19  20
ATOM     20  N   UNL     1      20.233  42.828  45.232  0.00  0.00    -0.302 NA
ATOM     21  C   UNL     1      19.761  41.474  45.769  0.00  0.00    +0.066 C 
ATOM     22  C   UNL     1      20.051  41.336  47.299  0.00  0.00    -0.064 C 
ATOM     23  N   UNL     1      19.372  42.483  48.049  0.00  0.00    +0.379 N 
ATOM     24  C   UNL     1      19.594  42.324  49.494  0.00  0.00    -0.096 C 
ATOM     25  H   UNL     1      18.275  42.405  47.865  0.00  0.00    -0.082 HD
ATOM     26  C   UNL     1      19.834  43.833  47.520  0.00  0.00    -0.064 C 
ATOM     27  C   UNL     1      19.568  43.948  45.993  0.00  0.00    +0.066 C 
ENDBRANCH  19  20
ENDBRANCH  18  19
ENDBRANCH  14  15
ENDBRANCH  12  13
TORSDOF 6
ENDMDL
MODEL 3
REMARK VINA RESULT:      -9.1     21.430     28.013
REMARK  Name = C:\Users\Docking\Desktop\test protocol\1iep_ligandH.pdb
REMARK  8 active torsions:
REMARK  status: ('A' for Active; 'I' for Inactive)
REMARK    1  A    between atoms: _5  and  _11
REMARK    2  A    between atoms: _19  and  _21
REMARK    3  A    between atoms: _22  and  _66
REMARK    4  A    between atoms: _27  and  _30
REMARK    5  A    between atoms: _32  and  _33
REMARK    6  A    between atoms: _38  and  _43
REMARK    7  A    between atoms: _43  and  _46
REMARK    8  A    between atoms: _53  and  _55
REMARK                            x       y       z     vdW  Elec       q    Type
REMARK                         _______ _______ _______ _____ _____    ______ ____
ROOT
ATOM     10  C   UNL     1      17.868  68.950  55.820  0.00  0.00    +0.038 A 
ATOM     11  C   UNL     1      17.329  70.148  55.286  0.00  0.00    +0.047 A 
ATOM     12  C   UNL     1      18.182  71.136  54.644  0.00  0.00    +0.035 A 
ATOM     32  C   UNL     1      19.580  70.870  54.560  0.00  0.00    +0.024 A 
ATOM     33  C   UNL     1      20.145  69.657  55.098  0.00  0.00    +0.007 A 
ATOM     34  C   UNL     1      19.308  68.680  55.735  0.00  0.00    -0.029 A 
ATOM     35  C   UNL     1      19.969  67.401  56.300  0.00  0.00    +0.045 C 
ENDROOT
BRANCH  10   9
ATOM      4  C   UNL     1      14.973  65.124  55.672  0.00  0.00    +0.077 A 
ATOM      5  C   UNL     1      15.180  64.948  54.264  0.00  0.00    +0.048 A 
ATOM      6  C   UNL     1      16.033  65.867  53.613  0.00  0.00    +0.116 A 
ATOM      7  N   UNL     1      16.630  66.883  54.328  0.00  0.00    -0.223 NA
ATOM      8  C   UNL     1      16.407  67.026  55.685  0.00  0.00    +0.220 A 
ATOM      9  N   UNL     1      17.003  68.036  56.426  0.00  0.00    -0.283 N 
ATOM     36  H   UNL     1      16.807  68.112  57.423  0.00  0.00    +0.155 HD
ATOM     37  N   UNL     1      15.595  66.162  56.330  0.00  0.00    -0.214 NA
BRANCH   4   3
ATOM      1  C   UNL     1      11.941  63.011  56.955  0.00  0.00    +0.020 A 
ATOM      2  C   UNL     1      12.740  63.877  56.119  0.00  0.00    +0.013 A 
ATOM      3  C   UNL     1      14.101  64.232  56.501  0.00  0.00    +0.019 A 
ATOM     38  C   UNL     1      14.628  63.690  57.745  0.00  0.00    +0.120 A 
ATOM     39  N   UNL     1      13.834  62.860  58.530  0.00  0.00    -0.263 NA
ATOM     40  C   UNL     1      12.522  62.512  58.173  0.00  0.00    +0.111 A 
ENDBRANCH   4   3
ENDBRANCH  10   9
BRANCH  12  13
ATOM     13  N   UNL     1      17.693  72.375  54.091  0.00  0.00    -0.281 N 
ATOM     14  C   UNL     1      17.762  73.642  54.647  0.00  0.00    +0.248 C 
ATOM     30  O   UNL     1      18.068  73.871  55.808  0.00  0.00    -0.270 OA
ATOM     31  H   UNL     1      17.241  72.309  53.179  0.00  0.00    +0.155 HD
BRANCH  14  15
ATOM     15  C   UNL     1      17.431  74.823  53.794  0.00  0.00    +0.037 A 
ATOM     16  C   UNL     1      16.085  75.011  53.246  0.00  0.00    +0.013 A 
ATOM     17  C   UNL     1      15.796  76.151  52.412  0.00  0.00    +0.005 A 
ATOM     18  C   UNL     1      16.857  77.114  52.123  0.00  0.00    -0.033 A 
ATOM     28  C   UNL     1      18.181  76.906  52.684  0.00  0.00    +0.005 A 
ATOM     29  C   UNL     1      18.468  75.789  53.501  0.00  0.00    +0.013 A 
BRANCH  18  19
ATOM     19  C   UNL     1      16.644  78.348  51.226  0.00  0.00    +0.119 C 
BRANCH  19  20
ATOM     20  N   UNL     1      17.649  79.448  51.327  0.00  0.00    -0.302 NA
ATOM     21  C   UNL     1      17.070  80.695  52.001  0.00  0.00    +0.066 C 
ATOM     22  C   UNL     1      18.141  81.827  52.118  0.00  0.00    -0.064 C 
ATOM     23  N   UNL     1      18.678  82.164  50.727  0.00  0.00    +0.379 N 
ATOM     24  C   UNL     1      19.643  83.269  50.827  0.00  0.00    -0.096 C 
ATOM     25  H   UNL     1      17.820  82.519  50.110  0.00  0.00    -0.082 HD
ATOM     26  C   UNL     1      19.254  80.929  50.048  0.00  0.00    -0.064 C 
ATOM     27  C   UNL     1      18.190  79.799  49.963  0.00  0.00    +0.066 C 
ENDBRANCH  19  20
ENDBRANCH  18  19
ENDBRANCH  14  15
ENDBRANCH  12  13
TORSDOF 6
ENDMDL
