MODEL 1
REMARK VINA RESULT:      -9.2      0.000      0.000
REMARK  Name = C:\Users\Docking\Desktop\test protocol\1iep_ligandH.pdb
REMARK  8 active torsions:
REMARK  status: ('A' for Active; 'I' for Inactive)
REMARK    1  A    between atoms: _5  and  _11
REMARK    2  A    between atoms: _19  and  _21
REMARK    3  A    between atoms: _22  and  _66
REMARK    4  A    between atoms: _27  and  _30
REMARK    5  A    between atoms: _32  and  _33
REMARK    6  A    between atoms: _38  and  _43
REMARK    7  A    between atoms: _43  and  _46
REMARK    8  A    between atoms: _53  and  _55
REMARK                            x       y       z     vdW  Elec       q    Type
REMARK                         _______ _______ _______ _____ _____    ______ ____
ROOT
ATOM     10  C   UNL     1      21.463  86.895  80.847  0.00  0.00    +0.038 A 
ATOM     11  C   UNL     1      22.824  87.295  80.873  0.00  0.00    +0.047 A 
ATOM     12  C   UNL     1      23.611  87.207  82.093  0.00  0.00    +0.035 A 
ATOM     32  C   UNL     1      22.981  86.705  83.269  0.00  0.00    +0.024 A 
ATOM     33  C   UNL     1      21.598  86.295  83.261  0.00  0.00    +0.007 A 
ATOM     34  C   UNL     1      20.816  86.382  82.061  0.00  0.00    -0.029 A 
ATOM     35  C   UNL     1      19.337  85.935  82.112  0.00  0.00    +0.045 C 
ENDROOT
BRANCH  10   9
ATOM      4  C   UNL     1      20.328  89.195  76.790  0.00  0.00    +0.077 A 
ATOM      5  C   UNL     1      21.200  90.291  77.098  0.00  0.00    +0.048 A 
ATOM      6  C   UNL     1      21.918  90.228  78.313  0.00  0.00    +0.116 A 
ATOM      7  N   UNL     1      21.767  89.145  79.151  0.00  0.00    -0.223 NA
ATOM      8  C   UNL     1      20.916  88.105  78.825  0.00  0.00    +0.220 A 
ATOM      9  N   UNL     1      20.754  87.001  79.649  0.00  0.00    -0.283 N 
ATOM     36  H   UNL     1      20.111  86.258  79.376  0.00  0.00    +0.155 HD
ATOM     37  N   UNL     1      20.218  88.142  77.671  0.00  0.00    -0.214 NA
BRANCH   4   3
ATOM      1  C   UNL     1      18.433  87.837  73.649  0.00  0.00    +0.020 A 
ATOM      2  C   UNL     1      19.234  87.860  74.851  0.00  0.00    +0.013 A 
ATOM      3  C   UNL     1      19.505  89.114  75.542  0.00  0.00    +0.019 A 
ATOM     38  C   UNL     1      18.945  90.337  74.986  0.00  0.00    +0.120 A 
ATOM     39  N   UNL     1      18.179  90.284  73.826  0.00  0.00    -0.263 NA
ATOM     40  C   UNL     1      17.913  89.083  73.152  0.00  0.00    +0.111 A 
ENDBRANCH   4   3
ENDBRANCH  10   9
BRANCH  12  13
ATOM     13  N   UNL     1      24.994  87.605  82.181  0.00  0.00    -0.281 N 
ATOM     14  C   UNL     1      26.118  86.798  82.126  0.00  0.00    +0.248 C 
ATOM     30  O   UNL     1      26.097  85.578  82.207  0.00  0.00    -0.270 OA
ATOM     31  H   UNL     1      25.165  88.604  82.299  0.00  0.00    +0.155 HD
BRANCH  14  15
ATOM     15  C   UNL     1      27.460  87.437  81.974  0.00  0.00    +0.037 A 
ATOM     16  C   UNL     1      28.546  86.764  81.257  0.00  0.00    +0.013 A 
ATOM     17  C   UNL     1      29.836  87.396  81.139  0.00  0.00    +0.005 A 
ATOM     18  C   UNL     1      30.047  88.711  81.739  0.00  0.00    -0.033 A 
ATOM     28  C   UNL     1      28.951  89.359  82.441  0.00  0.00    +0.005 A 
ATOM     29  C   UNL     1      27.685  88.742  82.559  0.00  0.00    +0.013 A 
BRANCH  18  19
ATOM     19  C   UNL     1      31.397  89.450  81.681  0.00  0.00    +0.119 C 
BRANCH  19  20
ATOM     20  N   UNL     1      32.099  89.488  80.364  0.00  0.00    -0.302 NA
ATOM     21  C   UNL     1      33.598  89.759  80.520  0.00  0.00    +0.066 C 
ATOM     22  C   UNL     1      34.322  89.772  79.134  0.00  0.00    -0.064 C 
ATOM     23  N   UNL     1      33.672  90.824  78.233  0.00  0.00    +0.379 N 
ATOM     24  C   UNL     1      34.387  90.880  76.950  0.00  0.00    -0.096 C 
ATOM     25  H   UNL     1      33.791  91.815  78.730  0.00  0.00    -0.082 HD
ATOM     26  C   UNL     1      32.181  90.563  78.075  0.00  0.00    -0.064 C 
ATOM     27  C   UNL     1      31.477  90.523  79.460  0.00  0.00    +0.066 C 
ENDBRANCH  19  20
ENDBRANCH  18  19
ENDBRANCH  14  15
ENDBRANCH  12  13
TORSDOF 6
ENDMDL
MODEL 2
REMARK VINA RESULT:      -9.0     13.409     17.942
REMARK  Name = C:\Users\Docking\Desktop\test protocol\1iep_ligandH.pdb
REMARK  8 active torsions:
REMARK  status: ('A' for Active; 'I' for Inactive)
REMARK    1  A    between atoms: _5  and  _11
REMARK    2  A    between atoms: _19  and  _21
REMARK    3  A    between atoms: _22  and  _66
REMARK    4  A    between atoms: _27  and  _30
REMARK    5  A    between atoms: _32  and  _33
REMARK    6  A    between atoms: _38  and  _43
REMARK    7  A    between atoms: _43  and  _46
REMARK    8  A    between atoms: _53  and  _55
REMARK                            x       y       z     vdW  Elec       q    Type
REMARK                         _______ _______ _______ _____ _____    ______ ____
ROOT
ATOM     10  C   UNL     1      35.366  97.910  72.904  0.00  0.00    +0.038 A 
ATOM     11  C   UNL     1      34.111  98.250  73.470  0.00  0.00    +0.047 A 
ATOM     12  C   UNL     1      34.010  98.748  74.833  0.00  0.00    +0.035 A 
ATOM     32  C   UNL     1      35.208  98.890  75.591  0.00  0.00    +0.024 A 
ATOM     33  C   UNL     1      36.493  98.548  75.032  0.00  0.00    +0.007 A 
ATOM     34  C   UNL     1      36.599  98.054  73.689  0.00  0.00    -0.029 A 
ATOM     35  C   UNL     1      38.001  97.698  73.144  0.00  0.00    +0.045 C 
ENDROOT
BRANCH  10   9
ATOM      4  C   UNL     1      35.468  98.606  68.156  0.00  0.00    +0.077 A 
ATOM      5  C   UNL     1      35.411 100.032  68.304  0.00  0.00    +0.048 A 
ATOM      6  C   UNL     1      35.350 100.545  69.619  0.00  0.00    +0.116 A 
ATOM      7  N   UNL     1      35.346  99.688  70.698  0.00  0.00    -0.223 NA
ATOM      8  C   UNL     1      35.400  98.318  70.520  0.00  0.00    +0.220 A 
ATOM      9  N   UNL     1      35.405  97.437  71.591  0.00  0.00    -0.283 N 
ATOM     36  H   UNL     1      35.438  96.433  71.417  0.00  0.00    +0.155 HD
ATOM     37  N   UNL     1      35.458  97.802  69.274  0.00  0.00    -0.214 NA
BRANCH   4   3
ATOM      1  C   UNL     1      36.786  97.118  64.788  0.00  0.00    +0.020 A 
ATOM      2  C   UNL     1      36.771  97.799  66.061  0.00  0.00    +0.013 A 
ATOM      3  C   UNL     1      35.539  97.911  66.832  0.00  0.00    +0.019 A 
ATOM     38  C   UNL     1      34.330  97.317  66.281  0.00  0.00    +0.120 A 
ATOM     39  N   UNL     1      34.375  96.668  65.051  0.00  0.00    -0.263 NA
ATOM     40  C   UNL     1      35.554  96.556  64.300  0.00  0.00    +0.111 A 
ENDBRANCH   4   3
ENDBRANCH  10   9
BRANCH  12  13
ATOM     13  N   UNL     1      32.762  99.101  75.464  0.00  0.00    -0.281 N 
ATOM     14  C   UNL     1      32.032 100.268  75.312  0.00  0.00    +0.248 C 
ATOM     30  O   UNL     1      32.452 101.281  74.772  0.00  0.00    -0.270 OA
ATOM     31  H   UNL     1      32.369  98.406  76.099  0.00  0.00    +0.155 HD
BRANCH  14  15
ATOM     15  C   UNL     1      30.639 100.324  75.852  0.00  0.00    +0.037 A 
ATOM     16  C   UNL     1      30.374 100.198  77.287  0.00  0.00    +0.013 A 
ATOM     17  C   UNL     1      29.020 100.238  77.779  0.00  0.00    +0.005 A 
ATOM     18  C   UNL     1      27.919 100.407  76.833  0.00  0.00    -0.033 A 
ATOM     28  C   UNL     1      28.211 100.535  75.415  0.00  0.00    +0.005 A 
ATOM     29  C   UNL     1      29.537 100.495  74.929  0.00  0.00    +0.013 A 
BRANCH  18  19
ATOM     19  C   UNL     1      26.442 100.439  77.267  0.00  0.00    +0.119 C 
BRANCH  19  20
ATOM     20  N   UNL     1      25.643 101.642  76.884  0.00  0.00    -0.302 NA
ATOM     21  C   UNL     1      26.292 102.941  77.370  0.00  0.00    +0.066 C 
ATOM     22  C   UNL     1      25.455 104.190  76.941  0.00  0.00    -0.064 C 
ATOM     23  N   UNL     1      24.032 104.058  77.485  0.00  0.00    +0.379 N 
ATOM     24  C   UNL     1      23.259 105.258  77.133  0.00  0.00    -0.096 C 
ATOM     25  H   UNL     1      24.098 104.013  78.597  0.00  0.00    -0.082 HD
ATOM     26  C   UNL     1      23.380 102.768  77.009  0.00  0.00    -0.064 C 
ATOM     27  C   UNL     1      24.235 101.535  77.415  0.00  0.00    +0.066 C 
ENDBRANCH  19  20
ENDBRANCH  18  19
ENDBRANCH  14  15
ENDBRANCH  12  13
TORSDOF 6
ENDMDL
MODEL 3
REMARK VINA RESULT:      -8.7     13.280     17.348
REMARK  Name = C:\Users\Docking\Desktop\test protocol\1iep_ligandH.pdb
REMARK  8 active torsions:
REMARK  status: ('A' for Active; 'I' for Inactive)
REMARK    1  A    between atoms: _5  and  _11
REMARK    2  A    between atoms: _19  and  _21
REMARK    3  A    between atoms: _22  and  _66
REMARK    4  A    between atoms: _27  and  _30
REMARK    5  A    between atoms: _32  and  _33
REMARK    6  A    between atoms: _38  and  _43
REMARK    7  A    between atoms: _43  and  _46
REMARK    8  A    between atoms: _53  and  _55
REMARK                            x       y       z     vdW  Elec       q    Type
REMARK                         _______ _______ _______ _____ _____    ______ ____
ROOT
ATOM     10  C   UNL     1      34.644  98.364  73.648  0.00  0.00    +0.038 A 
ATOM     11  C   UNL     1      33.363  98.733  74.131  0.00  0.00    +0.047 A 
ATOM     12  C   UNL     1      33.191  99.272  75.471  0.00  0.00    +0.035 A 
ATOM     32  C   UNL     1      34.347  99.425  76.291  0.00  0.00    +0.024 A 
ATOM     33  C   UNL     1      35.657  99.055  75.816  0.00  0.00    +0.007 A 
ATOM     34  C   UNL     1      35.832  98.519  74.496  0.00  0.00    -0.029 A 
ATOM     35  C   UNL     1      37.258  98.132  74.041  0.00  0.00    +0.045 C 
ENDROOT
BRANCH  10   9
ATOM      4  C   UNL     1      34.713  98.892  68.877  0.00  0.00    +0.077 A 
ATOM      5  C   UNL     1      34.490 100.307  68.972  0.00  0.00    +0.048 A 
ATOM      6  C   UNL     1      34.356 100.857  70.266  0.00  0.00    +0.116 A 
ATOM      7  N   UNL     1      34.441 100.045  71.376  0.00  0.00    -0.223 NA
ATOM      8  C   UNL     1      34.655  98.685  71.250  0.00  0.00    +0.220 A 
ATOM      9  N   UNL     1      34.751  97.851  72.353  0.00  0.00    -0.283 N 
ATOM     36  H   UNL     1      34.902  96.851  72.217  0.00  0.00    +0.155 HD
ATOM     37  N   UNL     1      34.784  98.134  70.025  0.00  0.00    -0.214 NA
BRANCH   4   3
ATOM      1  C   UNL     1      36.278  97.256  65.688  0.00  0.00    +0.020 A 
ATOM      2  C   UNL     1      36.173  97.968  66.940  0.00  0.00    +0.013 A 
ATOM      3  C   UNL     1      34.878  98.163  67.580  0.00  0.00    +0.019 A 
ATOM     38  C   UNL     1      33.700  97.620  66.922  0.00  0.00    +0.120 A 
ATOM     39  N   UNL     1      33.831  96.940  65.715  0.00  0.00    -0.263 NA
ATOM     40  C   UNL     1      35.072  96.747  65.089  0.00  0.00    +0.111 A 
ENDBRANCH   4   3
ENDBRANCH  10   9
BRANCH  12  13
ATOM     13  N   UNL     1      31.914  99.657  76.019  0.00  0.00    -0.281 N 
ATOM     14  C   UNL     1      31.069  98.904  76.819  0.00  0.00    +0.248 C 
ATOM     30  O   UNL     1      31.186  97.703  77.009  0.00  0.00    -0.270 OA
ATOM     31  H   UNL     1      31.594 100.598  75.791  0.00  0.00    +0.155 HD
BRANCH  14  15
ATOM     15  C   UNL     1      29.920  99.582  77.493  0.00  0.00    +0.037 A 
ATOM     16  C   UNL     1      30.070 100.200  78.813  0.00  0.00    +0.013 A 
ATOM     17  C   UNL     1      28.941 100.832  79.448  0.00  0.00    +0.005 A 
ATOM     18  C   UNL     1      27.651 100.850  78.763  0.00  0.00    -0.033 A 
ATOM     28  C   UNL     1      27.531 100.234  77.452  0.00  0.00    +0.005 A 
ATOM     29  C   UNL     1      28.636  99.612  76.827  0.00  0.00    +0.013 A 
BRANCH  18  19
ATOM     19  C   UNL     1      26.388 101.483  79.375  0.00  0.00    +0.119 C 
BRANCH  19  20
ATOM     20  N   UNL     1      25.358 102.006  78.429  0.00  0.00    -0.302 NA
ATOM     21  C   UNL     1      25.768 103.350  77.819  0.00  0.00    +0.066 C 
ATOM     22  C   UNL     1      24.689 103.871  76.814  0.00  0.00    -0.064 C 
ATOM     23  N   UNL     1      23.343 103.990  77.531  0.00  0.00    +0.379 N 
ATOM     24  C   UNL     1      22.340 104.535  76.605  0.00  0.00    -0.096 C 
ATOM     25  H   UNL     1      23.467 104.721  78.364  0.00  0.00    -0.082 HD
ATOM     26  C   UNL     1      22.930 102.659  78.143  0.00  0.00    -0.064 C 
ATOM     27  C   UNL     1      24.021 102.135  79.117  0.00  0.00    +0.066 C 
ENDBRANCH  19  20
ENDBRANCH  18  19
ENDBRANCH  14  15
ENDBRANCH  12  13
TORSDOF 6
ENDMDL
