MODEL 1
REMARK VINA RESULT:      -9.6      0.000      0.000
REMARK  Name = C:\Users\Docking\Desktop\test protocol\1iep_ligandH.pdb
REMARK  8 active torsions:
REMARK  status: ('A' for Active; 'I' for Inactive)
REMARK    1  A    between atoms: _5  and  _11
REMARK    2  A    between atoms: _19  and  _21
REMARK    3  A    between atoms: _22  and  _66
REMARK    4  A    between atoms: _27  and  _30
REMARK    5  A    between atoms: _32  and  _33
REMARK    6  A    between atoms: _38  and  _43
REMARK    7  A    between atoms: _43  and  _46
REMARK    8  A    between atoms: _53  and  _55
REMARK                            x       y       z     vdW  Elec       q    Type
REMARK                         _______ _______ _______ _____ _____    ______ ____
ROOT
ATOM     10  C   UNL     1       1.460   0.170  39.436  0.00  0.00    +0.038 A 
ATOM     11  C   UNL     1       0.890   0.399  40.714  0.00  0.00    +0.047 A 
ATOM     12  C   UNL     1       1.545  -0.068  41.926  0.00  0.00    +0.035 A 
ATOM     32  C   UNL     1       2.783  -0.763  41.799  0.00  0.00    +0.024 A 
ATOM     33  C   UNL     1       3.377  -1.006  40.507  0.00  0.00    +0.007 A 
ATOM     34  C   UNL     1       2.734  -0.550  39.309  0.00  0.00    -0.029 A 
ATOM     35  C   UNL     1       3.413  -0.843  37.951  0.00  0.00    +0.045 C 
ENDROOT
BRANCH  10   9
ATOM      4  C   UNL     1      -0.993   3.551  37.072  0.00  0.00    +0.077 A 
ATOM      5  C   UNL     1      -0.955   4.446  38.193  0.00  0.00    +0.048 A 
ATOM      6  C   UNL     1      -0.300   3.995  39.361  0.00  0.00    +0.116 A 
ATOM      7  N   UNL     1       0.270   2.741  39.395  0.00  0.00    -0.223 NA
ATOM      8  C   UNL     1       0.214   1.902  38.297  0.00  0.00    +0.220 A 
ATOM      9  N   UNL     1       0.788   0.640  38.306  0.00  0.00    -0.283 N 
ATOM     36  H   UNL     1       0.718   0.049  37.478  0.00  0.00    +0.155 HD
ATOM     37  N   UNL     1      -0.407   2.309  37.170  0.00  0.00    -0.214 NA
BRANCH   4   3
ATOM      1  C   UNL     1      -2.140   3.431  33.335  0.00  0.00    +0.020 A 
ATOM      2  C   UNL     1      -1.489   3.065  34.571  0.00  0.00    +0.013 A 
ATOM      3  C   UNL     1      -1.645   3.884  35.766  0.00  0.00    +0.019 A 
ATOM     38  C   UNL     1      -2.475   5.076  35.677  0.00  0.00    +0.120 A 
ATOM     39  N   UNL     1      -3.089   5.404  34.472  0.00  0.00    -0.263 NA
ATOM     40  C   UNL     1      -2.944   4.625  33.315  0.00  0.00    +0.111 A 
ENDBRANCH   4   3
ENDBRANCH  10   9
BRANCH  12  13
ATOM     13  N   UNL     1       1.010   0.129  43.250  0.00  0.00    -0.281 N 
ATOM     14  C   UNL     1       0.307   1.221  43.731  0.00  0.00    +0.248 C 
ATOM     30  O   UNL     1       0.216   2.294  43.152  0.00  0.00    -0.270 OA
ATOM     31  H   UNL     1       1.168  -0.630  43.913  0.00  0.00    +0.155 HD
BRANCH  14  15
ATOM     15  C   UNL     1      -0.384   1.111  45.052  0.00  0.00    +0.037 A 
ATOM     16  C   UNL     1      -0.545   2.277  45.924  0.00  0.00    +0.013 A 
ATOM     17  C   UNL     1      -1.200   2.139  47.201  0.00  0.00    +0.005 A 
ATOM     18  C   UNL     1      -1.700   0.829  47.612  0.00  0.00    -0.033 A 
ATOM     28  C   UNL     1      -1.531  -0.309  46.725  0.00  0.00    +0.005 A 
ATOM     29  C   UNL     1      -0.888  -0.179  45.473  0.00  0.00    +0.013 A 
BRANCH  18  19
ATOM     19  C   UNL     1      -2.392   0.586  48.966  0.00  0.00    +0.119 C 
BRANCH  19  20
ATOM     20  N   UNL     1      -1.747  -0.385  49.900  0.00  0.00    -0.302 NA
ATOM     21  C   UNL     1      -2.750  -0.984  50.889  0.00  0.00    +0.066 C 
ATOM     22  C   UNL     1      -2.062  -2.014  51.843  0.00  0.00    -0.064 C 
ATOM     23  N   UNL     1      -0.913  -1.329  52.585  0.00  0.00    +0.379 N 
ATOM     24  C   UNL     1      -0.301  -2.279  53.526  0.00  0.00    -0.096 C 
ATOM     25  H   UNL     1      -1.346  -0.493  53.182  0.00  0.00    -0.082 HD
ATOM     26  C   UNL     1       0.088  -0.727  51.609  0.00  0.00    -0.064 C 
ATOM     27  C   UNL     1      -0.611   0.272  50.646  0.00  0.00    +0.066 C 
ENDBRANCH  19  20
ENDBRANCH  18  19
ENDBRANCH  14  15
ENDBRANCH  12  13
TORSDOF 6
ENDMDL
MODEL 2
REMARK VINA RESULT:      -9.3     20.329     22.893
REMARK  Name = C:\Users\Docking\Desktop\test protocol\1iep_ligandH.pdb
REMARK  8 active torsions:
REMARK  status: ('A' for Active; 'I' for Inactive)
REMARK    1  A    between atoms: _5  and  _11
REMARK    2  A    between atoms: _19  and  _21
REMARK    3  A    between atoms: _22  and  _66
REMARK    4  A    between atoms: _27  and  _30
REMARK    5  A    between atoms: _32  and  _33
REMARK    6  A    between atoms: _38  and  _43
REMARK    7  A    between atoms: _43  and  _46
REMARK    8  A    between atoms: _53  and  _55
REMARK                            x       y       z     vdW  Elec       q    Type
REMARK                         _______ _______ _______ _____ _____    ______ ____
ROOT
ATOM     10  C   UNL     1       1.264  18.642  29.874  0.00  0.00    +0.038 A 
ATOM     11  C   UNL     1      -0.015  19.054  30.328  0.00  0.00    +0.047 A 
ATOM     12  C   UNL     1      -1.053  19.453  29.391  0.00  0.00    +0.035 A 
ATOM     32  C   UNL     1      -0.756  19.418  27.998  0.00  0.00    +0.024 A 
ATOM     33  C   UNL     1       0.539  19.003  27.519  0.00  0.00    +0.007 A 
ATOM     34  C   UNL     1       1.569  18.610  28.439  0.00  0.00    -0.029 A 
ATOM     35  C   UNL     1       2.941  18.180  27.869  0.00  0.00    +0.045 C 
ENDROOT
BRANCH  10   9
ATOM      4  C   UNL     1       4.884  19.659  32.858  0.00  0.00    +0.077 A 
ATOM      5  C   UNL     1       4.881  21.044  32.485  0.00  0.00    +0.048 A 
ATOM      6  C   UNL     1       3.937  21.453  31.517  0.00  0.00    +0.116 A 
ATOM      7  N   UNL     1       3.065  20.536  30.969  0.00  0.00    -0.223 NA
ATOM      8  C   UNL     1       3.096  19.207  31.350  0.00  0.00    +0.220 A 
ATOM      9  N   UNL     1       2.224  18.270  30.818  0.00  0.00    -0.283 N 
ATOM     36  H   UNL     1       2.284  17.298  31.120  0.00  0.00    +0.155 HD
ATOM     37  N   UNL     1       3.990  18.791  32.271  0.00  0.00    -0.214 NA
BRANCH   4   3
ATOM      1  C   UNL     1       6.783  17.138  35.169  0.00  0.00    +0.020 A 
ATOM      2  C   UNL     1       5.860  17.652  34.184  0.00  0.00    +0.013 A 
ATOM      3  C   UNL     1       5.820  19.074  33.870  0.00  0.00    +0.019 A 
ATOM     38  C   UNL     1       6.736  19.957  34.575  0.00  0.00    +0.120 A 
ATOM     39  N   UNL     1       7.614  19.435  35.520  0.00  0.00    -0.263 NA
ATOM     40  C   UNL     1       7.659  18.068  35.832  0.00  0.00    +0.111 A 
ENDBRANCH   4   3
ENDBRANCH  10   9
BRANCH  12  13
ATOM     13  N   UNL     1      -2.368  19.888  29.794  0.00  0.00    -0.281 N 
ATOM     14  C   UNL     1      -3.507  19.118  29.956  0.00  0.00    +0.248 C 
ATOM     30  O   UNL     1      -3.622  17.964  29.572  0.00  0.00    -0.270 OA
ATOM     31  H   UNL     1      -2.470  20.886  29.981  0.00  0.00    +0.155 HD
BRANCH  14  15
ATOM     15  C   UNL     1      -4.697  19.721  30.631  0.00  0.00    +0.037 A 
ATOM     16  C   UNL     1      -4.618  21.031  31.282  0.00  0.00    +0.013 A 
ATOM     17  C   UNL     1      -5.775  21.583  31.941  0.00  0.00    +0.005 A 
ATOM     18  C   UNL     1      -7.024  20.824  31.949  0.00  0.00    -0.033 A 
ATOM     28  C   UNL     1      -7.075  19.529  31.291  0.00  0.00    +0.005 A 
ATOM     29  C   UNL     1      -5.942  18.985  30.646  0.00  0.00    +0.013 A 
BRANCH  18  19
ATOM     19  C   UNL     1      -8.302  21.325  32.646  0.00  0.00    +0.119 C 
BRANCH  19  20
ATOM     20  N   UNL     1      -8.948  20.409  33.633  0.00  0.00    -0.302 NA
ATOM     21  C   UNL     1     -10.444  20.231  33.358  0.00  0.00    +0.066 C 
ATOM     22  C   UNL     1     -11.099  19.252  34.386  0.00  0.00    -0.064 C 
ATOM     23  N   UNL     1     -10.867  19.775  35.804  0.00  0.00    +0.379 N 
ATOM     24  C   UNL     1     -11.531  18.888  36.770  0.00  0.00    -0.096 C 
ATOM     25  H   UNL     1     -11.350  20.777  35.878  0.00  0.00    -0.082 HD
ATOM     26  C   UNL     1      -9.382  19.958  36.085  0.00  0.00    -0.064 C 
ATOM     27  C   UNL     1      -8.735  20.909  35.040  0.00  0.00    +0.066 C 
ENDBRANCH  19  20
ENDBRANCH  18  19
ENDBRANCH  14  15
ENDBRANCH  12  13
TORSDOF 6
ENDMDL
MODEL 3
REMARK VINA RESULT:      -9.2      4.016      5.913
REMARK  Name = C:\Users\Docking\Desktop\test protocol\1iep_ligandH.pdb
REMARK  8 active torsions:
REMARK  status: ('A' for Active; 'I' for Inactive)
REMARK    1  A    between atoms: _5  and  _11
REMARK    2  A    between atoms: _19  and  _21
REMARK    3  A    between atoms: _22  and  _66
REMARK    4  A    between atoms: _27  and  _30
REMARK    5  A    between atoms: _32  and  _33
REMARK    6  A    between atoms: _38  and  _43
REMARK    7  A    between atoms: _43  and  _46
REMARK    8  A    between atoms: _53  and  _55
REMARK                            x       y       z     vdW  Elec       q    Type
REMARK                         _______ _______ _______ _____ _____    ______ ____
ROOT
ATOM     10  C   UNL     1       2.942   1.403  39.918  0.00  0.00    +0.038 A 
ATOM     11  C   UNL     1       2.458   1.562  41.242  0.00  0.00    +0.047 A 
ATOM     12  C   UNL     1       1.447   0.670  41.786  0.00  0.00    +0.035 A 
ATOM     32  C   UNL     1       0.951  -0.376  40.954  0.00  0.00    +0.024 A 
ATOM     33  C   UNL     1       1.430  -0.552  39.606  0.00  0.00    +0.007 A 
ATOM     34  C   UNL     1       2.426   0.327  39.063  0.00  0.00    -0.029 A 
ATOM     35  C   UNL     1       2.899   0.096  37.609  0.00  0.00    +0.045 C 
ENDROOT
BRANCH  10   9
ATOM      4  C   UNL     1       7.512   2.696  39.228  0.00  0.00    +0.077 A 
ATOM      5  C   UNL     1       8.006   1.521  39.885  0.00  0.00    +0.048 A 
ATOM      6  C   UNL     1       7.050   0.612  40.394  0.00  0.00    +0.116 A 
ATOM      7  N   UNL     1       5.705   0.869  40.249  0.00  0.00    -0.223 NA
ATOM      8  C   UNL     1       5.262   2.014  39.611  0.00  0.00    +0.220 A 
ATOM      9  N   UNL     1       3.913   2.289  39.447  0.00  0.00    -0.283 N 
ATOM     36  H   UNL     1       3.627   3.147  38.977  0.00  0.00    +0.155 HD
ATOM     37  N   UNL     1       6.154   2.898  39.118  0.00  0.00    -0.214 NA
BRANCH   4   3
ATOM      1  C   UNL     1      10.003   4.593  36.883  0.00  0.00    +0.020 A 
ATOM      2  C   UNL     1       9.164   3.543  37.413  0.00  0.00    +0.013 A 
ATOM      3  C   UNL     1       8.397   3.749  38.635  0.00  0.00    +0.019 A 
ATOM     38  C   UNL     1       8.501   5.038  39.301  0.00  0.00    +0.120 A 
ATOM     39  N   UNL     1       9.318   6.030  38.768  0.00  0.00    -0.263 NA
ATOM     40  C   UNL     1      10.063   5.843  37.593  0.00  0.00    +0.111 A 
ENDBRANCH   4   3
ENDBRANCH  10   9
BRANCH  12  13
ATOM     13  N   UNL     1       0.912   0.787  43.120  0.00  0.00    -0.281 N 
ATOM     14  C   UNL     1      -0.265   1.402  43.515  0.00  0.00    +0.248 C 
ATOM     30  O   UNL     1      -0.935   2.134  42.802  0.00  0.00    -0.270 OA
ATOM     31  H   UNL     1       1.469   0.366  43.864  0.00  0.00    +0.155 HD
BRANCH  14  15
ATOM     15  C   UNL     1      -0.762   1.183  44.907  0.00  0.00    +0.037 A 
ATOM     16  C   UNL     1      -1.319  -0.107  45.321  0.00  0.00    +0.013 A 
ATOM     17  C   UNL     1      -1.807  -0.286  46.666  0.00  0.00    +0.005 A 
ATOM     18  C   UNL     1      -1.738   0.830  47.607  0.00  0.00    -0.033 A 
ATOM     28  C   UNL     1      -1.176   2.097  47.171  0.00  0.00    +0.005 A 
ATOM     29  C   UNL     1      -0.698   2.276  45.854  0.00  0.00    +0.013 A 
BRANCH  18  19
ATOM     19  C   UNL     1      -2.255   0.735  49.055  0.00  0.00    +0.119 C 
BRANCH  19  20
ATOM     20  N   UNL     1      -1.624  -0.288  49.941  0.00  0.00    -0.302 NA
ATOM     21  C   UNL     1      -2.642  -0.944  50.877  0.00  0.00    +0.066 C 
ATOM     22  C   UNL     1      -1.969  -2.028  51.781  0.00  0.00    -0.064 C 
ATOM     23  N   UNL     1      -0.832  -1.387  52.580  0.00  0.00    +0.379 N 
ATOM     24  C   UNL     1      -0.235  -2.390  53.473  0.00  0.00    -0.096 C 
ATOM     25  H   UNL     1      -1.277  -0.588  53.217  0.00  0.00    -0.082 HD
ATOM     26  C   UNL     1       0.183  -0.730  51.656  0.00  0.00    -0.064 C 
ATOM     27  C   UNL     1      -0.501   0.324  50.742  0.00  0.00    +0.066 C 
ENDBRANCH  19  20
ENDBRANCH  18  19
ENDBRANCH  14  15
ENDBRANCH  12  13
TORSDOF 6
ENDMDL
MODEL 4
REMARK VINA RESULT:      -8.8     18.083     21.643
REMARK  Name = C:\Users\Docking\Desktop\test protocol\1iep_ligandH.pdb
REMARK  8 active torsions:
REMARK  status: ('A' for Active; 'I' for Inactive)
REMARK    1  A    between atoms: _5  and  _11
REMARK    2  A    between atoms: _19  and  _21
REMARK    3  A    between atoms: _22  and  _66
REMARK    4  A    between atoms: _27  and  _30
REMARK    5  A    between atoms: _32  and  _33
REMARK    6  A    between atoms: _38  and  _43
REMARK    7  A    between atoms: _43  and  _46
REMARK    8  A    between atoms: _53  and  _55
REMARK                            x       y       z     vdW  Elec       q    Type
REMARK                         _______ _______ _______ _____ _____    ______ ____
ROOT
ATOM     10  C   UNL     1      -1.073  12.463  27.312  0.00  0.00    +0.038 A 
ATOM     11  C   UNL     1      -0.581  13.792  27.373  0.00  0.00    +0.047 A 
ATOM     12  C   UNL     1       0.832  14.062  27.584  0.00  0.00    +0.035 A 
ATOM     32  C   UNL     1       1.718  12.955  27.726  0.00  0.00    +0.024 A 
ATOM     33  C   UNL     1       1.235  11.597  27.667  0.00  0.00    +0.007 A 
ATOM     34  C   UNL     1      -0.158  11.325  27.462  0.00  0.00    -0.029 A 
ATOM     35  C   UNL     1      -0.621   9.850  27.414  0.00  0.00    +0.045 C 
ENDROOT
BRANCH  10   9
ATOM      4  C   UNL     1      -5.568  11.978  28.924  0.00  0.00    +0.077 A 
ATOM      5  C   UNL     1      -5.154  12.110  30.291  0.00  0.00    +0.048 A 
ATOM      6  C   UNL     1      -3.775  12.295  30.537  0.00  0.00    +0.116 A 
ATOM      7  N   UNL     1      -2.885  12.342  29.487  0.00  0.00    -0.223 NA
ATOM      8  C   UNL     1      -3.317  12.209  28.180  0.00  0.00    +0.220 A 
ATOM      9  N   UNL     1      -2.440  12.262  27.107  0.00  0.00    -0.283 N 
ATOM     36  H   UNL     1      -2.797  12.152  26.158  0.00  0.00    +0.155 HD
ATOM     37  N   UNL     1      -4.628  12.030  27.919  0.00  0.00    -0.214 NA
BRANCH   4   3
ATOM      1  C   UNL     1      -9.464  12.242  28.694  0.00  0.00    +0.020 A 
ATOM      2  C   UNL     1      -8.108  12.467  29.139  0.00  0.00    +0.013 A 
ATOM      3  C   UNL     1      -6.991  11.781  28.503  0.00  0.00    +0.019 A 
ATOM     38  C   UNL     1      -7.282  10.866  27.409  0.00  0.00    +0.120 A 
ATOM     39  N   UNL     1      -8.598  10.667  27.003  0.00  0.00    -0.263 NA
ATOM     40  C   UNL     1      -9.681  11.321  27.609  0.00  0.00    +0.111 A 
ENDBRANCH   4   3
ENDBRANCH  10   9
BRANCH  12  13
ATOM     13  N   UNL     1       1.388  15.390  27.663  0.00  0.00    -0.281 N 
ATOM     14  C   UNL     1       0.825  16.577  27.224  0.00  0.00    +0.248 C 
ATOM     30  O   UNL     1      -0.156  16.650  26.499  0.00  0.00    -0.270 OA
ATOM     31  H   UNL     1       2.309  15.465  28.096  0.00  0.00    +0.155 HD
BRANCH  14  15
ATOM     15  C   UNL     1       1.450  17.870  27.637  0.00  0.00    +0.037 A 
ATOM     16  C   UNL     1       0.665  19.105  27.711  0.00  0.00    +0.013 A 
ATOM     17  C   UNL     1       1.296  20.342  28.097  0.00  0.00    +0.005 A 
ATOM     18  C   UNL     1       2.722  20.350  28.413  0.00  0.00    -0.033 A 
ATOM     28  C   UNL     1       3.476  19.109  28.337  0.00  0.00    +0.005 A 
ATOM     29  C   UNL     1       2.861  17.895  27.959  0.00  0.00    +0.013 A 
BRANCH  18  19
ATOM     19  C   UNL     1       3.483  21.627  28.813  0.00  0.00    +0.119 C 
BRANCH  19  20
ATOM     20  N   UNL     1       4.139  21.641  30.155  0.00  0.00    -0.302 NA
ATOM     21  C   UNL     1       5.570  21.097  30.100  0.00  0.00    +0.066 C 
ATOM     22  C   UNL     1       6.249  21.139  31.508  0.00  0.00    -0.064 C 
ATOM     23  N   UNL     1       5.404  20.342  32.503  0.00  0.00    +0.379 N 
ATOM     24  C   UNL     1       6.070  20.331  33.813  0.00  0.00    -0.096 C 
ATOM     25  H   UNL     1       5.357  19.289  32.138  0.00  0.00    -0.082 HD
ATOM     26  C   UNL     1       3.980  20.874  32.561  0.00  0.00    -0.064 C 
ATOM     27  C   UNL     1       3.324  20.855  31.152  0.00  0.00    +0.066 C 
ENDBRANCH  19  20
ENDBRANCH  18  19
ENDBRANCH  14  15
ENDBRANCH  12  13
TORSDOF 6
ENDMDL
MODEL 5
REMARK VINA RESULT:      -8.8     20.547     26.880
REMARK  Name = C:\Users\Docking\Desktop\test protocol\1iep_ligandH.pdb
REMARK  8 active torsions:
REMARK  status: ('A' for Active; 'I' for Inactive)
REMARK    1  A    between atoms: _5  and  _11
REMARK    2  A    between atoms: _19  and  _21
REMARK    3  A    between atoms: _22  and  _66
REMARK    4  A    between atoms: _27  and  _30
REMARK    5  A    between atoms: _32  and  _33
REMARK    6  A    between atoms: _38  and  _43
REMARK    7  A    between atoms: _43  and  _46
REMARK    8  A    between atoms: _53  and  _55
REMARK                            x       y       z     vdW  Elec       q    Type
REMARK                         _______ _______ _______ _____ _____    ______ ____
ROOT
ATOM     10  C   UNL     1       4.870  24.548  27.880  0.00  0.00    +0.038 A 
ATOM     11  C   UNL     1       4.172  23.319  27.761  0.00  0.00    +0.047 A 
ATOM     12  C   UNL     1       4.343  22.258  28.741  0.00  0.00    +0.035 A 
ATOM     32  C   UNL     1       5.233  22.483  29.832  0.00  0.00    +0.024 A 
ATOM     33  C   UNL     1       5.952  23.725  29.968  0.00  0.00    +0.007 A 
ATOM     34  C   UNL     1       5.789  24.775  29.003  0.00  0.00    -0.029 A 
ATOM     35  C   UNL     1       6.590  26.083  29.196  0.00  0.00    +0.045 C 
ENDROOT
BRANCH  10   9
ATOM      4  C   UNL     1       6.085  26.807  23.823  0.00  0.00    +0.077 A 
ATOM      5  C   UNL     1       7.235  25.971  23.633  0.00  0.00    +0.048 A 
ATOM      6  C   UNL     1       7.484  24.977  24.606  0.00  0.00    +0.116 A 
ATOM      7  N   UNL     1       6.637  24.837  25.684  0.00  0.00    -0.223 NA
ATOM      8  C   UNL     1       5.537  25.661  25.839  0.00  0.00    +0.220 A 
ATOM      9  N   UNL     1       4.668  25.533  26.911  0.00  0.00    -0.283 N 
ATOM     36  H   UNL     1       3.872  26.164  26.993  0.00  0.00    +0.155 HD
ATOM     37  N   UNL     1       5.279  26.619  24.924  0.00  0.00    -0.214 NA
BRANCH   4   3
ATOM      1  C   UNL     1       4.214  29.824  22.181  0.00  0.00    +0.020 A 
ATOM      2  C   UNL     1       4.555  28.784  23.124  0.00  0.00    +0.013 A 
ATOM      3  C   UNL     1       5.688  27.900  22.880  0.00  0.00    +0.019 A 
ATOM     38  C   UNL     1       6.462  28.097  21.664  0.00  0.00    +0.120 A 
ATOM     39  N   UNL     1       6.109  29.106  20.774  0.00  0.00    -0.263 NA
ATOM     40  C   UNL     1       5.020  29.962  20.997  0.00  0.00    +0.111 A 
ENDBRANCH   4   3
ENDBRANCH  10   9
BRANCH  12  13
ATOM     13  N   UNL     1       3.667  20.987  28.668  0.00  0.00    -0.281 N 
ATOM     14  C   UNL     1       2.394  20.725  28.186  0.00  0.00    +0.248 C 
ATOM     30  O   UNL     1       1.559  21.583  27.940  0.00  0.00    -0.270 OA
ATOM     31  H   UNL     1       4.189  20.181  29.013  0.00  0.00    +0.155 HD
BRANCH  14  15
ATOM     15  C   UNL     1       1.986  19.306  27.958  0.00  0.00    +0.037 A 
ATOM     16  C   UNL     1       2.972  18.222  27.960  0.00  0.00    +0.013 A 
ATOM     17  C   UNL     1       2.553  16.863  27.720  0.00  0.00    +0.005 A 
ATOM     18  C   UNL     1       1.141  16.582  27.477  0.00  0.00    -0.033 A 
ATOM     28  C   UNL     1       0.183  17.675  27.485  0.00  0.00    +0.005 A 
ATOM     29  C   UNL     1       0.590  19.008  27.719  0.00  0.00    +0.013 A 
BRANCH  18  19
ATOM     19  C   UNL     1       0.608  15.165  27.191  0.00  0.00    +0.119 C 
BRANCH  19  20
ATOM     20  N   UNL     1       0.982  14.086  28.154  0.00  0.00    -0.302 NA
ATOM     21  C   UNL     1       2.034  13.137  27.572  0.00  0.00    +0.066 C 
ATOM     22  C   UNL     1       2.430  12.028  28.601  0.00  0.00    -0.064 C 
ATOM     23  N   UNL     1       1.178  11.257  29.023  0.00  0.00    +0.379 N 
ATOM     24  C   UNL     1       1.556  10.176  29.945  0.00  0.00    -0.096 C 
ATOM     25  H   UNL     1       0.747  10.787  28.109  0.00  0.00    -0.082 HD
ATOM     26  C   UNL     1       0.126  12.194  29.599  0.00  0.00    -0.064 C 
ATOM     27  C   UNL     1      -0.239  13.309  28.580  0.00  0.00    +0.066 C 
ENDBRANCH  19  20
ENDBRANCH  18  19
ENDBRANCH  14  15
ENDBRANCH  12  13
TORSDOF 6
ENDMDL
