MODEL 1
REMARK VINA RESULT:      -6.8      0.000      0.000
REMARK  Name = C:\Users\Docking\Desktop\test protocol\1iep_ligandH.pdb
REMARK  8 active torsions:
REMARK  status: ('A' for Active; 'I' for Inactive)
REMARK    1  A    between atoms: _5  and  _11
REMARK    2  A    between atoms: _19  and  _21
REMARK    3  A    between atoms: _22  and  _66
REMARK    4  A    between atoms: _27  and  _30
REMARK    5  A    between atoms: _32  and  _33
REMARK    6  A    between atoms: _38  and  _43
REMARK    7  A    between atoms: _43  and  _46
REMARK    8  A    between atoms: _53  and  _55
REMARK                            x       y       z     vdW  Elec       q    Type
REMARK                         _______ _______ _______ _____ _____    ______ ____
ROOT
ATOM     10  C   UNL     1      -4.227  -8.326 234.822  0.00  0.00    +0.038 A 
ATOM     11  C   UNL     1      -3.823  -7.490 235.894  0.00  0.00    +0.047 A 
ATOM     12  C   UNL     1      -4.703  -7.239 237.025  0.00  0.00    +0.035 A 
ATOM     32  C   UNL     1      -5.987  -7.857 237.032  0.00  0.00    +0.024 A 
ATOM     33  C   UNL     1      -6.414  -8.709 235.950  0.00  0.00    +0.007 A 
ATOM     34  C   UNL     1      -5.551  -8.959 234.831  0.00  0.00    -0.029 A 
ATOM     35  C   UNL     1      -6.064  -9.875 233.696  0.00  0.00    +0.045 C 
ENDROOT
BRANCH  10   9
ATOM      4  C   UNL     1      -0.303 -10.326 232.913  0.00  0.00    +0.077 A 
ATOM      5  C   UNL     1       0.026 -10.993 234.140  0.00  0.00    +0.048 A 
ATOM      6  C   UNL     1      -0.837 -10.790 235.240  0.00  0.00    +0.116 A 
ATOM      7  N   UNL     1      -1.943  -9.978 235.112  0.00  0.00    -0.223 NA
ATOM      8  C   UNL     1      -2.230  -9.348 233.915  0.00  0.00    +0.220 A 
ATOM      9  N   UNL     1      -3.342  -8.534 233.762  0.00  0.00    -0.283 N 
ATOM     36  H   UNL     1      -3.515  -8.081 232.865  0.00  0.00    +0.155 HD
ATOM     37  N   UNL     1      -1.422  -9.525 232.850  0.00  0.00    -0.214 NA
BRANCH   4   3
ATOM      1  C   UNL     1       2.701 -10.630 230.426  0.00  0.00    +0.020 A 
ATOM      2  C   UNL     1       1.964 -10.516 231.664  0.00  0.00    +0.013 A 
ATOM      3  C   UNL     1       0.508 -10.445 231.661  0.00  0.00    +0.019 A 
ATOM     38  C   UNL     1      -0.177 -10.493 230.378  0.00  0.00    +0.120 A 
ATOM     39  N   UNL     1       0.559 -10.602 229.202  0.00  0.00    -0.263 NA
ATOM     40  C   UNL     1       1.960 -10.669 229.193  0.00  0.00    +0.111 A 
ENDBRANCH   4   3
ENDBRANCH  10   9
BRANCH  12  13
ATOM     13  N   UNL     1      -4.350  -6.393 238.138  0.00  0.00    -0.281 N 
ATOM     14  C   UNL     1      -3.746  -6.760 239.329  0.00  0.00    +0.248 C 
ATOM     30  O   UNL     1      -3.610  -7.914 239.708  0.00  0.00    -0.270 OA
ATOM     31  H   UNL     1      -4.574  -5.403 238.036  0.00  0.00    +0.155 HD
BRANCH  14  15
ATOM     15  C   UNL     1      -3.232  -5.691 240.238  0.00  0.00    +0.037 A 
ATOM     16  C   UNL     1      -4.134  -4.707 240.841  0.00  0.00    +0.013 A 
ATOM     17  C   UNL     1      -3.610  -3.675 241.700  0.00  0.00    +0.005 A 
ATOM     18  C   UNL     1      -2.174  -3.624 241.963  0.00  0.00    -0.033 A 
ATOM     28  C   UNL     1      -1.301  -4.616 241.357  0.00  0.00    +0.005 A 
ATOM     29  C   UNL     1      -1.812  -5.628 240.513  0.00  0.00    +0.013 A 
BRANCH  18  19
ATOM     19  C   UNL     1      -1.524  -2.546 242.851  0.00  0.00    +0.119 C 
BRANCH  19  20
ATOM     20  N   UNL     1      -1.008  -2.977 244.184  0.00  0.00    -0.302 NA
ATOM     21  C   UNL     1      -2.038  -3.806 244.957  0.00  0.00    +0.066 C 
ATOM     22  C   UNL     1      -1.474  -4.268 246.340  0.00  0.00    -0.064 C 
ATOM     23  N   UNL     1      -1.049  -3.042 247.150  0.00  0.00    +0.379 N 
ATOM     24  C   UNL     1      -0.572  -3.469 248.473  0.00  0.00    -0.096 C 
ATOM     25  H   UNL     1      -1.953  -2.409 247.304  0.00  0.00    -0.082 HD
ATOM     26  C   UNL     1      -0.027  -2.210 246.387  0.00  0.00    -0.064 C 
ATOM     27  C   UNL     1      -0.586  -1.781 245.002  0.00  0.00    +0.066 C 
ENDBRANCH  19  20
ENDBRANCH  18  19
ENDBRANCH  14  15
ENDBRANCH  12  13
TORSDOF 6
ENDMDL
MODEL 2
REMARK VINA RESULT:      -6.8      3.760      7.060
REMARK  Name = C:\Users\Docking\Desktop\test protocol\1iep_ligandH.pdb
REMARK  8 active torsions:
REMARK  status: ('A' for Active; 'I' for Inactive)
REMARK    1  A    between atoms: _5  and  _11
REMARK    2  A    between atoms: _19  and  _21
REMARK    3  A    between atoms: _22  and  _66
REMARK    4  A    between atoms: _27  and  _30
REMARK    5  A    between atoms: _32  and  _33
REMARK    6  A    between atoms: _38  and  _43
REMARK    7  A    between atoms: _43  and  _46
REMARK    8  A    between atoms: _53  and  _55
REMARK                            x       y       z     vdW  Elec       q    Type
REMARK                         _______ _______ _______ _____ _____    ______ ____
ROOT
ATOM     10  C   UNL     1       1.616  -9.919 231.045  0.00  0.00    +0.038 A 
ATOM     11  C   UNL     1       0.754  -9.451 232.070  0.00  0.00    +0.047 A 
ATOM     12  C   UNL     1      -0.657  -9.802 232.085  0.00  0.00    +0.035 A 
ATOM     32  C   UNL     1      -1.157 -10.635 231.041  0.00  0.00    +0.024 A 
ATOM     33  C   UNL     1      -0.296 -11.119 229.991  0.00  0.00    +0.007 A 
ATOM     34  C   UNL     1       1.097 -10.773 229.970  0.00  0.00    -0.029 A 
ATOM     35  C   UNL     1       1.972 -11.316 228.816  0.00  0.00    +0.045 C 
ENDROOT
BRANCH  10   9
ATOM      4  C   UNL     1       6.214 -10.785 232.116  0.00  0.00    +0.077 A 
ATOM      5  C   UNL     1       5.903 -12.067 232.679  0.00  0.00    +0.048 A 
ATOM      6  C   UNL     1       4.547 -12.464 232.679  0.00  0.00    +0.116 A 
ATOM      7  N   UNL     1       3.582 -11.632 232.154  0.00  0.00    -0.223 NA
ATOM      8  C   UNL     1       3.916 -10.401 231.621  0.00  0.00    +0.220 A 
ATOM      9  N   UNL     1       2.963  -9.551 231.080  0.00  0.00    -0.283 N 
ATOM     36  H   UNL     1       3.249  -8.648 230.703  0.00  0.00    +0.155 HD
ATOM     37  N   UNL     1       5.203  -9.998 231.610  0.00  0.00    -0.214 NA
BRANCH   4   3
ATOM      1  C   UNL     1       9.259  -8.331 232.181  0.00  0.00    +0.020 A 
ATOM      2  C   UNL     1       7.902  -8.819 232.267  0.00  0.00    +0.013 A 
ATOM      3  C   UNL     1       7.601 -10.227 232.040  0.00  0.00    +0.019 A 
ATOM     38  C   UNL     1       8.705 -11.122 231.727  0.00  0.00    +0.120 A 
ATOM     39  N   UNL     1      10.001 -10.623 231.650  0.00  0.00    -0.263 NA
ATOM     40  C   UNL     1      10.303  -9.270 231.865  0.00  0.00    +0.111 A 
ENDBRANCH   4   3
ENDBRANCH  10   9
BRANCH  12  13
ATOM     13  N   UNL     1      -1.582  -9.350 233.094  0.00  0.00    -0.281 N 
ATOM     14  C   UNL     1      -1.672  -9.764 234.413  0.00  0.00    +0.248 C 
ATOM     30  O   UNL     1      -1.106 -10.746 234.870  0.00  0.00    -0.270 OA
ATOM     31  H   UNL     1      -2.251  -8.638 232.801  0.00  0.00    +0.155 HD
BRANCH  14  15
ATOM     15  C   UNL     1      -2.525  -8.982 235.359  0.00  0.00    +0.037 A 
ATOM     16  C   UNL     1      -3.344  -7.859 234.893  0.00  0.00    +0.013 A 
ATOM     17  C   UNL     1      -4.145  -7.111 235.829  0.00  0.00    +0.005 A 
ATOM     18  C   UNL     1      -4.132  -7.485 237.242  0.00  0.00    -0.033 A 
ATOM     28  C   UNL     1      -3.316  -8.606 237.675  0.00  0.00    +0.005 A 
ATOM     29  C   UNL     1      -2.528  -9.341 236.761  0.00  0.00    +0.013 A 
BRANCH  18  19
ATOM     19  C   UNL     1      -4.940  -6.729 238.314  0.00  0.00    +0.119 C 
BRANCH  19  20
ATOM     20  N   UNL     1      -4.424  -6.772 239.715  0.00  0.00    -0.302 NA
ATOM     21  C   UNL     1      -5.343  -7.573 240.641  0.00  0.00    +0.066 C 
ATOM     22  C   UNL     1      -4.777  -7.627 242.097  0.00  0.00    -0.064 C 
ATOM     23  N   UNL     1      -4.589  -6.203 242.621  0.00  0.00    +0.379 N 
ATOM     24  C   UNL     1      -4.111  -6.250 244.011  0.00  0.00    -0.096 C 
ATOM     25  H   UNL     1      -5.588  -5.708 242.623  0.00  0.00    -0.082 HD
ATOM     26  C   UNL     1      -3.678  -5.398 241.704  0.00  0.00    -0.064 C 
ATOM     27  C   UNL     1      -4.234  -5.376 240.253  0.00  0.00    +0.066 C 
ENDBRANCH  19  20
ENDBRANCH  18  19
ENDBRANCH  14  15
ENDBRANCH  12  13
TORSDOF 6
ENDMDL
MODEL 3
REMARK VINA RESULT:      -6.6      8.595      9.731
REMARK  Name = C:\Users\Docking\Desktop\test protocol\1iep_ligandH.pdb
REMARK  8 active torsions:
REMARK  status: ('A' for Active; 'I' for Inactive)
REMARK    1  A    between atoms: _5  and  _11
REMARK    2  A    between atoms: _19  and  _21
REMARK    3  A    between atoms: _22  and  _66
REMARK    4  A    between atoms: _27  and  _30
REMARK    5  A    between atoms: _32  and  _33
REMARK    6  A    between atoms: _38  and  _43
REMARK    7  A    between atoms: _43  and  _46
REMARK    8  A    between atoms: _53  and  _55
REMARK                            x       y       z     vdW  Elec       q    Type
REMARK                         _______ _______ _______ _____ _____    ______ ____
ROOT
ATOM     10  C   UNL     1       2.012   0.343 231.674  0.00  0.00    +0.038 A 
ATOM     11  C   UNL     1       2.137  -0.214 232.972  0.00  0.00    +0.047 A 
ATOM     12  C   UNL     1       1.644   0.492 234.145  0.00  0.00    +0.035 A 
ATOM     32  C   UNL     1       1.028   1.764 233.958  0.00  0.00    +0.024 A 
ATOM     33  C   UNL     1       0.895   2.345 232.645  0.00  0.00    +0.007 A 
ATOM     34  C   UNL     1       1.381   1.654 231.485  0.00  0.00    -0.029 A 
ATOM     35  C   UNL     1       1.217   2.328 230.103  0.00  0.00    +0.045 C 
ENDROOT
BRANCH  10   9
ATOM      4  C   UNL     1       5.532  -0.895 228.654  0.00  0.00    +0.077 A 
ATOM      5  C   UNL     1       6.466  -0.008 229.286  0.00  0.00    +0.048 A 
ATOM      6  C   UNL     1       5.999   0.754 230.380  0.00  0.00    +0.116 A 
ATOM      7  N   UNL     1       4.693   0.630 230.803  0.00  0.00    -0.223 NA
ATOM      8  C   UNL     1       3.818  -0.233 230.170  0.00  0.00    +0.220 A 
ATOM      9  N   UNL     1       2.503  -0.380 230.584  0.00  0.00    -0.283 N 
ATOM     36  H   UNL     1       1.886  -1.022 230.086  0.00  0.00    +0.155 HD
ATOM     37  N   UNL     1       4.239  -0.971 229.122  0.00  0.00    -0.214 NA
BRANCH   4   3
ATOM      1  C   UNL     1       7.382  -3.390 226.277  0.00  0.00    +0.020 A 
ATOM      2  C   UNL     1       7.097  -2.562 227.426  0.00  0.00    +0.013 A 
ATOM      3  C   UNL     1       5.876  -1.769 227.488  0.00  0.00    +0.019 A 
ATOM     38  C   UNL     1       4.956  -1.838 226.363  0.00  0.00    +0.120 A 
ATOM     39  N   UNL     1       5.257  -2.644 225.270  0.00  0.00    -0.263 NA
ATOM     40  C   UNL     1       6.430  -3.410 225.197  0.00  0.00    +0.111 A 
ENDBRANCH   4   3
ENDBRANCH  10   9
BRANCH  12  13
ATOM     13  N   UNL     1       1.750  -0.020 235.488  0.00  0.00    -0.281 N 
ATOM     14  C   UNL     1       2.598   0.405 236.497  0.00  0.00    +0.248 C 
ATOM     30  O   UNL     1       3.550   1.153 236.331  0.00  0.00    -0.270 OA
ATOM     31  H   UNL     1       1.122  -0.789 235.724  0.00  0.00    +0.155 HD
BRANCH  14  15
ATOM     15  C   UNL     1       2.365  -0.083 237.891  0.00  0.00    +0.037 A 
ATOM     16  C   UNL     1       3.157  -1.179 238.455  0.00  0.00    +0.013 A 
ATOM     17  C   UNL     1       2.900  -1.642 239.796  0.00  0.00    +0.005 A 
ATOM     18  C   UNL     1       1.845  -1.007 240.582  0.00  0.00    -0.033 A 
ATOM     28  C   UNL     1       1.077   0.081 239.999  0.00  0.00    +0.005 A 
ATOM     29  C   UNL     1       1.326   0.536 238.685  0.00  0.00    +0.013 A 
BRANCH  18  19
ATOM     19  C   UNL     1       1.487  -1.450 242.013  0.00  0.00    +0.119 C 
BRANCH  19  20
ATOM     20  N   UNL     1       0.111  -1.984 242.240  0.00  0.00    -0.302 NA
ATOM     21  C   UNL     1      -0.145  -2.306 243.715  0.00  0.00    +0.066 C 
ATOM     22  C   UNL     1      -1.597  -2.842 243.937  0.00  0.00    -0.064 C 
ATOM     23  N   UNL     1      -1.819  -4.080 243.066  0.00  0.00    +0.379 N 
ATOM     24  C   UNL     1      -3.164  -4.620 243.316  0.00  0.00    -0.096 C 
ATOM     25  H   UNL     1      -1.080  -4.852 243.381  0.00  0.00    -0.082 HD
ATOM     26  C   UNL     1      -1.564  -3.769 241.598  0.00  0.00    -0.064 C 
ATOM     27  C   UNL     1      -0.129  -3.210 241.392  0.00  0.00    +0.066 C 
ENDBRANCH  19  20
ENDBRANCH  18  19
ENDBRANCH  14  15
ENDBRANCH  12  13
TORSDOF 6
ENDMDL
