MODEL 1
REMARK VINA RESULT:      -0.8      0.000      0.000
REMARK  Name = C:\Users\Docking\Desktop\test protocol\1iep_ligandH.pdb
REMARK  8 active torsions:
REMARK  status: ('A' for Active; 'I' for Inactive)
REMARK    1  A    between atoms: _5  and  _11
REMARK    2  A    between atoms: _19  and  _21
REMARK    3  A    between atoms: _22  and  _66
REMARK    4  A    between atoms: _27  and  _30
REMARK    5  A    between atoms: _32  and  _33
REMARK    6  A    between atoms: _38  and  _43
REMARK    7  A    between atoms: _43  and  _46
REMARK    8  A    between atoms: _53  and  _55
REMARK                            x       y       z     vdW  Elec       q    Type
REMARK                         _______ _______ _______ _____ _____    ______ ____
ROOT
ATOM     10  C   UNL     1      -6.323   3.712  -1.089  0.00  0.00    +0.038 A 
ATOM     11  C   UNL     1      -4.921   3.566  -1.252  0.00  0.00    +0.047 A 
ATOM     12  C   UNL     1      -4.369   2.586  -2.174  0.00  0.00    +0.035 A 
ATOM     32  C   UNL     1      -5.274   1.772  -2.916  0.00  0.00    +0.024 A 
ATOM     33  C   UNL     1      -6.701   1.906  -2.762  0.00  0.00    +0.007 A 
ATOM     34  C   UNL     1      -7.251   2.870  -1.852  0.00  0.00    -0.029 A 
ATOM     35  C   UNL     1      -8.790   2.966  -1.723  0.00  0.00    +0.045 C 
ENDROOT
BRANCH  10   9
ATOM      4  C   UNL     1      -7.304   5.221   3.361  0.00  0.00    +0.077 A 
ATOM      5  C   UNL     1      -6.856   3.988   3.941  0.00  0.00    +0.048 A 
ATOM      6  C   UNL     1      -6.387   2.989   3.060  0.00  0.00    +0.116 A 
ATOM      7  N   UNL     1      -6.372   3.216   1.701  0.00  0.00    -0.223 NA
ATOM      8  C   UNL     1      -6.812   4.416   1.173  0.00  0.00    +0.220 A 
ATOM      9  N   UNL     1      -6.798   4.669  -0.190  0.00  0.00    -0.283 N 
ATOM     36  H   UNL     1      -7.139   5.564  -0.540  0.00  0.00    +0.155 HD
ATOM     37  N   UNL     1      -7.266   5.386   1.994  0.00  0.00    -0.214 NA
BRANCH   4   3
ATOM      1  C   UNL     1      -8.801   7.382   6.258  0.00  0.00    +0.020 A 
ATOM      2  C   UNL     1      -8.309   6.235   5.528  0.00  0.00    +0.013 A 
ATOM      3  C   UNL     1      -7.824   6.375   4.161  0.00  0.00    +0.019 A 
ATOM     38  C   UNL     1      -7.848   7.698   3.557  0.00  0.00    +0.120 A 
ATOM     39  N   UNL     1      -8.329   8.783   4.283  0.00  0.00    -0.263 NA
ATOM     40  C   UNL     1      -8.800   8.661   5.599  0.00  0.00    +0.111 A 
ENDBRANCH   4   3
ENDBRANCH  10   9
BRANCH  12  13
ATOM     13  N   UNL     1      -2.955   2.386  -2.375  0.00  0.00    -0.281 N 
ATOM     14  C   UNL     1      -2.057   3.233  -3.004  0.00  0.00    +0.248 C 
ATOM     30  O   UNL     1      -2.376   4.200  -3.680  0.00  0.00    -0.270 OA
ATOM     31  H   UNL     1      -2.570   1.515  -2.010  0.00  0.00    +0.155 HD
BRANCH  14  15
ATOM     15  C   UNL     1      -0.594   2.959  -2.874  0.00  0.00    +0.037 A 
ATOM     16  C   UNL     1       0.392   3.706  -3.658  0.00  0.00    +0.013 A 
ATOM     17  C   UNL     1       1.797   3.410  -3.526  0.00  0.00    +0.005 A 
ATOM     18  C   UNL     1       2.224   2.360  -2.604  0.00  0.00    -0.033 A 
ATOM     28  C   UNL     1       1.224   1.637  -1.834  0.00  0.00    +0.005 A 
ATOM     29  C   UNL     1      -0.153   1.925  -1.962  0.00  0.00    +0.013 A 
BRANCH  18  19
ATOM     19  C   UNL     1       3.699   1.962  -2.415  0.00  0.00    +0.119 C 
BRANCH  19  20
ATOM     20  N   UNL     1       4.474   2.688  -1.364  0.00  0.00    -0.302 NA
ATOM     21  C   UNL     1       5.357   1.742  -0.545  0.00  0.00    +0.066 C 
ATOM     22  C   UNL     1       6.177   2.521   0.534  0.00  0.00    -0.064 C 
ATOM     23  N   UNL     1       5.218   3.290   1.443  0.00  0.00    +0.379 N 
ATOM     24  C   UNL     1       5.982   3.977   2.495  0.00  0.00    -0.096 C 
ATOM     25  H   UNL     1       4.553   2.545   1.940  0.00  0.00    -0.082 HD
ATOM     26  C   UNL     1       4.334   4.231   0.637  0.00  0.00    -0.064 C 
ATOM     27  C   UNL     1       3.546   3.451  -0.452  0.00  0.00    +0.066 C 
ENDBRANCH  19  20
ENDBRANCH  18  19
ENDBRANCH  14  15
ENDBRANCH  12  13
TORSDOF 6
ENDMDL
MODEL 2
REMARK VINA RESULT:      -0.8      2.775     10.775
REMARK  Name = C:\Users\Docking\Desktop\test protocol\1iep_ligandH.pdb
REMARK  8 active torsions:
REMARK  status: ('A' for Active; 'I' for Inactive)
REMARK    1  A    between atoms: _5  and  _11
REMARK    2  A    between atoms: _19  and  _21
REMARK    3  A    between atoms: _22  and  _66
REMARK    4  A    between atoms: _27  and  _30
REMARK    5  A    between atoms: _32  and  _33
REMARK    6  A    between atoms: _38  and  _43
REMARK    7  A    between atoms: _43  and  _46
REMARK    8  A    between atoms: _53  and  _55
REMARK                            x       y       z     vdW  Elec       q    Type
REMARK                         _______ _______ _______ _____ _____    ______ ____
ROOT
ATOM     10  C   UNL     1       1.418   3.149  -1.155  0.00  0.00    +0.038 A 
ATOM     11  C   UNL     1       0.169   3.819  -1.220  0.00  0.00    +0.047 A 
ATOM     12  C   UNL     1      -0.362   4.299  -2.487  0.00  0.00    +0.035 A 
ATOM     32  C   UNL     1       0.404   4.078  -3.668  0.00  0.00    +0.024 A 
ATOM     33  C   UNL     1       1.676   3.400  -3.620  0.00  0.00    +0.007 A 
ATOM     34  C   UNL     1       2.206   2.926  -2.374  0.00  0.00    -0.029 A 
ATOM     35  C   UNL     1       3.577   2.212  -2.381  0.00  0.00    +0.045 C 
ENDROOT
BRANCH  10   9
ATOM      4  C   UNL     1       3.815   3.819   2.948  0.00  0.00    +0.077 A 
ATOM      5  C   UNL     1       4.202   5.149   2.574  0.00  0.00    +0.048 A 
ATOM      6  C   UNL     1       3.769   5.620   1.315  0.00  0.00    +0.116 A 
ATOM      7  N   UNL     1       3.007   4.813   0.498  0.00  0.00    -0.223 NA
ATOM      8  C   UNL     1       2.653   3.535   0.889  0.00  0.00    +0.220 A 
ATOM      9  N   UNL     1       1.880   2.709   0.087  0.00  0.00    -0.283 N 
ATOM     36  H   UNL     1       1.647   1.770   0.408  0.00  0.00    +0.155 HD
ATOM     37  N   UNL     1       3.055   3.061   2.086  0.00  0.00    -0.214 NA
BRANCH   4   3
ATOM      1  C   UNL     1       3.723   2.537   6.643  0.00  0.00    +0.020 A 
ATOM      2  C   UNL     1       3.311   3.168   5.410  0.00  0.00    +0.013 A 
ATOM      3  C   UNL     1       4.192   3.180   4.249  0.00  0.00    +0.019 A 
ATOM     38  C   UNL     1       5.493   2.539   4.369  0.00  0.00    +0.120 A 
ATOM     39  N   UNL     1       5.863   1.941   5.569  0.00  0.00    -0.263 NA
ATOM     40  C   UNL     1       5.024   1.924   6.694  0.00  0.00    +0.111 A 
ENDBRANCH   4   3
ENDBRANCH  10   9
BRANCH  12  13
ATOM     13  N   UNL     1      -1.620   4.992  -2.613  0.00  0.00    -0.281 N 
ATOM     14  C   UNL     1      -2.856   4.461  -2.943  0.00  0.00    +0.248 C 
ATOM     30  O   UNL     1      -3.028   3.337  -3.391  0.00  0.00    -0.270 OA
ATOM     31  H   UNL     1      -1.596   5.997  -2.438  0.00  0.00    +0.155 HD
BRANCH  14  15
ATOM     15  C   UNL     1      -4.076   5.305  -2.763  0.00  0.00    +0.037 A 
ATOM     16  C   UNL     1      -3.994   6.644  -2.174  0.00  0.00    +0.013 A 
ATOM     17  C   UNL     1      -5.189   7.431  -1.996  0.00  0.00    +0.005 A 
ATOM     18  C   UNL     1      -6.477   6.880  -2.410  0.00  0.00    -0.033 A 
ATOM     28  C   UNL     1      -6.529   5.551  -2.997  0.00  0.00    +0.005 A 
ATOM     29  C   UNL     1      -5.360   4.777  -3.172  0.00  0.00    +0.013 A 
BRANCH  18  19
ATOM     19  C   UNL     1      -7.805   7.640  -2.239  0.00  0.00    +0.119 C 
BRANCH  19  20
ATOM     20  N   UNL     1      -8.375   7.718  -0.860  0.00  0.00    -0.302 NA
ATOM     21  C   UNL     1      -7.831   8.919  -0.081  0.00  0.00    +0.066 C 
ATOM     22  C   UNL     1      -8.455   8.998   1.350  0.00  0.00    -0.064 C 
ATOM     23  N   UNL     1      -8.175   7.694   2.099  0.00  0.00    +0.379 N 
ATOM     24  C   UNL     1      -8.710   7.788   3.465  0.00  0.00    -0.096 C 
ATOM     25  H   UNL     1      -7.068   7.579   2.176  0.00  0.00    -0.082 HD
ATOM     26  C   UNL     1      -8.710   6.495   1.329  0.00  0.00    -0.064 C 
ATOM     27  C   UNL     1      -8.106   6.442  -0.102  0.00  0.00    +0.066 C 
ENDBRANCH  19  20
ENDBRANCH  18  19
ENDBRANCH  14  15
ENDBRANCH  12  13
TORSDOF 6
ENDMDL
MODEL 3
REMARK VINA RESULT:      -0.7      2.522     10.824
REMARK  Name = C:\Users\Docking\Desktop\test protocol\1iep_ligandH.pdb
REMARK  8 active torsions:
REMARK  status: ('A' for Active; 'I' for Inactive)
REMARK    1  A    between atoms: _5  and  _11
REMARK    2  A    between atoms: _19  and  _21
REMARK    3  A    between atoms: _22  and  _66
REMARK    4  A    between atoms: _27  and  _30
REMARK    5  A    between atoms: _32  and  _33
REMARK    6  A    between atoms: _38  and  _43
REMARK    7  A    between atoms: _43  and  _46
REMARK    8  A    between atoms: _53  and  _55
REMARK                            x       y       z     vdW  Elec       q    Type
REMARK                         _______ _______ _______ _____ _____    ______ ____
ROOT
ATOM     10  C   UNL     1       1.899   2.970  -1.261  0.00  0.00    +0.038 A 
ATOM     11  C   UNL     1       0.615   3.570  -1.278  0.00  0.00    +0.047 A 
ATOM     12  C   UNL     1      -0.007   3.981  -2.527  0.00  0.00    +0.035 A 
ATOM     32  C   UNL     1       0.707   3.762  -3.741  0.00  0.00    +0.024 A 
ATOM     33  C   UNL     1       2.014   3.154  -3.742  0.00  0.00    +0.007 A 
ATOM     34  C   UNL     1       2.634   2.749  -2.512  0.00  0.00    -0.029 A 
ATOM     35  C   UNL     1       4.040   2.108  -2.572  0.00  0.00    +0.045 C 
ENDROOT
BRANCH  10   9
ATOM      4  C   UNL     1       4.117   3.990   2.872  0.00  0.00    +0.077 A 
ATOM      5  C   UNL     1       4.213   5.384   2.545  0.00  0.00    +0.048 A 
ATOM      6  C   UNL     1       3.686   5.796   1.301  0.00  0.00    +0.116 A 
ATOM      7  N   UNL     1       3.108   4.874   0.454  0.00  0.00    -0.223 NA
ATOM      8  C   UNL     1       3.033   3.538   0.800  0.00  0.00    +0.220 A 
ATOM      9  N   UNL     1       2.449   2.595  -0.032  0.00  0.00    -0.283 N 
ATOM     36  H   UNL     1       2.420   1.617   0.255  0.00  0.00    +0.155 HD
ATOM     37  N   UNL     1       3.531   3.118   1.982  0.00  0.00    -0.214 NA
BRANCH   4   3
ATOM      1  C   UNL     1       6.019   3.483   6.252  0.00  0.00    +0.020 A 
ATOM      2  C   UNL     1       5.560   4.097   5.027  0.00  0.00    +0.013 A 
ATOM      3  C   UNL     1       4.625   3.401   4.151  0.00  0.00    +0.019 A 
ATOM     38  C   UNL     1       4.171   2.077   4.547  0.00  0.00    +0.120 A 
ATOM     39  N   UNL     1       4.632   1.511   5.732  0.00  0.00    -0.263 NA
ATOM     40  C   UNL     1       5.532   2.170   6.582  0.00  0.00    +0.111 A 
ENDBRANCH   4   3
ENDBRANCH  10   9
BRANCH  12  13
ATOM     13  N   UNL     1      -1.306   4.603  -2.606  0.00  0.00    -0.281 N 
ATOM     14  C   UNL     1      -2.546   4.012  -2.425  0.00  0.00    +0.248 C 
ATOM     30  O   UNL     1      -2.736   2.805  -2.377  0.00  0.00    -0.270 OA
ATOM     31  H   UNL     1      -1.312   5.599  -2.822  0.00  0.00    +0.155 HD
BRANCH  14  15
ATOM     15  C   UNL     1      -3.750   4.887  -2.292  0.00  0.00    +0.037 A 
ATOM     16  C   UNL     1      -5.063   4.451  -2.774  0.00  0.00    +0.013 A 
ATOM     17  C   UNL     1      -6.205   5.321  -2.649  0.00  0.00    +0.005 A 
ATOM     18  C   UNL     1      -6.039   6.637  -2.036  0.00  0.00    -0.033 A 
ATOM     28  C   UNL     1      -4.726   7.042  -1.561  0.00  0.00    +0.005 A 
ATOM     29  C   UNL     1      -3.604   6.192  -1.684  0.00  0.00    +0.013 A 
BRANCH  18  19
ATOM     19  C   UNL     1      -7.197   7.640  -1.880  0.00  0.00    +0.119 C 
BRANCH  19  20
ATOM     20  N   UNL     1      -7.852   7.726  -0.541  0.00  0.00    -0.302 NA
ATOM     21  C   UNL     1      -7.325   8.906   0.281  0.00  0.00    +0.066 C 
ATOM     22  C   UNL     1      -8.036   8.995   1.670  0.00  0.00    -0.064 C 
ATOM     23  N   UNL     1      -7.840   7.679   2.425  0.00  0.00    +0.379 N 
ATOM     24  C   UNL     1      -8.459   7.780   3.755  0.00  0.00    -0.096 C 
ATOM     25  H   UNL     1      -6.745   7.533   2.571  0.00  0.00    -0.082 HD
ATOM     26  C   UNL     1      -8.359   6.500   1.614  0.00  0.00    -0.064 C 
ATOM     27  C   UNL     1      -7.667   6.438   0.224  0.00  0.00    +0.066 C 
ENDBRANCH  19  20
ENDBRANCH  18  19
ENDBRANCH  14  15
ENDBRANCH  12  13
TORSDOF 6
ENDMDL
