MODEL 1
REMARK VINA RESULT:      -8.4      0.000      0.000
REMARK  Name = C:\Users\Docking\Desktop\test protocol\1iep_ligandH.pdb
REMARK  8 active torsions:
REMARK  status: ('A' for Active; 'I' for Inactive)
REMARK    1  A    between atoms: _5  and  _11
REMARK    2  A    between atoms: _19  and  _21
REMARK    3  A    between atoms: _22  and  _66
REMARK    4  A    between atoms: _27  and  _30
REMARK    5  A    between atoms: _32  and  _33
REMARK    6  A    between atoms: _38  and  _43
REMARK    7  A    between atoms: _43  and  _46
REMARK    8  A    between atoms: _53  and  _55
REMARK                            x       y       z     vdW  Elec       q    Type
REMARK                         _______ _______ _______ _____ _____    ______ ____
ROOT
ATOM     10  C   UNL     1     -14.353  22.025   3.739  0.00  0.00    +0.038 A 
ATOM     11  C   UNL     1     -15.365  22.742   3.052  0.00  0.00    +0.047 A 
ATOM     12  C   UNL     1     -16.006  23.902   3.651  0.00  0.00    +0.035 A 
ATOM     32  C   UNL     1     -15.588  24.307   4.952  0.00  0.00    +0.024 A 
ATOM     33  C   UNL     1     -14.561  23.590   5.666  0.00  0.00    +0.007 A 
ATOM     34  C   UNL     1     -13.927  22.443   5.081  0.00  0.00    -0.029 A 
ATOM     35  C   UNL     1     -12.837  21.709   5.894  0.00  0.00    +0.045 C 
ENDROOT
BRANCH  10   9
ATOM      4  C   UNL     1     -13.822  17.290   3.158  0.00  0.00    +0.077 A 
ATOM      5  C   UNL     1     -14.762  16.997   4.202  0.00  0.00    +0.048 A 
ATOM      6  C   UNL     1     -15.354  18.093   4.869  0.00  0.00    +0.116 A 
ATOM      7  N   UNL     1     -15.024  19.382   4.510  0.00  0.00    -0.223 NA
ATOM      8  C   UNL     1     -14.113  19.630   3.500  0.00  0.00    +0.220 A 
ATOM      9  N   UNL     1     -13.772  20.918   3.116  0.00  0.00    -0.283 N 
ATOM     36  H   UNL     1     -13.090  21.059   2.372  0.00  0.00    +0.155 HD
ATOM     37  N   UNL     1     -13.532  18.600   2.849  0.00  0.00    -0.214 NA
BRANCH   4   3
ATOM      1  C   UNL     1     -12.919  13.915   1.401  0.00  0.00    +0.020 A 
ATOM      2  C   UNL     1     -13.641  14.892   2.183  0.00  0.00    +0.013 A 
ATOM      3  C   UNL     1     -13.116  16.240   2.359  0.00  0.00    +0.019 A 
ATOM     38  C   UNL     1     -11.848  16.570   1.726  0.00  0.00    +0.120 A 
ATOM     39  N   UNL     1     -11.174  15.608   0.979  0.00  0.00    -0.263 NA
ATOM     40  C   UNL     1     -11.669  14.307   0.804  0.00  0.00    +0.111 A 
ENDBRANCH   4   3
ENDBRANCH  10   9
BRANCH  12  13
ATOM     13  N   UNL     1     -17.045  24.664   3.004  0.00  0.00    -0.281 N 
ATOM     14  C   UNL     1     -16.926  25.874   2.341  0.00  0.00    +0.248 C 
ATOM     30  O   UNL     1     -15.940  26.595   2.388  0.00  0.00    -0.270 OA
ATOM     31  H   UNL     1     -17.982  24.262   3.039  0.00  0.00    +0.155 HD
BRANCH  14  15
ATOM     15  C   UNL     1     -18.074  26.362   1.517  0.00  0.00    +0.037 A 
ATOM     16  C   UNL     1     -17.909  26.686   0.098  0.00  0.00    +0.013 A 
ATOM     17  C   UNL     1     -19.029  27.171  -0.669  0.00  0.00    +0.005 A 
ATOM     18  C   UNL     1     -20.326  27.334  -0.017  0.00  0.00    -0.033 A 
ATOM     28  C   UNL     1     -20.464  27.000   1.391  0.00  0.00    +0.005 A 
ATOM     29  C   UNL     1     -19.368  26.525   2.146  0.00  0.00    +0.013 A 
BRANCH  18  19
ATOM     19  C   UNL     1     -21.571  27.865  -0.753  0.00  0.00    +0.119 C 
BRANCH  19  20
ATOM     20  N   UNL     1     -21.624  29.330  -1.036  0.00  0.00    -0.302 NA
ATOM     21  C   UNL     1     -21.748  30.159   0.246  0.00  0.00    +0.066 C 
ATOM     22  C   UNL     1     -21.780  31.690  -0.068  0.00  0.00    -0.064 C 
ATOM     23  N   UNL     1     -22.938  31.989  -1.021  0.00  0.00    +0.379 N 
ATOM     24  C   UNL     1     -23.006  33.436  -1.272  0.00  0.00    -0.096 C 
ATOM     25  H   UNL     1     -23.882  31.690  -0.509  0.00  0.00    -0.082 HD
ATOM     26  C   UNL     1     -22.824  31.167  -2.297  0.00  0.00    -0.064 C 
ATOM     27  C   UNL     1     -22.764  29.648  -1.972  0.00  0.00    +0.066 C 
ENDBRANCH  19  20
ENDBRANCH  18  19
ENDBRANCH  14  15
ENDBRANCH  12  13
TORSDOF 6
ENDMDL
MODEL 2
REMARK VINA RESULT:      -8.1      3.680     12.890
REMARK  Name = C:\Users\Docking\Desktop\test protocol\1iep_ligandH.pdb
REMARK  8 active torsions:
REMARK  status: ('A' for Active; 'I' for Inactive)
REMARK    1  A    between atoms: _5  and  _11
REMARK    2  A    between atoms: _19  and  _21
REMARK    3  A    between atoms: _22  and  _66
REMARK    4  A    between atoms: _27  and  _30
REMARK    5  A    between atoms: _32  and  _33
REMARK    6  A    between atoms: _38  and  _43
REMARK    7  A    between atoms: _43  and  _46
REMARK    8  A    between atoms: _53  and  _55
REMARK                            x       y       z     vdW  Elec       q    Type
REMARK                         _______ _______ _______ _____ _____    ______ ____
ROOT
ATOM     10  C   UNL     1     -15.920  21.859   3.825  0.00  0.00    +0.038 A 
ATOM     11  C   UNL     1     -14.916  21.168   3.100  0.00  0.00    +0.047 A 
ATOM     12  C   UNL     1     -14.045  20.204   3.755  0.00  0.00    +0.035 A 
ATOM     32  C   UNL     1     -14.227  19.965   5.148  0.00  0.00    +0.024 A 
ATOM     33  C   UNL     1     -15.243  20.660   5.900  0.00  0.00    +0.007 A 
ATOM     34  C   UNL     1     -16.103  21.614   5.260  0.00  0.00    -0.029 A 
ATOM     35  C   UNL     1     -17.170  22.334   6.117  0.00  0.00    +0.045 C 
ENDROOT
BRANCH  10   9
ATOM      4  C   UNL     1     -17.087  26.333   2.535  0.00  0.00    +0.077 A 
ATOM      5  C   UNL     1     -16.012  26.896   3.299  0.00  0.00    +0.048 A 
ATOM      6  C   UNL     1     -15.186  26.002   4.016  0.00  0.00    +0.116 A 
ATOM      7  N   UNL     1     -15.426  24.646   3.964  0.00  0.00    -0.223 NA
ATOM      8  C   UNL     1     -16.473  24.135   3.219  0.00  0.00    +0.220 A 
ATOM      9  N   UNL     1     -16.728  22.774   3.146  0.00  0.00    -0.283 N 
ATOM     36  H   UNL     1     -17.515  22.438   2.591  0.00  0.00    +0.155 HD
ATOM     37  N   UNL     1     -17.277  24.969   2.527  0.00  0.00    -0.214 NA
BRANCH   4   3
ATOM      1  C   UNL     1     -19.967  28.764   1.489  0.00  0.00    +0.020 A 
ATOM      2  C   UNL     1     -19.068  27.996   2.319  0.00  0.00    +0.013 A 
ATOM      3  C   UNL     1     -18.044  27.148   1.722  0.00  0.00    +0.019 A 
ATOM     38  C   UNL     1     -17.954  27.100   0.270  0.00  0.00    +0.120 A 
ATOM     39  N   UNL     1     -18.835  27.849  -0.504  0.00  0.00    -0.263 NA
ATOM     40  C   UNL     1     -19.826  28.667   0.060  0.00  0.00    +0.111 A 
ENDBRANCH   4   3
ENDBRANCH  10   9
BRANCH  12  13
ATOM     13  N   UNL     1     -13.002  19.478   3.073  0.00  0.00    -0.281 N 
ATOM     14  C   UNL     1     -12.920  18.113   2.851  0.00  0.00    +0.248 C 
ATOM     30  O   UNL     1     -13.629  17.280   3.395  0.00  0.00    -0.270 OA
ATOM     31  H   UNL     1     -12.231  20.038   2.709  0.00  0.00    +0.155 HD
BRANCH  14  15
ATOM     15  C   UNL     1     -11.891  17.597   1.898  0.00  0.00    +0.037 A 
ATOM     16  C   UNL     1     -10.709  18.392   1.552  0.00  0.00    +0.013 A 
ATOM     17  C   UNL     1      -9.740  17.878   0.616  0.00  0.00    +0.005 A 
ATOM     18  C   UNL     1      -9.949  16.560   0.021  0.00  0.00    -0.033 A 
ATOM     28  C   UNL     1     -11.127  15.791   0.386  0.00  0.00    +0.005 A 
ATOM     29  C   UNL     1     -12.079  16.292   1.301  0.00  0.00    +0.013 A 
BRANCH  18  19
ATOM     19  C   UNL     1      -8.978  15.942  -1.003  0.00  0.00    +0.119 C 
BRANCH  19  20
ATOM     20  N   UNL     1      -8.816  16.651  -2.307  0.00  0.00    -0.302 NA
ATOM     21  C   UNL     1      -8.917  15.694  -3.498  0.00  0.00    +0.066 C 
ATOM     22  C   UNL     1      -8.768  16.456  -4.855  0.00  0.00    -0.064 C 
ATOM     23  N   UNL     1      -7.434  17.204  -4.872  0.00  0.00    +0.379 N 
ATOM     24  C   UNL     1      -7.264  17.874  -6.170  0.00  0.00    -0.096 C 
ATOM     25  H   UNL     1      -6.621  16.447  -4.774  0.00  0.00    -0.082 HD
ATOM     26  C   UNL     1      -7.324  18.156  -3.690  0.00  0.00    -0.064 C 
ATOM     27  C   UNL     1      -7.503  17.393  -2.348  0.00  0.00    +0.066 C 
ENDBRANCH  19  20
ENDBRANCH  18  19
ENDBRANCH  14  15
ENDBRANCH  12  13
TORSDOF 6
ENDMDL
MODEL 3
REMARK VINA RESULT:      -7.9      2.976     13.824
REMARK  Name = C:\Users\Docking\Desktop\test protocol\1iep_ligandH.pdb
REMARK  8 active torsions:
REMARK  status: ('A' for Active; 'I' for Inactive)
REMARK    1  A    between atoms: _5  and  _11
REMARK    2  A    between atoms: _19  and  _21
REMARK    3  A    between atoms: _22  and  _66
REMARK    4  A    between atoms: _27  and  _30
REMARK    5  A    between atoms: _32  and  _33
REMARK    6  A    between atoms: _38  and  _43
REMARK    7  A    between atoms: _43  and  _46
REMARK    8  A    between atoms: _53  and  _55
REMARK                            x       y       z     vdW  Elec       q    Type
REMARK                         _______ _______ _______ _____ _____    ______ ____
ROOT
ATOM     10  C   UNL     1     -15.968  21.676   3.724  0.00  0.00    +0.038 A 
ATOM     11  C   UNL     1     -15.050  20.860   3.015  0.00  0.00    +0.047 A 
ATOM     12  C   UNL     1     -14.239  19.867   3.703  0.00  0.00    +0.035 A 
ATOM     32  C   UNL     1     -14.391  19.731   5.114  0.00  0.00    +0.024 A 
ATOM     33  C   UNL     1     -15.319  20.553   5.850  0.00  0.00    +0.007 A 
ATOM     34  C   UNL     1     -16.119  21.536   5.177  0.00  0.00    -0.029 A 
ATOM     35  C   UNL     1     -17.093  22.394   6.018  0.00  0.00    +0.045 C 
ENDROOT
BRANCH  10   9
ATOM      4  C   UNL     1     -16.921  26.174   2.346  0.00  0.00    +0.077 A 
ATOM      5  C   UNL     1     -15.844  26.706   3.131  0.00  0.00    +0.048 A 
ATOM      6  C   UNL     1     -15.073  25.789   3.880  0.00  0.00    +0.116 A 
ATOM      7  N   UNL     1     -15.367  24.443   3.840  0.00  0.00    -0.223 NA
ATOM      8  C   UNL     1     -16.413  23.964   3.074  0.00  0.00    +0.220 A 
ATOM      9  N   UNL     1     -16.721  22.613   3.012  0.00  0.00    -0.283 N 
ATOM     36  H   UNL     1     -17.506  22.300   2.442  0.00  0.00    +0.155 HD
ATOM     37  N   UNL     1     -17.165  24.819   2.351  0.00  0.00    -0.214 NA
BRANCH   4   3
ATOM      1  C   UNL     1     -18.892  27.630  -0.703  0.00  0.00    +0.020 A 
ATOM      2  C   UNL     1     -18.008  26.789   0.070  0.00  0.00    +0.013 A 
ATOM      3  C   UNL     1     -17.824  27.016   1.498  0.00  0.00    +0.019 A 
ATOM     38  C   UNL     1     -18.555  28.110   2.118  0.00  0.00    +0.120 A 
ATOM     39  N   UNL     1     -19.398  28.905   1.348  0.00  0.00    -0.263 NA
ATOM     40  C   UNL     1     -19.582  28.697  -0.027  0.00  0.00    +0.111 A 
ENDBRANCH   4   3
ENDBRANCH  10   9
BRANCH  12  13
ATOM     13  N   UNL     1     -13.285  19.015   3.038  0.00  0.00    -0.281 N 
ATOM     14  C   UNL     1     -13.268  17.631   2.989  0.00  0.00    +0.248 C 
ATOM     30  O   UNL     1     -13.955  16.906   3.693  0.00  0.00    -0.270 OA
ATOM     31  H   UNL     1     -12.530  19.491   2.543  0.00  0.00    +0.155 HD
BRANCH  14  15
ATOM     15  C   UNL     1     -12.343  16.954   2.029  0.00  0.00    +0.037 A 
ATOM     16  C   UNL     1     -11.186  17.654   1.466  0.00  0.00    +0.013 A 
ATOM     17  C   UNL     1     -10.320  16.983   0.530  0.00  0.00    +0.005 A 
ATOM     18  C   UNL     1     -10.608  15.601   0.151  0.00  0.00    -0.033 A 
ATOM     28  C   UNL     1     -11.760  14.929   0.729  0.00  0.00    +0.005 A 
ATOM     29  C   UNL     1     -12.612  15.584   1.646  0.00  0.00    +0.013 A 
BRANCH  18  19
ATOM     19  C   UNL     1      -9.750  14.814  -0.857  0.00  0.00    +0.119 C 
BRANCH  19  20
ATOM     20  N   UNL     1     -10.085  13.373  -1.062  0.00  0.00    -0.302 NA
ATOM     21  C   UNL     1      -9.089  12.447  -0.360  0.00  0.00    +0.066 C 
ATOM     22  C   UNL     1      -9.467  10.944  -0.565  0.00  0.00    -0.064 C 
ATOM     23  N   UNL     1      -9.529  10.637  -2.063  0.00  0.00    +0.379 N 
ATOM     24  C   UNL     1      -9.828   9.211  -2.259  0.00  0.00    -0.096 C 
ATOM     25  H   UNL     1      -8.519  10.833  -2.490  0.00  0.00    -0.082 HD
ATOM     26  C   UNL     1     -10.516  11.556  -2.769  0.00  0.00    -0.064 C 
ATOM     27  C   UNL     1     -10.148  13.047  -2.534  0.00  0.00    +0.066 C 
ENDBRANCH  19  20
ENDBRANCH  18  19
ENDBRANCH  14  15
ENDBRANCH  12  13
TORSDOF 6
ENDMDL
MODEL 4
REMARK VINA RESULT:      -7.7      5.186     15.420
REMARK  Name = C:\Users\Docking\Desktop\test protocol\1iep_ligandH.pdb
REMARK  8 active torsions:
REMARK  status: ('A' for Active; 'I' for Inactive)
REMARK    1  A    between atoms: _5  and  _11
REMARK    2  A    between atoms: _19  and  _21
REMARK    3  A    between atoms: _22  and  _66
REMARK    4  A    between atoms: _27  and  _30
REMARK    5  A    between atoms: _32  and  _33
REMARK    6  A    between atoms: _38  and  _43
REMARK    7  A    between atoms: _43  and  _46
REMARK    8  A    between atoms: _53  and  _55
REMARK                            x       y       z     vdW  Elec       q    Type
REMARK                         _______ _______ _______ _____ _____    ______ ____
ROOT
ATOM     10  C   UNL     1     -22.484  33.529  -1.917  0.00  0.00    +0.038 A 
ATOM     11  C   UNL     1     -21.702  32.419  -1.507  0.00  0.00    +0.047 A 
ATOM     12  C   UNL     1     -21.687  31.981  -0.120  0.00  0.00    +0.035 A 
ATOM     32  C   UNL     1     -22.483  32.695   0.823  0.00  0.00    +0.024 A 
ATOM     33  C   UNL     1     -23.283  33.826   0.423  0.00  0.00    +0.007 A 
ATOM     34  C   UNL     1     -23.300  34.264  -0.943  0.00  0.00    -0.029 A 
ATOM     35  C   UNL     1     -24.171  35.487  -1.314  0.00  0.00    +0.045 C 
ENDROOT
BRANCH  10   9
ATOM      4  C   UNL     1     -24.087  33.216  -6.430  0.00  0.00    +0.077 A 
ATOM      5  C   UNL     1     -25.034  32.194  -6.086  0.00  0.00    +0.048 A 
ATOM      6  C   UNL     1     -25.071  31.772  -4.738  0.00  0.00    +0.116 A 
ATOM      7  N   UNL     1     -24.221  32.337  -3.812  0.00  0.00    -0.223 NA
ATOM      8  C   UNL     1     -23.319  33.319  -4.178  0.00  0.00    +0.220 A 
ATOM      9  N   UNL     1     -22.460  33.907  -3.262  0.00  0.00    -0.283 N 
ATOM     36  H   UNL     1     -21.804  34.623  -3.573  0.00  0.00    +0.155 HD
ATOM     37  N   UNL     1     -23.263  33.738  -5.459  0.00  0.00    -0.214 NA
BRANCH   4   3
ATOM      1  C   UNL     1     -22.735  35.167  -9.539  0.00  0.00    +0.020 A 
ATOM      2  C   UNL     1     -22.841  34.660  -8.190  0.00  0.00    +0.013 A 
ATOM      3  C   UNL     1     -23.931  33.769  -7.812  0.00  0.00    +0.019 A 
ATOM     38  C   UNL     1     -24.903  33.405  -8.832  0.00  0.00    +0.120 A 
ATOM     39  N   UNL     1     -24.776  33.909 -10.123  0.00  0.00    -0.263 NA
ATOM     40  C   UNL     1     -23.733  34.770 -10.497  0.00  0.00    +0.111 A 
ENDBRANCH   4   3
ENDBRANCH  10   9
BRANCH  12  13
ATOM     13  N   UNL     1     -20.907  30.866   0.357  0.00  0.00    -0.281 N 
ATOM     14  C   UNL     1     -21.192  29.515   0.241  0.00  0.00    +0.248 C 
ATOM     30  O   UNL     1     -22.274  29.065  -0.106  0.00  0.00    -0.270 OA
ATOM     31  H   UNL     1     -20.039  31.101   0.839  0.00  0.00    +0.155 HD
BRANCH  14  15
ATOM     15  C   UNL     1     -20.126  28.521   0.571  0.00  0.00    +0.037 A 
ATOM     16  C   UNL     1     -19.026  28.249  -0.359  0.00  0.00    +0.013 A 
ATOM     17  C   UNL     1     -18.020  27.273  -0.023  0.00  0.00    +0.005 A 
ATOM     18  C   UNL     1     -18.108  26.563   1.250  0.00  0.00    -0.033 A 
ATOM     28  C   UNL     1     -19.207  26.856   2.156  0.00  0.00    +0.005 A 
ATOM     29  C   UNL     1     -20.195  27.811   1.830  0.00  0.00    +0.013 A 
BRANCH  18  19
ATOM     19  C   UNL     1     -17.091  25.490   1.682  0.00  0.00    +0.119 C 
BRANCH  19  20
ATOM     20  N   UNL     1     -16.695  25.462   3.121  0.00  0.00    -0.302 NA
ATOM     21  C   UNL     1     -15.516  26.395   3.411  0.00  0.00    +0.066 C 
ATOM     22  C   UNL     1     -15.130  26.371   4.926  0.00  0.00    -0.064 C 
ATOM     23  N   UNL     1     -14.800  24.937   5.342  0.00  0.00    +0.379 N 
ATOM     24  C   UNL     1     -14.381  24.919   6.751  0.00  0.00    -0.096 C 
ATOM     25  H   UNL     1     -13.935  24.597   4.727  0.00  0.00    -0.082 HD
ATOM     26  C   UNL     1     -15.966  24.001   5.055  0.00  0.00    -0.064 C 
ATOM     27  C   UNL     1     -16.361  24.055   3.553  0.00  0.00    +0.066 C 
ENDBRANCH  19  20
ENDBRANCH  18  19
ENDBRANCH  14  15
ENDBRANCH  12  13
TORSDOF 6
ENDMDL
MODEL 5
REMARK VINA RESULT:      -7.6      3.850      5.420
REMARK  Name = C:\Users\Docking\Desktop\test protocol\1iep_ligandH.pdb
REMARK  8 active torsions:
REMARK  status: ('A' for Active; 'I' for Inactive)
REMARK    1  A    between atoms: _5  and  _11
REMARK    2  A    between atoms: _19  and  _21
REMARK    3  A    between atoms: _22  and  _66
REMARK    4  A    between atoms: _27  and  _30
REMARK    5  A    between atoms: _32  and  _33
REMARK    6  A    between atoms: _38  and  _43
REMARK    7  A    between atoms: _43  and  _46
REMARK    8  A    between atoms: _53  and  _55
REMARK                            x       y       z     vdW  Elec       q    Type
REMARK                         _______ _______ _______ _____ _____    ______ ____
ROOT
ATOM     10  C   UNL     1     -15.815  22.313   5.188  0.00  0.00    +0.038 A 
ATOM     11  C   UNL     1     -16.715  23.154   4.485  0.00  0.00    +0.047 A 
ATOM     12  C   UNL     1     -16.238  24.300   3.727  0.00  0.00    +0.035 A 
ATOM     32  C   UNL     1     -14.837  24.560   3.706  0.00  0.00    +0.024 A 
ATOM     33  C   UNL     1     -13.908  23.717   4.416  0.00  0.00    +0.007 A 
ATOM     34  C   UNL     1     -14.373  22.586   5.167  0.00  0.00    -0.029 A 
ATOM     35  C   UNL     1     -13.332  21.720   5.915  0.00  0.00    +0.045 C 
ENDROOT
BRANCH  10   9
ATOM      4  C   UNL     1     -17.636  20.335   9.164  0.00  0.00    +0.077 A 
ATOM      5  C   UNL     1     -17.532  21.565   9.895  0.00  0.00    +0.048 A 
ATOM      6  C   UNL     1     -16.998  22.682   9.213  0.00  0.00    +0.116 A 
ATOM      7  N   UNL     1     -16.601  22.565   7.899  0.00  0.00    -0.223 NA
ATOM      8  C   UNL     1     -16.713  21.364   7.224  0.00  0.00    +0.220 A 
ATOM      9  N   UNL     1     -16.328  21.226   5.899  0.00  0.00    -0.283 N 
ATOM     36  H   UNL     1     -16.420  20.321   5.439  0.00  0.00    +0.155 HD
ATOM     37  N   UNL     1     -17.219  20.282   7.853  0.00  0.00    -0.214 NA
BRANCH   4   3
ATOM      1  C   UNL     1     -18.075  16.590  10.206  0.00  0.00    +0.020 A 
ATOM      2  C   UNL     1     -17.504  17.784   9.626  0.00  0.00    +0.013 A 
ATOM      3  C   UNL     1     -18.183  19.068   9.746  0.00  0.00    +0.019 A 
ATOM     38  C   UNL     1     -19.446  19.111  10.466  0.00  0.00    +0.120 A 
ATOM     39  N   UNL     1     -19.972  17.945  11.013  0.00  0.00    -0.263 NA
ATOM     40  C   UNL     1     -19.329  16.703  10.902  0.00  0.00    +0.111 A 
ENDBRANCH   4   3
ENDBRANCH  10   9
BRANCH  12  13
ATOM     13  N   UNL     1     -17.106  25.193   3.000  0.00  0.00    -0.281 N 
ATOM     14  C   UNL     1     -17.121  25.444   1.638  0.00  0.00    +0.248 C 
ATOM     30  O   UNL     1     -16.245  25.095   0.861  0.00  0.00    -0.270 OA
ATOM     31  H   UNL     1     -17.791  25.703   3.557  0.00  0.00    +0.155 HD
BRANCH  14  15
ATOM     15  C   UNL     1     -18.269  26.204   1.056  0.00  0.00    +0.037 A 
ATOM     16  C   UNL     1     -19.452  26.526   1.859  0.00  0.00    +0.013 A 
ATOM     17  C   UNL     1     -20.553  27.245   1.269  0.00  0.00    +0.005 A 
ATOM     18  C   UNL     1     -20.475  27.649  -0.133  0.00  0.00    -0.033 A 
ATOM     28  C   UNL     1     -19.288  27.321  -0.905  0.00  0.00    +0.005 A 
ATOM     29  C   UNL     1     -18.207  26.615  -0.330  0.00  0.00    +0.013 A 
BRANCH  18  19
ATOM     19  C   UNL     1     -21.611  28.401  -0.851  0.00  0.00    +0.119 C 
BRANCH  19  20
ATOM     20  N   UNL     1     -21.629  29.890  -0.731  0.00  0.00    -0.302 NA
ATOM     21  C   UNL     1     -22.389  30.356   0.514  0.00  0.00    +0.066 C 
ATOM     22  C   UNL     1     -22.378  31.915   0.636  0.00  0.00    -0.064 C 
ATOM     23  N   UNL     1     -22.982  32.527  -0.629  0.00  0.00    +0.379 N 
ATOM     24  C   UNL     1     -23.027  33.990  -0.492  0.00  0.00    -0.096 C 
ATOM     25  H   UNL     1     -24.033  32.163  -0.712  0.00  0.00    -0.082 HD
ATOM     26  C   UNL     1     -22.234  32.066  -1.871  0.00  0.00    -0.064 C 
ATOM     27  C   UNL     1     -22.225  30.515  -1.968  0.00  0.00    +0.066 C 
ENDBRANCH  19  20
ENDBRANCH  18  19
ENDBRANCH  14  15
ENDBRANCH  12  13
TORSDOF 6
ENDMDL
