MODEL 1
REMARK VINA RESULT:      -8.4      0.000      0.000
REMARK  Name = C:\Users\Docking\Desktop\test protocol\1iep_ligandH.pdb
REMARK  8 active torsions:
REMARK  status: ('A' for Active; 'I' for Inactive)
REMARK    1  A    between atoms: _5  and  _11
REMARK    2  A    between atoms: _19  and  _21
REMARK    3  A    between atoms: _22  and  _66
REMARK    4  A    between atoms: _27  and  _30
REMARK    5  A    between atoms: _32  and  _33
REMARK    6  A    between atoms: _38  and  _43
REMARK    7  A    between atoms: _43  and  _46
REMARK    8  A    between atoms: _53  and  _55
REMARK                            x       y       z     vdW  Elec       q    Type
REMARK                         _______ _______ _______ _____ _____    ______ ____
ROOT
ATOM     10  C   UNL     1     136.302  32.515  30.744  0.00  0.00    +0.038 A 
ATOM     11  C   UNL     1     137.615  32.815  31.190  0.00  0.00    +0.047 A 
ATOM     12  C   UNL     1     138.335  31.911  32.074  0.00  0.00    +0.035 A 
ATOM     32  C   UNL     1     137.689  30.708  32.482  0.00  0.00    +0.024 A 
ATOM     33  C   UNL     1     136.355  30.388  32.039  0.00  0.00    +0.007 A 
ATOM     34  C   UNL     1     135.638  31.277  31.170  0.00  0.00    -0.029 A 
ATOM     35  C   UNL     1     134.208  30.885  30.732  0.00  0.00    +0.045 C 
ENDROOT
BRANCH  10   9
ATOM      4  C   UNL     1     133.564  36.381  29.975  0.00  0.00    +0.077 A 
ATOM      5  C   UNL     1     133.381  36.604  31.380  0.00  0.00    +0.048 A 
ATOM      6  C   UNL     1     134.002  35.697  32.267  0.00  0.00    +0.116 A 
ATOM      7  N   UNL     1     134.749  34.649  31.775  0.00  0.00    -0.223 NA
ATOM      8  C   UNL     1     134.904  34.461  30.414  0.00  0.00    +0.220 A 
ATOM      9  N   UNL     1     135.658  33.418  29.897  0.00  0.00    -0.283 N 
ATOM     36  H   UNL     1     135.742  33.310  28.886  0.00  0.00    +0.155 HD
ATOM     37  N   UNL     1     134.320  35.313  29.546  0.00  0.00    -0.214 NA
BRANCH   4   3
ATOM      1  C   UNL     1     131.489  37.649  26.911  0.00  0.00    +0.020 A 
ATOM      2  C   UNL     1     132.030  36.763  27.916  0.00  0.00    +0.013 A 
ATOM      3  C   UNL     1     132.974  37.255  28.912  0.00  0.00    +0.019 A 
ATOM     38  C   UNL     1     133.352  38.659  28.863  0.00  0.00    +0.120 A 
ATOM     39  N   UNL     1     132.816  39.488  27.883  0.00  0.00    -0.263 NA
ATOM     40  C   UNL     1     131.908  39.026  26.918  0.00  0.00    +0.111 A 
ENDBRANCH   4   3
ENDBRANCH  10   9
BRANCH  12  13
ATOM     13  N   UNL     1     139.666  32.167  32.565  0.00  0.00    -0.281 N 
ATOM     14  C   UNL     1     140.816  31.429  32.335  0.00  0.00    +0.248 C 
ATOM     30  O   UNL     1     140.832  30.311  31.843  0.00  0.00    -0.270 OA
ATOM     31  H   UNL     1     139.774  32.993  33.154  0.00  0.00    +0.155 HD
BRANCH  14  15
ATOM     15  C   UNL     1     142.137  32.011  32.720  0.00  0.00    +0.037 A 
ATOM     16  C   UNL     1     142.407  32.439  34.095  0.00  0.00    +0.013 A 
ATOM     17  C   UNL     1     143.685  33.013  34.436  0.00  0.00    +0.005 A 
ATOM     18  C   UNL     1     144.703  33.162  33.399  0.00  0.00    -0.033 A 
ATOM     28  C   UNL     1     144.410  32.725  32.044  0.00  0.00    +0.005 A 
ATOM     29  C   UNL     1     143.159  32.163  31.706  0.00  0.00    +0.013 A 
BRANCH  18  19
ATOM     19  C   UNL     1     146.086  33.784  33.668  0.00  0.00    +0.119 C 
BRANCH  19  20
ATOM     20  N   UNL     1     146.134  35.250  33.946  0.00  0.00    -0.302 NA
ATOM     21  C   UNL     1     146.707  36.040  32.765  0.00  0.00    +0.066 C 
ATOM     22  C   UNL     1     146.729  37.574  33.064  0.00  0.00    -0.064 C 
ATOM     23  N   UNL     1     147.543  37.832  34.333  0.00  0.00    +0.379 N 
ATOM     24  C   UNL     1     147.614  39.279  34.584  0.00  0.00    -0.096 C 
ATOM     25  H   UNL     1     148.580  37.469  34.149  0.00  0.00    -0.082 HD
ATOM     26  C   UNL     1     146.982  37.049  35.512  0.00  0.00    -0.064 C 
ATOM     27  C   UNL     1     146.937  35.528  35.193  0.00  0.00    +0.066 C 
ENDBRANCH  19  20
ENDBRANCH  18  19
ENDBRANCH  14  15
ENDBRANCH  12  13
TORSDOF 6
ENDMDL
MODEL 2
REMARK VINA RESULT:      -8.3     20.576     25.031
REMARK  Name = C:\Users\Docking\Desktop\test protocol\1iep_ligandH.pdb
REMARK  8 active torsions:
REMARK  status: ('A' for Active; 'I' for Inactive)
REMARK    1  A    between atoms: _5  and  _11
REMARK    2  A    between atoms: _19  and  _21
REMARK    3  A    between atoms: _22  and  _66
REMARK    4  A    between atoms: _27  and  _30
REMARK    5  A    between atoms: _32  and  _33
REMARK    6  A    between atoms: _38  and  _43
REMARK    7  A    between atoms: _43  and  _46
REMARK    8  A    between atoms: _53  and  _55
REMARK                            x       y       z     vdW  Elec       q    Type
REMARK                         _______ _______ _______ _____ _____    ______ ____
ROOT
ATOM     10  C   UNL     1     121.512  25.694  22.578  0.00  0.00    +0.038 A 
ATOM     11  C   UNL     1     121.827  25.400  21.227  0.00  0.00    +0.047 A 
ATOM     12  C   UNL     1     121.738  24.042  20.712  0.00  0.00    +0.035 A 
ATOM     32  C   UNL     1     121.323  23.008  21.601  0.00  0.00    +0.024 A 
ATOM     33  C   UNL     1     121.001  23.290  22.978  0.00  0.00    +0.007 A 
ATOM     34  C   UNL     1     121.089  24.626  23.492  0.00  0.00    -0.029 A 
ATOM     35  C   UNL     1     120.738  24.869  24.979  0.00  0.00    +0.045 C 
ENDROOT
BRANCH  10   9
ATOM      4  C   UNL     1     119.621  30.011  23.488  0.00  0.00    +0.077 A 
ATOM      5  C   UNL     1     118.326  29.607  23.021  0.00  0.00    +0.048 A 
ATOM      6  C   UNL     1     118.191  28.283  22.547  0.00  0.00    +0.116 A 
ATOM      7  N   UNL     1     119.276  27.434  22.547  0.00  0.00    -0.223 NA
ATOM      8  C   UNL     1     120.511  27.855  23.003  0.00  0.00    +0.220 A 
ATOM      9  N   UNL     1     121.615  27.015  23.019  0.00  0.00    -0.283 N 
ATOM     36  H   UNL     1     122.510  27.366  23.357  0.00  0.00    +0.155 HD
ATOM     37  N   UNL     1     120.667  29.115  23.459  0.00  0.00    -0.214 NA
BRANCH   4   3
ATOM      1  C   UNL     1     119.248  33.553  25.105  0.00  0.00    +0.020 A 
ATOM      2  C   UNL     1     118.904  32.242  24.604  0.00  0.00    +0.013 A 
ATOM      3  C   UNL     1     119.922  31.377  24.022  0.00  0.00    +0.019 A 
ATOM     38  C   UNL     1     121.289  31.871  23.962  0.00  0.00    +0.120 A 
ATOM     39  N   UNL     1     121.590  33.139  24.451  0.00  0.00    -0.263 NA
ATOM     40  C   UNL     1     120.619  33.981  25.012  0.00  0.00    +0.111 A 
ENDBRANCH   4   3
ENDBRANCH  10   9
BRANCH  12  13
ATOM     13  N   UNL     1     122.052  23.682  19.352  0.00  0.00    -0.281 N 
ATOM     14  C   UNL     1     121.523  24.212  18.187  0.00  0.00    +0.248 C 
ATOM     30  O   UNL     1     120.537  24.932  18.141  0.00  0.00    -0.270 OA
ATOM     31  H   UNL     1     122.750  22.947  19.234  0.00  0.00    +0.155 HD
BRANCH  14  15
ATOM     15  C   UNL     1     122.174  23.882  16.882  0.00  0.00    +0.037 A 
ATOM     16  C   UNL     1     121.459  24.041  15.614  0.00  0.00    +0.013 A 
ATOM     17  C   UNL     1     122.105  23.700  14.371  0.00  0.00    +0.005 A 
ATOM     18  C   UNL     1     123.476  23.198  14.392  0.00  0.00    -0.033 A 
ATOM     28  C   UNL     1     124.165  23.055  15.664  0.00  0.00    +0.005 A 
ATOM     29  C   UNL     1     123.534  23.387  16.884  0.00  0.00    +0.013 A 
BRANCH  18  19
ATOM     19  C   UNL     1     124.236  22.789  13.116  0.00  0.00    +0.119 C 
BRANCH  19  20
ATOM     20  N   UNL     1     123.687  21.645  12.329  0.00  0.00    -0.302 NA
ATOM     21  C   UNL     1     123.478  20.400  13.196  0.00  0.00    +0.066 C 
ATOM     22  C   UNL     1     122.881  19.219  12.362  0.00  0.00    -0.064 C 
ATOM     23  N   UNL     1     123.808  18.911  11.185  0.00  0.00    +0.379 N 
ATOM     24  C   UNL     1     123.279  17.764  10.432  0.00  0.00    -0.096 C 
ATOM     25  H   UNL     1     124.798  18.614  11.603  0.00  0.00    -0.082 HD
ATOM     26  C   UNL     1     124.023  20.144  10.319  0.00  0.00    -0.064 C 
ATOM     27  C   UNL     1     124.588  21.320  11.164  0.00  0.00    +0.066 C 
ENDBRANCH  19  20
ENDBRANCH  18  19
ENDBRANCH  14  15
ENDBRANCH  12  13
TORSDOF 6
ENDMDL
MODEL 3
REMARK VINA RESULT:      -8.3     12.960     18.527
REMARK  Name = C:\Users\Docking\Desktop\test protocol\1iep_ligandH.pdb
REMARK  8 active torsions:
REMARK  status: ('A' for Active; 'I' for Inactive)
REMARK    1  A    between atoms: _5  and  _11
REMARK    2  A    between atoms: _19  and  _21
REMARK    3  A    between atoms: _22  and  _66
REMARK    4  A    between atoms: _27  and  _30
REMARK    5  A    between atoms: _32  and  _33
REMARK    6  A    between atoms: _38  and  _43
REMARK    7  A    between atoms: _43  and  _46
REMARK    8  A    between atoms: _53  and  _55
REMARK                            x       y       z     vdW  Elec       q    Type
REMARK                         _______ _______ _______ _____ _____    ______ ____
ROOT
ATOM     10  C   UNL     1     135.235  45.934  43.654  0.00  0.00    +0.038 A 
ATOM     11  C   UNL     1     134.867  45.275  42.453  0.00  0.00    +0.047 A 
ATOM     12  C   UNL     1     133.899  44.189  42.456  0.00  0.00    +0.035 A 
ATOM     32  C   UNL     1     133.322  43.802  43.701  0.00  0.00    +0.024 A 
ATOM     33  C   UNL     1     133.685  44.460  44.931  0.00  0.00    +0.007 A 
ATOM     34  C   UNL     1     134.641  45.530  44.935  0.00  0.00    -0.029 A 
ATOM     35  C   UNL     1     134.998  46.195  46.285  0.00  0.00    +0.045 C 
ENDROOT
BRANCH  10   9
ATOM      4  C   UNL     1     139.748  47.564  43.589  0.00  0.00    +0.077 A 
ATOM      5  C   UNL     1     140.291  46.242  43.714  0.00  0.00    +0.048 A 
ATOM      6  C   UNL     1     139.374  45.170  43.799  0.00  0.00    +0.116 A 
ATOM      7  N   UNL     1     138.018  45.414  43.761  0.00  0.00    -0.223 NA
ATOM      8  C   UNL     1     137.528  46.702  43.642  0.00  0.00    +0.220 A 
ATOM      9  N   UNL     1     136.169  46.970  43.593  0.00  0.00    -0.283 N 
ATOM     36  H   UNL     1     135.848  47.935  43.512  0.00  0.00    +0.155 HD
ATOM     37  N   UNL     1     138.383  47.743  43.560  0.00  0.00    -0.214 NA
BRANCH   4   3
ATOM      1  C   UNL     1     140.918  51.240  42.939  0.00  0.00    +0.020 A 
ATOM      2  C   UNL     1     140.064  50.077  43.021  0.00  0.00    +0.013 A 
ATOM      3  C   UNL     1     140.589  48.799  43.485  0.00  0.00    +0.019 A 
ATOM     38  C   UNL     1     141.993  48.730  43.862  0.00  0.00    +0.120 A 
ATOM     39  N   UNL     1     142.791  49.866  43.772  0.00  0.00    -0.263 NA
ATOM     40  C   UNL     1     142.298  51.101  43.325  0.00  0.00    +0.111 A 
ENDBRANCH   4   3
ENDBRANCH  10   9
BRANCH  12  13
ATOM     13  N   UNL     1     133.493  43.478  41.269  0.00  0.00    -0.281 N 
ATOM     14  C   UNL     1     133.635  42.128  40.996  0.00  0.00    +0.248 C 
ATOM     30  O   UNL     1     134.328  41.360  41.646  0.00  0.00    -0.270 OA
ATOM     31  H   UNL     1     133.048  44.038  40.543  0.00  0.00    +0.155 HD
BRANCH  14  15
ATOM     15  C   UNL     1     132.913  41.549  39.822  0.00  0.00    +0.037 A 
ATOM     16  C   UNL     1     133.586  40.648  38.884  0.00  0.00    +0.013 A 
ATOM     17  C   UNL     1     132.871  40.117  37.750  0.00  0.00    +0.005 A 
ATOM     18  C   UNL     1     131.472  40.486  37.550  0.00  0.00    -0.033 A 
ATOM     28  C   UNL     1     130.827  41.378  38.499  0.00  0.00    +0.005 A 
ATOM     29  C   UNL     1     131.525  41.901  39.610  0.00  0.00    +0.013 A 
BRANCH  18  19
ATOM     19  C   UNL     1     130.638  39.985  36.356  0.00  0.00    +0.119 C 
BRANCH  19  20
ATOM     20  N   UNL     1     129.242  39.536  36.639  0.00  0.00    -0.302 NA
ATOM     21  C   UNL     1     128.989  38.105  36.155  0.00  0.00    +0.066 C 
ATOM     22  C   UNL     1     127.531  37.644  36.479  0.00  0.00    -0.064 C 
ATOM     23  N   UNL     1     126.538  38.615  35.838  0.00  0.00    +0.379 N 
ATOM     24  C   UNL     1     125.166  38.151  36.092  0.00  0.00    -0.096 C 
ATOM     25  H   UNL     1     126.705  38.591  34.736  0.00  0.00    -0.082 HD
ATOM     26  C   UNL     1     126.783  40.040  36.311  0.00  0.00    -0.064 C 
ATOM     27  C   UNL     1     128.244  40.478  36.011  0.00  0.00    +0.066 C 
ENDBRANCH  19  20
ENDBRANCH  18  19
ENDBRANCH  14  15
ENDBRANCH  12  13
TORSDOF 6
ENDMDL
