MODEL 1
REMARK VINA RESULT:      -8.4      0.000      0.000
REMARK  Name = C:\Users\Docking\Desktop\test protocol\1iep_ligandH.pdb
REMARK  8 active torsions:
REMARK  status: ('A' for Active; 'I' for Inactive)
REMARK    1  A    between atoms: _5  and  _11
REMARK    2  A    between atoms: _19  and  _21
REMARK    3  A    between atoms: _22  and  _66
REMARK    4  A    between atoms: _27  and  _30
REMARK    5  A    between atoms: _32  and  _33
REMARK    6  A    between atoms: _38  and  _43
REMARK    7  A    between atoms: _43  and  _46
REMARK    8  A    between atoms: _53  and  _55
REMARK                            x       y       z     vdW  Elec       q    Type
REMARK                         _______ _______ _______ _____ _____    ______ ____
ROOT
ATOM     10  C   UNL     1      48.507   7.902   1.152  0.00  0.00    +0.038 A 
ATOM     11  C   UNL     1      48.080   6.742   1.847  0.00  0.00    +0.047 A 
ATOM     12  C   UNL     1      48.311   5.412   1.305  0.00  0.00    +0.035 A 
ATOM     32  C   UNL     1      48.983   5.300   0.053  0.00  0.00    +0.024 A 
ATOM     33  C   UNL     1      49.423   6.469  -0.668  0.00  0.00    +0.007 A 
ATOM     34  C   UNL     1      49.195   7.783  -0.139  0.00  0.00    -0.029 A 
ATOM     35  C   UNL     1      49.683   9.001  -0.958  0.00  0.00    +0.045 C 
ENDROOT
BRANCH  10   9
ATOM      4  C   UNL     1      45.762  11.785   1.801  0.00  0.00    +0.077 A 
ATOM      5  C   UNL     1      44.748  11.289   0.916  0.00  0.00    +0.048 A 
ATOM      6  C   UNL     1      44.974  10.034   0.308  0.00  0.00    +0.116 A 
ATOM      7  N   UNL     1      46.132   9.336   0.573  0.00  0.00    -0.223 NA
ATOM      8  C   UNL     1      47.091   9.843   1.431  0.00  0.00    +0.220 A 
ATOM      9  N   UNL     1      48.259   9.154   1.718  0.00  0.00    -0.283 N 
ATOM     36  H   UNL     1      48.945   9.566   2.351  0.00  0.00    +0.155 HD
ATOM     37  N   UNL     1      46.899  11.040   2.023  0.00  0.00    -0.214 NA
BRANCH   4   3
ATOM      1  C   UNL     1      46.416  14.736   4.285  0.00  0.00    +0.020 A 
ATOM      2  C   UNL     1      46.549  13.458   3.623  0.00  0.00    +0.013 A 
ATOM      3  C   UNL     1      45.666  13.094   2.522  0.00  0.00    +0.019 A 
ATOM     38  C   UNL     1      44.651  14.052   2.112  0.00  0.00    +0.120 A 
ATOM     39  N   UNL     1      44.545  15.274   2.770  0.00  0.00    -0.263 NA
ATOM     40  C   UNL     1      45.388  15.635   3.831  0.00  0.00    +0.111 A 
ENDBRANCH   4   3
ENDBRANCH  10   9
BRANCH  12  13
ATOM     13  N   UNL     1      47.893   4.198   1.962  0.00  0.00    -0.281 N 
ATOM     14  C   UNL     1      47.469   3.016   1.377  0.00  0.00    +0.248 C 
ATOM     30  O   UNL     1      47.181   2.894   0.196  0.00  0.00    -0.270 OA
ATOM     31  H   UNL     1      47.911   4.213   2.982  0.00  0.00    +0.155 HD
BRANCH  14  15
ATOM     15  C   UNL     1      47.332   1.797   2.231  0.00  0.00    +0.037 A 
ATOM     16  C   UNL     1      47.752   1.801   3.634  0.00  0.00    +0.013 A 
ATOM     17  C   UNL     1      47.625   0.606   4.431  0.00  0.00    +0.005 A 
ATOM     18  C   UNL     1      47.073  -0.603   3.825  0.00  0.00    -0.033 A 
ATOM     28  C   UNL     1      46.659  -0.578   2.432  0.00  0.00    +0.005 A 
ATOM     29  C   UNL     1      46.783   0.591   1.648  0.00  0.00    +0.013 A 
BRANCH  18  19
ATOM     19  C   UNL     1      46.921  -1.929   4.593  0.00  0.00    +0.119 C 
BRANCH  19  20
ATOM     20  N   UNL     1      45.652  -2.692   4.396  0.00  0.00    -0.302 NA
ATOM     21  C   UNL     1      44.432  -1.917   4.901  0.00  0.00    +0.066 C 
ATOM     22  C   UNL     1      43.111  -2.719   4.667  0.00  0.00    -0.064 C 
ATOM     23  N   UNL     1      43.213  -4.079   5.360  0.00  0.00    +0.379 N 
ATOM     24  C   UNL     1      41.951  -4.813   5.190  0.00  0.00    -0.096 C 
ATOM     25  H   UNL     1      43.353  -3.893   6.450  0.00  0.00    -0.082 HD
ATOM     26  C   UNL     1      44.426  -4.855   4.866  0.00  0.00    -0.064 C 
ATOM     27  C   UNL     1      45.730  -4.036   5.076  0.00  0.00    +0.066 C 
ENDBRANCH  19  20
ENDBRANCH  18  19
ENDBRANCH  14  15
ENDBRANCH  12  13
TORSDOF 6
ENDMDL
MODEL 2
REMARK VINA RESULT:      -8.2     26.577     29.676
REMARK  Name = C:\Users\Docking\Desktop\test protocol\1iep_ligandH.pdb
REMARK  8 active torsions:
REMARK  status: ('A' for Active; 'I' for Inactive)
REMARK    1  A    between atoms: _5  and  _11
REMARK    2  A    between atoms: _19  and  _21
REMARK    3  A    between atoms: _22  and  _66
REMARK    4  A    between atoms: _27  and  _30
REMARK    5  A    between atoms: _32  and  _33
REMARK    6  A    between atoms: _38  and  _43
REMARK    7  A    between atoms: _43  and  _46
REMARK    8  A    between atoms: _53  and  _55
REMARK                            x       y       z     vdW  Elec       q    Type
REMARK                         _______ _______ _______ _____ _____    ______ ____
ROOT
ATOM     10  C   UNL     1      21.405   6.777  20.032  0.00  0.00    +0.038 A 
ATOM     11  C   UNL     1      21.987   6.560  18.757  0.00  0.00    +0.047 A 
ATOM     12  C   UNL     1      21.200   6.683  17.540  0.00  0.00    +0.035 A 
ATOM     32  C   UNL     1      19.823   7.032  17.658  0.00  0.00    +0.024 A 
ATOM     33  C   UNL     1      19.215   7.255  18.946  0.00  0.00    +0.007 A 
ATOM     34  C   UNL     1      19.986   7.132  20.150  0.00  0.00    -0.029 A 
ATOM     35  C   UNL     1      19.280   7.377  21.505  0.00  0.00    +0.045 C 
ENDROOT
BRANCH  10   9
ATOM      4  C   UNL     1      24.348   8.580  23.368  0.00  0.00    +0.077 A 
ATOM      5  C   UNL     1      24.305   9.889  22.783  0.00  0.00    +0.048 A 
ATOM      6  C   UNL     1      23.520  10.055  21.620  0.00  0.00    +0.116 A 
ATOM      7  N   UNL     1      22.833   8.984  21.090  0.00  0.00    -0.223 NA
ATOM      8  C   UNL     1      22.897   7.734  21.679  0.00  0.00    +0.220 A 
ATOM      9  N   UNL     1      22.207   6.645  21.168  0.00  0.00    -0.283 N 
ATOM     36  H   UNL     1      22.286   5.738  21.627  0.00  0.00    +0.155 HD
ATOM     37  N   UNL     1      23.641   7.550  22.789  0.00  0.00    -0.214 NA
BRANCH   4   3
ATOM      1  C   UNL     1      27.063   7.148  25.792  0.00  0.00    +0.020 A 
ATOM      2  C   UNL     1      26.344   7.440  24.574  0.00  0.00    +0.013 A 
ATOM      3  C   UNL     1      25.131   8.247  24.600  0.00  0.00    +0.019 A 
ATOM     38  C   UNL     1      24.668   8.748  25.885  0.00  0.00    +0.120 A 
ATOM     39  N   UNL     1      25.381   8.449  27.043  0.00  0.00    -0.263 NA
ATOM     40  C   UNL     1      26.549   7.672  27.030  0.00  0.00    +0.111 A 
ENDBRANCH   4   3
ENDBRANCH  10   9
BRANCH  12  13
ATOM     13  N   UNL     1      21.735   6.467  16.218  0.00  0.00    -0.281 N 
ATOM     14  C   UNL     1      21.577   5.355  15.407  0.00  0.00    +0.248 C 
ATOM     30  O   UNL     1      21.126   4.284  15.784  0.00  0.00    -0.270 OA
ATOM     31  H   UNL     1      22.298   7.226  15.834  0.00  0.00    +0.155 HD
BRANCH  14  15
ATOM     15  C   UNL     1      21.993   5.442  13.974  0.00  0.00    +0.037 A 
ATOM     16  C   UNL     1      22.806   6.559  13.485  0.00  0.00    +0.013 A 
ATOM     17  C   UNL     1      23.179   6.626  12.095  0.00  0.00    +0.005 A 
ATOM     18  C   UNL     1      22.741   5.572  11.183  0.00  0.00    -0.033 A 
ATOM     28  C   UNL     1      21.941   4.473  11.696  0.00  0.00    +0.005 A 
ATOM     29  C   UNL     1      21.572   4.403  13.058  0.00  0.00    +0.013 A 
BRANCH  18  19
ATOM     19  C   UNL     1      23.076   5.574   9.680  0.00  0.00    +0.119 C 
BRANCH  19  20
ATOM     20  N   UNL     1      23.188   6.902   9.006  0.00  0.00    -0.302 NA
ATOM     21  C   UNL     1      21.817   7.539   8.760  0.00  0.00    +0.066 C 
ATOM     22  C   UNL     1      21.954   8.938   8.075  0.00  0.00    -0.064 C 
ATOM     23  N   UNL     1      22.725   8.787   6.762  0.00  0.00    +0.379 N 
ATOM     24  C   UNL     1      22.805  10.090   6.087  0.00  0.00    -0.096 C 
ATOM     25  H   UNL     1      22.142   8.101   6.105  0.00  0.00    -0.082 HD
ATOM     26  C   UNL     1      24.088   8.151   6.998  0.00  0.00    -0.064 C 
ATOM     27  C   UNL     1      23.942   6.775   7.705  0.00  0.00    +0.066 C 
ENDBRANCH  19  20
ENDBRANCH  18  19
ENDBRANCH  14  15
ENDBRANCH  12  13
TORSDOF 6
ENDMDL
MODEL 3
REMARK VINA RESULT:      -7.9     18.340     23.735
REMARK  Name = C:\Users\Docking\Desktop\test protocol\1iep_ligandH.pdb
REMARK  8 active torsions:
REMARK  status: ('A' for Active; 'I' for Inactive)
REMARK    1  A    between atoms: _5  and  _11
REMARK    2  A    between atoms: _19  and  _21
REMARK    3  A    between atoms: _22  and  _66
REMARK    4  A    between atoms: _27  and  _30
REMARK    5  A    between atoms: _32  and  _33
REMARK    6  A    between atoms: _38  and  _43
REMARK    7  A    between atoms: _43  and  _46
REMARK    8  A    between atoms: _53  and  _55
REMARK                            x       y       z     vdW  Elec       q    Type
REMARK                         _______ _______ _______ _____ _____    ______ ____
ROOT
ATOM     10  C   UNL     1      26.352  19.532   5.210  0.00  0.00    +0.038 A 
ATOM     11  C   UNL     1      27.177  18.893   4.249  0.00  0.00    +0.047 A 
ATOM     12  C   UNL     1      27.853  19.656   3.212  0.00  0.00    +0.035 A 
ATOM     32  C   UNL     1      27.668  21.070   3.184  0.00  0.00    +0.024 A 
ATOM     33  C   UNL     1      26.833  21.735   4.152  0.00  0.00    +0.007 A 
ATOM     34  C   UNL     1      26.161  20.987   5.177  0.00  0.00    -0.029 A 
ATOM     35  C   UNL     1      25.273  21.752   6.185  0.00  0.00    +0.045 C 
ENDROOT
BRANCH  10   9
ATOM      4  C   UNL     1      23.009  16.384   6.608  0.00  0.00    +0.077 A 
ATOM      5  C   UNL     1      22.444  16.310   5.291  0.00  0.00    +0.048 A 
ATOM      6  C   UNL     1      23.038  17.104   4.285  0.00  0.00    +0.116 A 
ATOM      7  N   UNL     1      24.117  17.907   4.583  0.00  0.00    -0.223 NA
ATOM      8  C   UNL     1      24.637  17.956   5.863  0.00  0.00    +0.220 A 
ATOM      9  N   UNL     1      25.727  18.750   6.184  0.00  0.00    -0.283 N 
ATOM     36  H   UNL     1      26.076  18.764   7.142  0.00  0.00    +0.155 HD
ATOM     37  N   UNL     1      24.086  17.208   6.843  0.00  0.00    -0.214 NA
BRANCH   4   3
ATOM      1  C   UNL     1      22.817  14.314   9.921  0.00  0.00    +0.020 A 
ATOM      2  C   UNL     1      23.365  15.061   8.813  0.00  0.00    +0.013 A 
ATOM      3  C   UNL     1      22.495  15.603   7.777  0.00  0.00    +0.019 A 
ATOM     38  C   UNL     1      21.063  15.370   7.894  0.00  0.00    +0.120 A 
ATOM     39  N   UNL     1      20.564  14.646   8.972  0.00  0.00    -0.263 NA
ATOM     40  C   UNL     1      21.392  14.118   9.974  0.00  0.00    +0.111 A 
ENDBRANCH   4   3
ENDBRANCH  10   9
BRANCH  12  13
ATOM     13  N   UNL     1      28.696  19.062   2.204  0.00  0.00    -0.281 N 
ATOM     14  C   UNL     1      30.025  19.341   1.933  0.00  0.00    +0.248 C 
ATOM     30  O   UNL     1      30.634  20.303   2.379  0.00  0.00    -0.270 OA
ATOM     31  H   UNL     1      28.259  18.348   1.620  0.00  0.00    +0.155 HD
BRANCH  14  15
ATOM     15  C   UNL     1      30.784  18.429   1.024  0.00  0.00    +0.037 A 
ATOM     16  C   UNL     1      30.345  18.190  -0.353  0.00  0.00    +0.013 A 
ATOM     17  C   UNL     1      31.085  17.292  -1.203  0.00  0.00    +0.005 A 
ATOM     18  C   UNL     1      32.275  16.627  -0.677  0.00  0.00    -0.033 A 
ATOM     28  C   UNL     1      32.692  16.886   0.691  0.00  0.00    +0.005 A 
ATOM     29  C   UNL     1      31.967  17.764   1.527  0.00  0.00    +0.013 A 
BRANCH  18  19
ATOM     19  C   UNL     1      33.114  15.636  -1.506  0.00  0.00    +0.119 C 
BRANCH  19  20
ATOM     20  N   UNL     1      33.252  14.247  -0.977  0.00  0.00    -0.302 NA
ATOM     21  C   UNL     1      34.671  13.700  -1.160  0.00  0.00    +0.066 C 
ATOM     22  C   UNL     1      34.803  12.254  -0.581  0.00  0.00    -0.064 C 
ATOM     23  N   UNL     1      33.779  11.341  -1.258  0.00  0.00    +0.379 N 
ATOM     24  C   UNL     1      33.939   9.968  -0.757  0.00  0.00    -0.096 C 
ATOM     25  H   UNL     1      34.004  11.332  -2.350  0.00  0.00    -0.082 HD
ATOM     26  C   UNL     1      32.366  11.878  -1.083  0.00  0.00    -0.064 C 
ATOM     27  C   UNL     1      32.253  13.327  -1.635  0.00  0.00    +0.066 C 
ENDBRANCH  19  20
ENDBRANCH  18  19
ENDBRANCH  14  15
ENDBRANCH  12  13
TORSDOF 6
ENDMDL
