MODEL 1
REMARK VINA RESULT:      -8.1      0.000      0.000
REMARK  Name = C:\Users\Docking\Desktop\test protocol\1iep_ligandH.pdb
REMARK  8 active torsions:
REMARK  status: ('A' for Active; 'I' for Inactive)
REMARK    1  A    between atoms: _5  and  _11
REMARK    2  A    between atoms: _19  and  _21
REMARK    3  A    between atoms: _22  and  _66
REMARK    4  A    between atoms: _27  and  _30
REMARK    5  A    between atoms: _32  and  _33
REMARK    6  A    between atoms: _38  and  _43
REMARK    7  A    between atoms: _43  and  _46
REMARK    8  A    between atoms: _53  and  _55
REMARK                            x       y       z     vdW  Elec       q    Type
REMARK                         _______ _______ _______ _____ _____    ______ ____
ROOT
ATOM     10  C   UNL     1       4.466  55.569  61.633  0.00  0.00    +0.038 A 
ATOM     11  C   UNL     1       4.020  55.486  60.289  0.00  0.00    +0.047 A 
ATOM     12  C   UNL     1       2.791  54.787  59.945  0.00  0.00    +0.035 A 
ATOM     32  C   UNL     1       2.039  54.186  60.997  0.00  0.00    +0.024 A 
ATOM     33  C   UNL     1       2.479  54.260  62.368  0.00  0.00    +0.007 A 
ATOM     34  C   UNL     1       3.691  54.946  62.712  0.00  0.00    -0.029 A 
ATOM     35  C   UNL     1       4.117  54.987  64.199  0.00  0.00    +0.045 C 
ENDROOT
BRANCH  10   9
ATOM      4  C   UNL     1       9.222  55.706  62.263  0.00  0.00    +0.077 A 
ATOM      5  C   UNL     1       9.349  54.292  62.059  0.00  0.00    +0.048 A 
ATOM      6  C   UNL     1       8.166  53.564  61.801  0.00  0.00    +0.116 A 
ATOM      7  N   UNL     1       6.951  54.213  61.753  0.00  0.00    -0.223 NA
ATOM      8  C   UNL     1       6.863  55.578  61.957  0.00  0.00    +0.220 A 
ATOM      9  N   UNL     1       5.653  56.252  61.905  0.00  0.00    -0.283 N 
ATOM     36  H   UNL     1       5.629  57.259  62.068  0.00  0.00    +0.155 HD
ATOM     37  N   UNL     1       7.978  56.295  62.206  0.00  0.00    -0.214 NA
BRANCH   4   3
ATOM      1  C   UNL     1      12.703  57.481  62.076  0.00  0.00    +0.020 A 
ATOM      2  C   UNL     1      11.613  56.584  61.765  0.00  0.00    +0.013 A 
ATOM      3  C   UNL     1      10.381  56.612  62.543  0.00  0.00    +0.019 A 
ATOM     38  C   UNL     1      10.282  57.567  63.636  0.00  0.00    +0.120 A 
ATOM     39  N   UNL     1      11.348  58.417  63.913  0.00  0.00    -0.263 NA
ATOM     40  C   UNL     1      12.540  58.398  63.173  0.00  0.00    +0.111 A 
ENDBRANCH   4   3
ENDBRANCH  10   9
BRANCH  12  13
ATOM     13  N   UNL     1       2.293  54.663  58.598  0.00  0.00    -0.281 N 
ATOM     14  C   UNL     1       1.338  55.445  57.968  0.00  0.00    +0.248 C 
ATOM     30  O   UNL     1       0.609  56.241  58.540  0.00  0.00    -0.270 OA
ATOM     31  H   UNL     1       2.692  53.908  58.041  0.00  0.00    +0.155 HD
BRANCH  14  15
ATOM     15  C   UNL     1       1.157  55.312  56.490  0.00  0.00    +0.037 A 
ATOM     16  C   UNL     1       0.005  54.605  55.926  0.00  0.00    +0.013 A 
ATOM     17  C   UNL     1      -0.136  54.477  54.497  0.00  0.00    +0.005 A 
ATOM     18  C   UNL     1       0.878  55.060  53.622  0.00  0.00    -0.033 A 
ATOM     28  C   UNL     1       2.008  55.761  54.208  0.00  0.00    +0.005 A 
ATOM     29  C   UNL     1       2.151  55.888  55.608  0.00  0.00    +0.013 A 
BRANCH  18  19
ATOM     19  C   UNL     1       0.819  54.953  52.087  0.00  0.00    +0.119 C 
BRANCH  19  20
ATOM     20  N   UNL     1       0.422  56.179  51.331  0.00  0.00    -0.302 NA
ATOM     21  C   UNL     1      -1.018  56.095  50.818  0.00  0.00    +0.066 C 
ATOM     22  C   UNL     1      -1.425  57.395  50.049  0.00  0.00    -0.064 C 
ATOM     23  N   UNL     1      -0.450  57.626  48.893  0.00  0.00    +0.379 N 
ATOM     24  C   UNL     1      -0.864  58.814  48.133  0.00  0.00    -0.096 C 
ATOM     25  H   UNL     1      -0.521  56.747  48.211  0.00  0.00    -0.082 HD
ATOM     26  C   UNL     1       0.985  57.707  49.394  0.00  0.00    -0.064 C 
ATOM     27  C   UNL     1       1.369  56.424  50.182  0.00  0.00    +0.066 C 
ENDBRANCH  19  20
ENDBRANCH  18  19
ENDBRANCH  14  15
ENDBRANCH  12  13
TORSDOF 6
ENDMDL
MODEL 2
REMARK VINA RESULT:      -8.1      8.874     16.200
REMARK  Name = C:\Users\Docking\Desktop\test protocol\1iep_ligandH.pdb
REMARK  8 active torsions:
REMARK  status: ('A' for Active; 'I' for Inactive)
REMARK    1  A    between atoms: _5  and  _11
REMARK    2  A    between atoms: _19  and  _21
REMARK    3  A    between atoms: _22  and  _66
REMARK    4  A    between atoms: _27  and  _30
REMARK    5  A    between atoms: _32  and  _33
REMARK    6  A    between atoms: _38  and  _43
REMARK    7  A    between atoms: _43  and  _46
REMARK    8  A    between atoms: _53  and  _55
REMARK                            x       y       z     vdW  Elec       q    Type
REMARK                         _______ _______ _______ _____ _____    ______ ____
ROOT
ATOM     10  C   UNL     1       2.202  50.547  43.676  0.00  0.00    +0.038 A 
ATOM     11  C   UNL     1       2.216  51.243  44.911  0.00  0.00    +0.047 A 
ATOM     12  C   UNL     1       1.220  52.259  45.214  0.00  0.00    +0.035 A 
ATOM     32  C   UNL     1       0.221  52.539  44.237  0.00  0.00    +0.024 A 
ATOM     33  C   UNL     1       0.192  51.841  42.975  0.00  0.00    +0.007 A 
ATOM     34  C   UNL     1       1.174  50.840  42.669  0.00  0.00    -0.029 A 
ATOM     35  C   UNL     1       1.098  50.129  41.298  0.00  0.00    +0.045 C 
ENDROOT
BRANCH  10   9
ATOM      4  C   UNL     1       6.536  49.214  42.104  0.00  0.00    +0.077 A 
ATOM      5  C   UNL     1       6.866  50.551  41.699  0.00  0.00    +0.048 A 
ATOM      6  C   UNL     1       5.889  51.550  41.906  0.00  0.00    +0.116 A 
ATOM      7  N   UNL     1       4.677  51.227  42.476  0.00  0.00    -0.223 NA
ATOM      8  C   UNL     1       4.391  49.928  42.854  0.00  0.00    +0.220 A 
ATOM      9  N   UNL     1       3.182  49.581  43.437  0.00  0.00    -0.283 N 
ATOM     36  H   UNL     1       3.007  48.610  43.695  0.00  0.00    +0.155 HD
ATOM     37  N   UNL     1       5.307  48.954  42.666  0.00  0.00    -0.214 NA
BRANCH   4   3
ATOM      1  C   UNL     1       9.617  46.828  42.444  0.00  0.00    +0.020 A 
ATOM      2  C   UNL     1       8.758  47.976  42.622  0.00  0.00    +0.013 A 
ATOM      3  C   UNL     1       7.465  48.049  41.954  0.00  0.00    +0.019 A 
ATOM     38  C   UNL     1       7.067  46.936  41.106  0.00  0.00    +0.120 A 
ATOM     39  N   UNL     1       7.916  45.844  40.952  0.00  0.00    -0.263 NA
ATOM     40  C   UNL     1       9.163  45.763  41.589  0.00  0.00    +0.111 A 
ENDBRANCH   4   3
ENDBRANCH  10   9
BRANCH  12  13
ATOM     13  N   UNL     1       1.189  53.004  46.449  0.00  0.00    -0.281 N 
ATOM     14  C   UNL     1       0.759  52.573  47.693  0.00  0.00    +0.248 C 
ATOM     30  O   UNL     1       0.131  51.543  47.888  0.00  0.00    -0.270 OA
ATOM     31  H   UNL     1       1.526  53.965  46.399  0.00  0.00    +0.155 HD
BRANCH  14  15
ATOM     15  C   UNL     1       1.055  53.416  48.891  0.00  0.00    +0.037 A 
ATOM     16  C   UNL     1       0.622  53.011  50.231  0.00  0.00    +0.013 A 
ATOM     17  C   UNL     1       0.906  53.851  51.367  0.00  0.00    +0.005 A 
ATOM     18  C   UNL     1       1.630  55.105  51.168  0.00  0.00    -0.033 A 
ATOM     28  C   UNL     1       2.052  55.479  49.829  0.00  0.00    +0.005 A 
ATOM     29  C   UNL     1       1.775  54.659  48.713  0.00  0.00    +0.013 A 
BRANCH  18  19
ATOM     19  C   UNL     1       1.958  56.073  52.320  0.00  0.00    +0.119 C 
BRANCH  19  20
ATOM     20  N   UNL     1       1.438  55.724  53.676  0.00  0.00    -0.302 NA
ATOM     21  C   UNL     1       0.108  56.419  53.978  0.00  0.00    +0.066 C 
ATOM     22  C   UNL     1      -0.432  56.024  55.391  0.00  0.00    -0.064 C 
ATOM     23  N   UNL     1       0.614  56.375  56.450  0.00  0.00    +0.379 N 
ATOM     24  C   UNL     1       0.086  56.058  57.786  0.00  0.00    -0.096 C 
ATOM     25  H   UNL     1       0.785  57.475  56.406  0.00  0.00    -0.082 HD
ATOM     26  C   UNL     1       1.941  55.689  56.156  0.00  0.00    -0.064 C 
ATOM     27  C   UNL     1       2.455  56.065  54.738  0.00  0.00    +0.066 C 
ENDBRANCH  19  20
ENDBRANCH  18  19
ENDBRANCH  14  15
ENDBRANCH  12  13
TORSDOF 6
ENDMDL
MODEL 3
REMARK VINA RESULT:      -8.1      6.512      9.688
REMARK  Name = C:\Users\Docking\Desktop\test protocol\1iep_ligandH.pdb
REMARK  8 active torsions:
REMARK  status: ('A' for Active; 'I' for Inactive)
REMARK    1  A    between atoms: _5  and  _11
REMARK    2  A    between atoms: _19  and  _21
REMARK    3  A    between atoms: _22  and  _66
REMARK    4  A    between atoms: _27  and  _30
REMARK    5  A    between atoms: _32  and  _33
REMARK    6  A    between atoms: _38  and  _43
REMARK    7  A    between atoms: _43  and  _46
REMARK    8  A    between atoms: _53  and  _55
REMARK                            x       y       z     vdW  Elec       q    Type
REMARK                         _______ _______ _______ _____ _____    ______ ____
ROOT
ATOM     10  C   UNL     1      10.666  57.715  63.673  0.00  0.00    +0.038 A 
ATOM     11  C   UNL     1       9.477  56.953  63.539  0.00  0.00    +0.047 A 
ATOM     12  C   UNL     1       9.307  56.010  62.445  0.00  0.00    +0.035 A 
ATOM     32  C   UNL     1      10.370  55.866  61.506  0.00  0.00    +0.024 A 
ATOM     33  C   UNL     1      11.585  56.633  61.627  0.00  0.00    +0.007 A 
ATOM     34  C   UNL     1      11.757  57.567  62.703  0.00  0.00    -0.029 A 
ATOM     35  C   UNL     1      13.078  58.367  62.779  0.00  0.00    +0.045 C 
ENDROOT
BRANCH  10   9
ATOM      4  C   UNL     1      10.218  62.086  65.604  0.00  0.00    +0.077 A 
ATOM      5  C   UNL     1       9.752  62.649  64.370  0.00  0.00    +0.048 A 
ATOM      6  C   UNL     1       9.649  61.781  63.260  0.00  0.00    +0.116 A 
ATOM      7  N   UNL     1       9.988  60.451  63.386  0.00  0.00    -0.223 NA
ATOM      8  C   UNL     1      10.436  59.941  64.591  0.00  0.00    +0.220 A 
ATOM      9  N   UNL     1      10.775  58.606  64.743  0.00  0.00    -0.283 N 
ATOM     36  H   UNL     1      11.109  58.270  65.647  0.00  0.00    +0.155 HD
ATOM     37  N   UNL     1      10.545  60.750  65.666  0.00  0.00    -0.214 NA
BRANCH   4   3
ATOM      1  C   UNL     1      11.499  63.357  69.075  0.00  0.00    +0.020 A 
ATOM      2  C   UNL     1      11.386  62.564  67.873  0.00  0.00    +0.013 A 
ATOM      3  C   UNL     1      10.378  62.875  66.867  0.00  0.00    +0.019 A 
ATOM     38  C   UNL     1       9.494  64.005  67.109  0.00  0.00    +0.120 A 
ATOM     39  N   UNL     1       9.625  64.750  68.277  0.00  0.00    -0.263 NA
ATOM     40  C   UNL     1      10.590  64.459  69.253  0.00  0.00    +0.111 A 
ENDBRANCH   4   3
ENDBRANCH  10   9
BRANCH  12  13
ATOM     13  N   UNL     1       8.120  55.215  62.252  0.00  0.00    -0.281 N 
ATOM     14  C   UNL     1       6.904  55.615  61.721  0.00  0.00    +0.248 C 
ATOM     30  O   UNL     1       6.584  56.778  61.526  0.00  0.00    -0.270 OA
ATOM     31  H   UNL     1       8.183  54.240  62.543  0.00  0.00    +0.155 HD
BRANCH  14  15
ATOM     15  C   UNL     1       5.893  54.573  61.369  0.00  0.00    +0.037 A 
ATOM     16  C   UNL     1       4.532  54.939  60.969  0.00  0.00    +0.013 A 
ATOM     17  C   UNL     1       3.570  53.913  60.651  0.00  0.00    +0.005 A 
ATOM     18  C   UNL     1       3.968  52.510  60.730  0.00  0.00    -0.033 A 
ATOM     28  C   UNL     1       5.327  52.174  61.124  0.00  0.00    +0.005 A 
ATOM     29  C   UNL     1       6.271  53.177  61.438  0.00  0.00    +0.013 A 
BRANCH  18  19
ATOM     19  C   UNL     1       3.003  51.348  60.428  0.00  0.00    +0.119 C 
BRANCH  19  20
ATOM     20  N   UNL     1       3.287  50.035  61.081  0.00  0.00    -0.302 NA
ATOM     21  C   UNL     1       3.411  48.901  60.059  0.00  0.00    +0.066 C 
ATOM     22  C   UNL     1       3.731  47.539  60.757  0.00  0.00    -0.064 C 
ATOM     23  N   UNL     1       2.641  47.227  61.784  0.00  0.00    +0.379 N 
ATOM     24  C   UNL     1       2.908  45.919  62.400  0.00  0.00    -0.096 C 
ATOM     25  H   UNL     1       1.673  47.152  61.236  0.00  0.00    -0.082 HD
ATOM     26  C   UNL     1       2.510  48.351  62.802  0.00  0.00    -0.064 C 
ATOM     27  C   UNL     1       2.221  49.705  62.096  0.00  0.00    +0.066 C 
ENDBRANCH  19  20
ENDBRANCH  18  19
ENDBRANCH  14  15
ENDBRANCH  12  13
TORSDOF 6
ENDMDL
