MODEL 1
REMARK VINA RESULT:      -8.2      0.000      0.000
REMARK  Name = C:\Users\Docking\Desktop\test protocol\1iep_ligandH.pdb
REMARK  8 active torsions:
REMARK  status: ('A' for Active; 'I' for Inactive)
REMARK    1  A    between atoms: _5  and  _11
REMARK    2  A    between atoms: _19  and  _21
REMARK    3  A    between atoms: _22  and  _66
REMARK    4  A    between atoms: _27  and  _30
REMARK    5  A    between atoms: _32  and  _33
REMARK    6  A    between atoms: _38  and  _43
REMARK    7  A    between atoms: _43  and  _46
REMARK    8  A    between atoms: _53  and  _55
REMARK                            x       y       z     vdW  Elec       q    Type
REMARK                         _______ _______ _______ _____ _____    ______ ____
ROOT
ATOM     10  C   UNL     1       4.560  55.453  61.799  0.00  0.00    +0.038 A 
ATOM     11  C   UNL     1       4.082  55.328  60.470  0.00  0.00    +0.047 A 
ATOM     12  C   UNL     1       2.854  54.608  60.176  0.00  0.00    +0.035 A 
ATOM     32  C   UNL     1       2.135  54.028  61.262  0.00  0.00    +0.024 A 
ATOM     33  C   UNL     1       2.607  54.144  62.620  0.00  0.00    +0.007 A 
ATOM     34  C   UNL     1       3.820  54.852  62.915  0.00  0.00    -0.029 A 
ATOM     35  C   UNL     1       4.281  54.939  64.388  0.00  0.00    +0.045 C 
ENDROOT
BRANCH  10   9
ATOM      4  C   UNL     1       9.330  55.659  62.294  0.00  0.00    +0.077 A 
ATOM      5  C   UNL     1       9.469  54.243  62.117  0.00  0.00    +0.048 A 
ATOM      6  C   UNL     1       8.288  53.496  61.909  0.00  0.00    +0.116 A 
ATOM      7  N   UNL     1       7.064  54.129  61.880  0.00  0.00    -0.223 NA
ATOM      8  C   UNL     1       6.965  55.497  62.056  0.00  0.00    +0.220 A 
ATOM      9  N   UNL     1       5.746  56.156  62.024  0.00  0.00    -0.283 N 
ATOM     36  H   UNL     1       5.715  57.166  62.165  0.00  0.00    +0.155 HD
ATOM     37  N   UNL     1       8.079  56.232  62.259  0.00  0.00    -0.214 NA
BRANCH   4   3
ATOM      1  C   UNL     1      12.838  57.375  62.072  0.00  0.00    +0.020 A 
ATOM      2  C   UNL     1      11.754  56.455  61.816  0.00  0.00    +0.013 A 
ATOM      3  C   UNL     1      10.485  56.584  62.521  0.00  0.00    +0.019 A 
ATOM     38  C   UNL     1      10.344  57.665  63.485  0.00  0.00    +0.120 A 
ATOM     39  N   UNL     1      11.406  58.535  63.712  0.00  0.00    -0.263 NA
ATOM     40  C   UNL     1      12.633  58.419  63.041  0.00  0.00    +0.111 A 
ENDBRANCH   4   3
ENDBRANCH  10   9
BRANCH  12  13
ATOM     13  N   UNL     1       2.324  54.441  58.846  0.00  0.00    -0.281 N 
ATOM     14  C   UNL     1       1.378  55.222  58.202  0.00  0.00    +0.248 C 
ATOM     30  O   UNL     1       0.683  56.062  58.755  0.00  0.00    -0.270 OA
ATOM     31  H   UNL     1       2.690  53.652  58.314  0.00  0.00    +0.155 HD
BRANCH  14  15
ATOM     15  C   UNL     1       1.162  55.033  56.735  0.00  0.00    +0.037 A 
ATOM     16  C   UNL     1       0.066  54.204  56.229  0.00  0.00    +0.013 A 
ATOM     17  C   UNL     1      -0.109  54.024  54.810  0.00  0.00    +0.005 A 
ATOM     18  C   UNL     1       0.814  54.678  53.886  0.00  0.00    -0.033 A 
ATOM     28  C   UNL     1       1.890  55.500  54.415  0.00  0.00    +0.005 A 
ATOM     29  C   UNL     1       2.065  55.677  55.806  0.00  0.00    +0.013 A 
BRANCH  18  19
ATOM     19  C   UNL     1       0.716  54.525  52.356  0.00  0.00    +0.119 C 
BRANCH  19  20
ATOM     20  N   UNL     1       0.374  55.746  51.568  0.00  0.00    -0.302 NA
ATOM     21  C   UNL     1      -1.063  55.707  51.041  0.00  0.00    +0.066 C 
ATOM     22  C   UNL     1      -1.411  57.002  50.238  0.00  0.00    -0.064 C 
ATOM     23  N   UNL     1      -0.417  57.167  49.087  0.00  0.00    +0.379 N 
ATOM     24  C   UNL     1      -0.776  58.352  48.294  0.00  0.00    -0.096 C 
ATOM     25  H   UNL     1      -0.515  56.275  48.425  0.00  0.00    -0.082 HD
ATOM     26  C   UNL     1       1.015  57.204  49.601  0.00  0.00    -0.064 C 
ATOM     27  C   UNL     1       1.341  55.926  50.423  0.00  0.00    +0.066 C 
ENDBRANCH  19  20
ENDBRANCH  18  19
ENDBRANCH  14  15
ENDBRANCH  12  13
TORSDOF 6
ENDMDL
MODEL 2
REMARK VINA RESULT:      -8.0      6.264      9.390
REMARK  Name = C:\Users\Docking\Desktop\test protocol\1iep_ligandH.pdb
REMARK  8 active torsions:
REMARK  status: ('A' for Active; 'I' for Inactive)
REMARK    1  A    between atoms: _5  and  _11
REMARK    2  A    between atoms: _19  and  _21
REMARK    3  A    between atoms: _22  and  _66
REMARK    4  A    between atoms: _27  and  _30
REMARK    5  A    between atoms: _32  and  _33
REMARK    6  A    between atoms: _38  and  _43
REMARK    7  A    between atoms: _43  and  _46
REMARK    8  A    between atoms: _53  and  _55
REMARK                            x       y       z     vdW  Elec       q    Type
REMARK                         _______ _______ _______ _____ _____    ______ ____
ROOT
ATOM     10  C   UNL     1      10.524  57.465  63.684  0.00  0.00    +0.038 A 
ATOM     11  C   UNL     1       9.310  56.742  63.560  0.00  0.00    +0.047 A 
ATOM     12  C   UNL     1       9.093  55.821  62.455  0.00  0.00    +0.035 A 
ATOM     32  C   UNL     1      10.135  55.658  61.496  0.00  0.00    +0.024 A 
ATOM     33  C   UNL     1      11.374  56.387  61.606  0.00  0.00    +0.007 A 
ATOM     34  C   UNL     1      11.593  57.299  62.692  0.00  0.00    -0.029 A 
ATOM     35  C   UNL     1      12.939  58.058  62.757  0.00  0.00    +0.045 C 
ENDROOT
BRANCH  10   9
ATOM      4  C   UNL     1      10.171  61.803  65.709  0.00  0.00    +0.077 A 
ATOM      5  C   UNL     1       9.659  62.389  64.503  0.00  0.00    +0.048 A 
ATOM      6  C   UNL     1       9.509  61.541  63.383  0.00  0.00    +0.116 A 
ATOM      7  N   UNL     1       9.847  60.209  63.473  0.00  0.00    -0.223 NA
ATOM      8  C   UNL     1      10.340  59.675  64.650  0.00  0.00    +0.220 A 
ATOM      9  N   UNL     1      10.679  58.336  64.765  0.00  0.00    -0.283 N 
ATOM     36  H   UNL     1      11.046  57.983  65.648  0.00  0.00    +0.155 HD
ATOM     37  N   UNL     1      10.494  60.464  65.733  0.00  0.00    -0.214 NA
BRANCH   4   3
ATOM      1  C   UNL     1      11.614  63.028  69.132  0.00  0.00    +0.020 A 
ATOM      2  C   UNL     1      11.452  62.258  67.920  0.00  0.00    +0.013 A 
ATOM      3  C   UNL     1      10.384  62.567  66.978  0.00  0.00    +0.019 A 
ATOM     38  C   UNL     1       9.490  63.672  67.294  0.00  0.00    +0.120 A 
ATOM     39  N   UNL     1       9.670  64.395  68.469  0.00  0.00    -0.263 NA
ATOM     40  C   UNL     1      10.693  64.105  69.384  0.00  0.00    +0.111 A 
ENDBRANCH   4   3
ENDBRANCH  10   9
BRANCH  12  13
ATOM     13  N   UNL     1       7.879  55.065  62.273  0.00  0.00    -0.281 N 
ATOM     14  C   UNL     1       6.727  55.451  61.607  0.00  0.00    +0.248 C 
ATOM     30  O   UNL     1       6.487  56.595  61.248  0.00  0.00    -0.270 OA
ATOM     31  H   UNL     1       7.867  54.132  62.684  0.00  0.00    +0.155 HD
BRANCH  14  15
ATOM     15  C   UNL     1       5.685  54.422  61.309  0.00  0.00    +0.037 A 
ATOM     16  C   UNL     1       4.359  54.803  60.816  0.00  0.00    +0.013 A 
ATOM     17  C   UNL     1       3.367  53.791  60.553  0.00  0.00    +0.005 A 
ATOM     18  C   UNL     1       3.698  52.387  60.782  0.00  0.00    -0.033 A 
ATOM     28  C   UNL     1       5.023  52.036  61.267  0.00  0.00    +0.005 A 
ATOM     29  C   UNL     1       5.998  53.025  61.527  0.00  0.00    +0.013 A 
BRANCH  18  19
ATOM     19  C   UNL     1       2.695  51.242  60.548  0.00  0.00    +0.119 C 
BRANCH  19  20
ATOM     20  N   UNL     1       3.031  49.908  61.130  0.00  0.00    -0.302 NA
ATOM     21  C   UNL     1       3.351  48.874  60.048  0.00  0.00    +0.066 C 
ATOM     22  C   UNL     1       3.723  47.490  60.675  0.00  0.00    -0.064 C 
ATOM     23  N   UNL     1       2.572  47.010  61.561  0.00  0.00    +0.379 N 
ATOM     24  C   UNL     1       2.894  45.683  62.106  0.00  0.00    -0.096 C 
ATOM     25  H   UNL     1       1.671  46.900  60.914  0.00  0.00    -0.082 HD
ATOM     26  C   UNL     1       2.245  48.034  62.638  0.00  0.00    -0.064 C 
ATOM     27  C   UNL     1       1.906  49.413  62.005  0.00  0.00    +0.066 C 
ENDBRANCH  19  20
ENDBRANCH  18  19
ENDBRANCH  14  15
ENDBRANCH  12  13
TORSDOF 6
ENDMDL
MODEL 3
REMARK VINA RESULT:      -7.9      1.371      1.965
REMARK  Name = C:\Users\Docking\Desktop\test protocol\1iep_ligandH.pdb
REMARK  8 active torsions:
REMARK  status: ('A' for Active; 'I' for Inactive)
REMARK    1  A    between atoms: _5  and  _11
REMARK    2  A    between atoms: _19  and  _21
REMARK    3  A    between atoms: _22  and  _66
REMARK    4  A    between atoms: _27  and  _30
REMARK    5  A    between atoms: _32  and  _33
REMARK    6  A    between atoms: _38  and  _43
REMARK    7  A    between atoms: _43  and  _46
REMARK    8  A    between atoms: _53  and  _55
REMARK                            x       y       z     vdW  Elec       q    Type
REMARK                         _______ _______ _______ _____ _____    ______ ____
ROOT
ATOM     10  C   UNL     1       4.923  55.199  61.955  0.00  0.00    +0.038 A 
ATOM     11  C   UNL     1       4.381  55.330  60.651  0.00  0.00    +0.047 A 
ATOM     12  C   UNL     1       3.231  54.543  60.231  0.00  0.00    +0.035 A 
ATOM     32  C   UNL     1       2.657  53.634  61.166  0.00  0.00    +0.024 A 
ATOM     33  C   UNL     1       3.196  53.487  62.495  0.00  0.00    +0.007 A 
ATOM     34  C   UNL     1       4.331  54.259  62.914  0.00  0.00    -0.029 A 
ATOM     35  C   UNL     1       4.871  54.055  64.349  0.00  0.00    +0.045 C 
ENDROOT
BRANCH  10   9
ATOM      4  C   UNL     1       9.648  55.842  62.502  0.00  0.00    +0.077 A 
ATOM      5  C   UNL     1       9.939  54.502  62.081  0.00  0.00    +0.048 A 
ATOM      6  C   UNL     1       8.844  53.677  61.739  0.00  0.00    +0.116 A 
ATOM      7  N   UNL     1       7.558  54.166  61.816  0.00  0.00    -0.223 NA
ATOM      8  C   UNL     1       7.312  55.463  62.227  0.00  0.00    +0.220 A 
ATOM      9  N   UNL     1       6.027  55.979  62.305  0.00  0.00    -0.283 N 
ATOM     36  H   UNL     1       5.887  56.938  62.620  0.00  0.00    +0.155 HD
ATOM     37  N   UNL     1       8.340  56.271  62.561  0.00  0.00    -0.214 NA
BRANCH   4   3
ATOM      1  C   UNL     1      12.878  58.048  62.521  0.00  0.00    +0.020 A 
ATOM      2  C   UNL     1      11.895  57.077  62.099  0.00  0.00    +0.013 A 
ATOM      3  C   UNL     1      10.697  56.836  62.893  0.00  0.00    +0.019 A 
ATOM     38  C   UNL     1      10.523  57.600  64.119  0.00  0.00    +0.120 A 
ATOM     39  N   UNL     1      11.487  58.528  64.501  0.00  0.00    -0.263 NA
ATOM     40  C   UNL     1      12.644  58.767  63.745  0.00  0.00    +0.111 A 
ENDBRANCH   4   3
ENDBRANCH  10   9
BRANCH  12  13
ATOM     13  N   UNL     1       2.643  54.628  58.917  0.00  0.00    -0.281 N 
ATOM     14  C   UNL     1       1.462  55.254  58.552  0.00  0.00    +0.248 C 
ATOM     30  O   UNL     1       0.620  55.657  59.341  0.00  0.00    -0.270 OA
ATOM     31  H   UNL     1       3.159  54.171  58.166  0.00  0.00    +0.155 HD
BRANCH  14  15
ATOM     15  C   UNL     1       1.168  55.449  57.099  0.00  0.00    +0.037 A 
ATOM     16  C   UNL     1      -0.208  55.452  56.597  0.00  0.00    +0.013 A 
ATOM     17  C   UNL     1      -0.464  55.624  55.189  0.00  0.00    +0.005 A 
ATOM     18  C   UNL     1       0.661  55.798  54.273  0.00  0.00    -0.033 A 
ATOM     28  C   UNL     1       2.016  55.796  54.799  0.00  0.00    +0.005 A 
ATOM     29  C   UNL     1       2.270  55.626  56.178  0.00  0.00    +0.013 A 
BRANCH  18  19
ATOM     19  C   UNL     1       0.484  55.967  52.752  0.00  0.00    +0.119 C 
BRANCH  19  20
ATOM     20  N   UNL     1       0.848  54.806  51.887  0.00  0.00    -0.302 NA
ATOM     21  C   UNL     1       0.939  55.196  50.409  0.00  0.00    +0.066 C 
ATOM     22  C   UNL     1       1.343  53.974  49.522  0.00  0.00    -0.064 C 
ATOM     23  N   UNL     1       0.331  52.844  49.723  0.00  0.00    +0.379 N 
ATOM     24  C   UNL     1       0.676  51.716  48.846  0.00  0.00    -0.096 C 
ATOM     25  H   UNL     1      -0.668  53.225  49.407  0.00  0.00    -0.082 HD
ATOM     26  C   UNL     1       0.233  52.452  51.190  0.00  0.00    -0.064 C 
ATOM     27  C   UNL     1      -0.140  53.680  52.067  0.00  0.00    +0.066 C 
ENDBRANCH  19  20
ENDBRANCH  18  19
ENDBRANCH  14  15
ENDBRANCH  12  13
TORSDOF 6
ENDMDL
