MODEL 1
REMARK VINA RESULT:      -7.2      0.000      0.000
REMARK  Name = C:\Users\Docking\Desktop\test protocol\1iep_ligandH.pdb
REMARK  8 active torsions:
REMARK  status: ('A' for Active; 'I' for Inactive)
REMARK    1  A    between atoms: _5  and  _11
REMARK    2  A    between atoms: _19  and  _21
REMARK    3  A    between atoms: _22  and  _66
REMARK    4  A    between atoms: _27  and  _30
REMARK    5  A    between atoms: _32  and  _33
REMARK    6  A    between atoms: _38  and  _43
REMARK    7  A    between atoms: _43  and  _46
REMARK    8  A    between atoms: _53  and  _55
REMARK                            x       y       z     vdW  Elec       q    Type
REMARK                         _______ _______ _______ _____ _____    ______ ____
ROOT
ATOM     10  C   UNL     1      10.173   8.788  15.715  0.00  0.00    +0.038 A 
ATOM     11  C   UNL     1       9.656   9.018  14.414  0.00  0.00    +0.047 A 
ATOM     12  C   UNL     1       9.694  10.341  13.813  0.00  0.00    +0.035 A 
ATOM     32  C   UNL     1      10.268  11.408  14.563  0.00  0.00    +0.024 A 
ATOM     33  C   UNL     1      10.797  11.193  15.887  0.00  0.00    +0.007 A 
ATOM     34  C   UNL     1      10.760   9.889  16.487  0.00  0.00    -0.029 A 
ATOM     35  C   UNL     1      11.336   9.718  17.912  0.00  0.00    +0.045 C 
ENDROOT
BRANCH  10   9
ATOM      4  C   UNL     1       8.041   5.394  18.357  0.00  0.00    +0.077 A 
ATOM      5  C   UNL     1       6.976   6.276  18.737  0.00  0.00    +0.048 A 
ATOM      6  C   UNL     1       7.017   7.597  18.237  0.00  0.00    +0.116 A 
ATOM      7  N   UNL     1       8.051   7.995  17.418  0.00  0.00    -0.223 NA
ATOM      8  C   UNL     1       9.064   7.120  17.072  0.00  0.00    +0.220 A 
ATOM      9  N   UNL     1      10.110   7.497  16.244  0.00  0.00    -0.283 N 
ATOM     36  H   UNL     1      10.842   6.823  16.018  0.00  0.00    +0.155 HD
ATOM     37  N   UNL     1       9.048   5.854  17.538  0.00  0.00    -0.214 NA
BRANCH   4   3
ATOM      1  C   UNL     1       8.159   1.484  18.358  0.00  0.00    +0.020 A 
ATOM      2  C   UNL     1       8.061   2.843  17.877  0.00  0.00    +0.013 A 
ATOM      3  C   UNL     1       8.136   3.968  18.801  0.00  0.00    +0.019 A 
ATOM     38  C   UNL     1       8.312   3.681  20.217  0.00  0.00    +0.120 A 
ATOM     39  N   UNL     1       8.401   2.362  20.651  0.00  0.00    -0.263 NA
ATOM     40  C   UNL     1       8.329   1.272  19.771  0.00  0.00    +0.111 A 
ENDBRANCH   4   3
ENDBRANCH  10   9
BRANCH  12  13
ATOM     13  N   UNL     1       9.177  10.637  12.499  0.00  0.00    -0.281 N 
ATOM     14  C   UNL     1       9.699  10.256  11.274  0.00  0.00    +0.248 C 
ATOM     30  O   UNL     1      10.813   9.780  11.114  0.00  0.00    -0.270 OA
ATOM     31  H   UNL     1       8.324  11.195  12.469  0.00  0.00    +0.155 HD
BRANCH  14  15
ATOM     15  C   UNL     1       8.868  10.443  10.046  0.00  0.00    +0.037 A 
ATOM     16  C   UNL     1       7.425  10.682  10.134  0.00  0.00    +0.013 A 
ATOM     17  C   UNL     1       6.643  10.842   8.933  0.00  0.00    +0.005 A 
ATOM     18  C   UNL     1       7.305  10.766   7.633  0.00  0.00    -0.033 A 
ATOM     28  C   UNL     1       8.739  10.534   7.574  0.00  0.00    +0.005 A 
ATOM     29  C   UNL     1       9.507  10.375   8.749  0.00  0.00    +0.013 A 
BRANCH  18  19
ATOM     19  C   UNL     1       6.547  10.905   6.299  0.00  0.00    +0.119 C 
BRANCH  19  20
ATOM     20  N   UNL     1       5.147  11.422   6.359  0.00  0.00    -0.302 NA
ATOM     21  C   UNL     1       4.297  10.914   5.191  0.00  0.00    +0.066 C 
ATOM     22  C   UNL     1       2.830  11.446   5.281  0.00  0.00    -0.064 C 
ATOM     23  N   UNL     1       2.846  12.975   5.315  0.00  0.00    +0.379 N 
ATOM     24  C   UNL     1       1.465  13.480   5.342  0.00  0.00    -0.096 C 
ATOM     25  H   UNL     1       3.317  13.329   4.369  0.00  0.00    -0.082 HD
ATOM     26  C   UNL     1       3.691  13.488   6.472  0.00  0.00    -0.064 C 
ATOM     27  C   UNL     1       5.139  12.930   6.389  0.00  0.00    +0.066 C 
ENDBRANCH  19  20
ENDBRANCH  18  19
ENDBRANCH  14  15
ENDBRANCH  12  13
TORSDOF 6
ENDMDL
MODEL 2
REMARK VINA RESULT:      -7.1      1.924      2.694
REMARK  Name = C:\Users\Docking\Desktop\test protocol\1iep_ligandH.pdb
REMARK  8 active torsions:
REMARK  status: ('A' for Active; 'I' for Inactive)
REMARK    1  A    between atoms: _5  and  _11
REMARK    2  A    between atoms: _19  and  _21
REMARK    3  A    between atoms: _22  and  _66
REMARK    4  A    between atoms: _27  and  _30
REMARK    5  A    between atoms: _32  and  _33
REMARK    6  A    between atoms: _38  and  _43
REMARK    7  A    between atoms: _43  and  _46
REMARK    8  A    between atoms: _53  and  _55
REMARK                            x       y       z     vdW  Elec       q    Type
REMARK                         _______ _______ _______ _____ _____    ______ ____
ROOT
ATOM     10  C   UNL     1      10.120   8.750  15.811  0.00  0.00    +0.038 A 
ATOM     11  C   UNL     1       9.665   8.998  14.491  0.00  0.00    +0.047 A 
ATOM     12  C   UNL     1       9.771  10.320  13.894  0.00  0.00    +0.035 A 
ATOM     32  C   UNL     1      10.349  11.367  14.670  0.00  0.00    +0.024 A 
ATOM     33  C   UNL     1      10.815  11.133  16.014  0.00  0.00    +0.007 A 
ATOM     34  C   UNL     1      10.711   9.831  16.609  0.00  0.00    -0.029 A 
ATOM     35  C   UNL     1      11.222   9.640  18.056  0.00  0.00    +0.045 C 
ENDROOT
BRANCH  10   9
ATOM      4  C   UNL     1       7.809   5.448  18.417  0.00  0.00    +0.077 A 
ATOM      5  C   UNL     1       6.780   6.376  18.789  0.00  0.00    +0.048 A 
ATOM      6  C   UNL     1       6.886   7.695  18.295  0.00  0.00    +0.116 A 
ATOM      7  N   UNL     1       7.947   8.049  17.489  0.00  0.00    -0.223 NA
ATOM      8  C   UNL     1       8.923   7.130  17.150  0.00  0.00    +0.220 A 
ATOM      9  N   UNL     1       9.994   7.461  16.335  0.00  0.00    -0.283 N 
ATOM     36  H   UNL     1      10.697   6.756  16.114  0.00  0.00    +0.155 HD
ATOM     37  N   UNL     1       8.845   5.864  17.611  0.00  0.00    -0.214 NA
BRANCH   4   3
ATOM      1  C   UNL     1       8.399   1.582  18.516  0.00  0.00    +0.020 A 
ATOM      2  C   UNL     1       8.399   2.948  18.044  0.00  0.00    +0.013 A 
ATOM      3  C   UNL     1       7.834   4.017  18.857  0.00  0.00    +0.019 A 
ATOM     38  C   UNL     1       7.273   3.668  20.154  0.00  0.00    +0.120 A 
ATOM     39  N   UNL     1       7.286   2.344  20.581  0.00  0.00    -0.263 NA
ATOM     40  C   UNL     1       7.826   1.307  19.806  0.00  0.00    +0.111 A 
ENDBRANCH   4   3
ENDBRANCH  10   9
BRANCH  12  13
ATOM     13  N   UNL     1       9.320  10.633  12.561  0.00  0.00    -0.281 N 
ATOM     14  C   UNL     1       9.983  10.418  11.364  0.00  0.00    +0.248 C 
ATOM     30  O   UNL     1      11.164  10.117  11.273  0.00  0.00    -0.270 OA
ATOM     31  H   UNL     1       8.398  11.066  12.491  0.00  0.00    +0.155 HD
BRANCH  14  15
ATOM     15  C   UNL     1       9.230  10.574  10.083  0.00  0.00    +0.037 A 
ATOM     16  C   UNL     1       7.766  10.559  10.055  0.00  0.00    +0.013 A 
ATOM     17  C   UNL     1       7.064  10.694   8.803  0.00  0.00    +0.005 A 
ATOM     18  C   UNL     1       7.828  10.848   7.567  0.00  0.00    -0.033 A 
ATOM     28  C   UNL     1       9.280  10.865   7.624  0.00  0.00    +0.005 A 
ATOM     29  C   UNL     1       9.971  10.731   8.849  0.00  0.00    +0.013 A 
BRANCH  18  19
ATOM     19  C   UNL     1       7.163  10.978   6.184  0.00  0.00    +0.119 C 
BRANCH  19  20
ATOM     20  N   UNL     1       8.023  11.439   5.053  0.00  0.00    -0.302 NA
ATOM     21  C   UNL     1       7.332  12.512   4.207  0.00  0.00    +0.066 C 
ATOM     22  C   UNL     1       8.254  12.999   3.042  0.00  0.00    -0.064 C 
ATOM     23  N   UNL     1       8.654  11.802   2.178  0.00  0.00    +0.379 N 
ATOM     24  C   UNL     1       9.473  12.265   1.048  0.00  0.00    -0.096 C 
ATOM     25  H   UNL     1       7.720  11.360   1.759  0.00  0.00    -0.082 HD
ATOM     26  C   UNL     1       9.339  10.729   3.012  0.00  0.00    -0.064 C 
ATOM     27  C   UNL     1       8.426  10.273   4.184  0.00  0.00    +0.066 C 
ENDBRANCH  19  20
ENDBRANCH  18  19
ENDBRANCH  14  15
ENDBRANCH  12  13
TORSDOF 6
ENDMDL
MODEL 3
REMARK VINA RESULT:      -7.1      1.968     12.177
REMARK  Name = C:\Users\Docking\Desktop\test protocol\1iep_ligandH.pdb
REMARK  8 active torsions:
REMARK  status: ('A' for Active; 'I' for Inactive)
REMARK    1  A    between atoms: _5  and  _11
REMARK    2  A    between atoms: _19  and  _21
REMARK    3  A    between atoms: _22  and  _66
REMARK    4  A    between atoms: _27  and  _30
REMARK    5  A    between atoms: _32  and  _33
REMARK    6  A    between atoms: _38  and  _43
REMARK    7  A    between atoms: _43  and  _46
REMARK    8  A    between atoms: _53  and  _55
REMARK                            x       y       z     vdW  Elec       q    Type
REMARK                         _______ _______ _______ _____ _____    ______ ____
ROOT
ATOM     10  C   UNL     1       9.480  10.478   8.703  0.00  0.00    +0.038 A 
ATOM     11  C   UNL     1       9.258   9.965  10.007  0.00  0.00    +0.047 A 
ATOM     12  C   UNL     1      10.183  10.245  11.094  0.00  0.00    +0.035 A 
ATOM     32  C   UNL     1      11.324  11.054  10.818  0.00  0.00    +0.024 A 
ATOM     33  C   UNL     1      11.566  11.583   9.499  0.00  0.00    +0.007 A 
ATOM     34  C   UNL     1      10.658  11.307   8.422  0.00  0.00    -0.029 A 
ATOM     35  C   UNL     1      10.970  11.895   7.026  0.00  0.00    +0.045 C 
ENDROOT
BRANCH  10   9
ATOM      4  C   UNL     1       5.471  11.388   6.225  0.00  0.00    +0.077 A 
ATOM      5  C   UNL     1       5.173  12.545   7.020  0.00  0.00    +0.048 A 
ATOM      6  C   UNL     1       6.072  12.867   8.061  0.00  0.00    +0.116 A 
ATOM      7  N   UNL     1       7.184  12.084   8.281  0.00  0.00    -0.223 NA
ATOM      8  C   UNL     1       7.442  10.974   7.498  0.00  0.00    +0.220 A 
ATOM      9  N   UNL     1       8.559  10.177   7.697  0.00  0.00    -0.283 N 
ATOM     36  H   UNL     1       8.710   9.363   7.103  0.00  0.00    +0.155 HD
ATOM     37  N   UNL     1       6.598  10.644   6.499  0.00  0.00    -0.214 NA
BRANCH   4   3
ATOM      1  C   UNL     1       2.457  10.044   4.125  0.00  0.00    +0.020 A 
ATOM      2  C   UNL     1       3.238  10.486   5.258  0.00  0.00    +0.013 A 
ATOM      3  C   UNL     1       4.619  10.920   5.087  0.00  0.00    +0.019 A 
ATOM     38  C   UNL     1       5.184  10.895   3.747  0.00  0.00    +0.120 A 
ATOM     39  N   UNL     1       4.409  10.463   2.675  0.00  0.00    -0.263 NA
ATOM     40  C   UNL     1       3.080  10.041   2.827  0.00  0.00    +0.111 A 
ENDBRANCH   4   3
ENDBRANCH  10   9
BRANCH  12  13
ATOM     13  N   UNL     1      10.014   9.745  12.436  0.00  0.00    -0.281 N 
ATOM     14  C   UNL     1       9.976  10.469  13.616  0.00  0.00    +0.248 C 
ATOM     30  O   UNL     1      10.298  11.644  13.716  0.00  0.00    -0.270 OA
ATOM     31  H   UNL     1       9.909   8.734  12.526  0.00  0.00    +0.155 HD
BRANCH  14  15
ATOM     15  C   UNL     1       9.531   9.786  14.868  0.00  0.00    +0.037 A 
ATOM     16  C   UNL     1       9.681   8.339  15.039  0.00  0.00    +0.013 A 
ATOM     17  C   UNL     1       9.227   7.702  16.250  0.00  0.00    +0.005 A 
ATOM     18  C   UNL     1       8.619   8.515  17.302  0.00  0.00    -0.033 A 
ATOM     28  C   UNL     1       8.487   9.949  17.108  0.00  0.00    +0.005 A 
ATOM     29  C   UNL     1       8.930  10.576  15.922  0.00  0.00    +0.013 A 
BRANCH  18  19
ATOM     19  C   UNL     1       8.087   7.918  18.618  0.00  0.00    +0.119 C 
BRANCH  19  20
ATOM     20  N   UNL     1       7.520   6.537  18.562  0.00  0.00    -0.302 NA
ATOM     21  C   UNL     1       5.988   6.546  18.560  0.00  0.00    +0.066 C 
ATOM     22  C   UNL     1       5.411   5.095  18.479  0.00  0.00    -0.064 C 
ATOM     23  N   UNL     1       5.946   4.270  19.650  0.00  0.00    +0.379 N 
ATOM     24  C   UNL     1       5.360   2.922  19.610  0.00  0.00    -0.096 C 
ATOM     25  H   UNL     1       5.605   4.760  20.592  0.00  0.00    -0.082 HD
ATOM     26  C   UNL     1       7.468   4.259  19.662  0.00  0.00    -0.064 C 
ATOM     27  C   UNL     1       8.032   5.706  19.713  0.00  0.00    +0.066 C 
ENDBRANCH  19  20
ENDBRANCH  18  19
ENDBRANCH  14  15
ENDBRANCH  12  13
TORSDOF 6
ENDMDL
MODEL 4
REMARK VINA RESULT:      -7.1      1.488      1.993
REMARK  Name = C:\Users\Docking\Desktop\test protocol\1iep_ligandH.pdb
REMARK  8 active torsions:
REMARK  status: ('A' for Active; 'I' for Inactive)
REMARK    1  A    between atoms: _5  and  _11
REMARK    2  A    between atoms: _19  and  _21
REMARK    3  A    between atoms: _22  and  _66
REMARK    4  A    between atoms: _27  and  _30
REMARK    5  A    between atoms: _32  and  _33
REMARK    6  A    between atoms: _38  and  _43
REMARK    7  A    between atoms: _43  and  _46
REMARK    8  A    between atoms: _53  and  _55
REMARK                            x       y       z     vdW  Elec       q    Type
REMARK                         _______ _______ _______ _____ _____    ______ ____
ROOT
ATOM     10  C   UNL     1      10.267   7.791  16.988  0.00  0.00    +0.038 A 
ATOM     11  C   UNL     1       9.833   8.018  15.656  0.00  0.00    +0.047 A 
ATOM     12  C   UNL     1       9.869   9.348  15.070  0.00  0.00    +0.035 A 
ATOM     32  C   UNL     1      10.355  10.425  15.867  0.00  0.00    +0.024 A 
ATOM     33  C   UNL     1      10.799  10.213  17.222  0.00  0.00    +0.007 A 
ATOM     34  C   UNL     1      10.764   8.903  17.807  0.00  0.00    -0.029 A 
ATOM     35  C   UNL     1      11.247   8.735  19.266  0.00  0.00    +0.045 C 
ENDROOT
BRANCH  10   9
ATOM      4  C   UNL     1       7.875   4.093  18.896  0.00  0.00    +0.077 A 
ATOM      5  C   UNL     1       6.637   4.818  18.896  0.00  0.00    +0.048 A 
ATOM      6  C   UNL     1       6.660   6.142  18.404  0.00  0.00    +0.116 A 
ATOM      7  N   UNL     1       7.839   6.690  17.947  0.00  0.00    -0.223 NA
ATOM      8  C   UNL     1       9.016   5.965  17.962  0.00  0.00    +0.220 A 
ATOM      9  N   UNL     1      10.212   6.493  17.500  0.00  0.00    -0.283 N 
ATOM     36  H   UNL     1      11.060   5.928  17.535  0.00  0.00    +0.155 HD
ATOM     37  N   UNL     1       9.021   4.699  18.429  0.00  0.00    -0.214 NA
BRANCH   4   3
ATOM      1  C   UNL     1       7.063   0.530  20.289  0.00  0.00    +0.020 A 
ATOM      2  C   UNL     1       6.877   1.887  19.830  0.00  0.00    +0.013 A 
ATOM      3  C   UNL     1       8.012   2.684  19.382  0.00  0.00    +0.019 A 
ATOM     38  C   UNL     1       9.332   2.073  19.412  0.00  0.00    +0.120 A 
ATOM     39  N   UNL     1       9.481   0.765  19.861  0.00  0.00    -0.263 NA
ATOM     40  C   UNL     1       8.397  -0.011  20.296  0.00  0.00    +0.111 A 
ENDBRANCH   4   3
ENDBRANCH  10   9
BRANCH  12  13
ATOM     13  N   UNL     1       9.434   9.641  13.726  0.00  0.00    -0.281 N 
ATOM     14  C   UNL     1       9.993  10.531  12.825  0.00  0.00    +0.248 C 
ATOM     30  O   UNL     1      10.831  11.373  13.114  0.00  0.00    -0.270 OA
ATOM     31  H   UNL     1       8.613   9.129  13.401  0.00  0.00    +0.155 HD
BRANCH  14  15
ATOM     15  C   UNL     1       9.548  10.490  11.399  0.00  0.00    +0.037 A 
ATOM     16  C   UNL     1       8.570  11.450  10.880  0.00  0.00    +0.013 A 
ATOM     17  C   UNL     1       8.144  11.377   9.505  0.00  0.00    +0.005 A 
ATOM     18  C   UNL     1       8.699  10.341   8.637  0.00  0.00    -0.033 A 
ATOM     28  C   UNL     1       9.672   9.405   9.176  0.00  0.00    +0.005 A 
ATOM     29  C   UNL     1      10.090   9.472  10.524  0.00  0.00    +0.013 A 
BRANCH  18  19
ATOM     19  C   UNL     1       8.287  10.176   7.162  0.00  0.00    +0.119 C 
BRANCH  19  20
ATOM     20  N   UNL     1       7.296  11.150   6.616  0.00  0.00    -0.302 NA
ATOM     21  C   UNL     1       5.853  10.681   6.826  0.00  0.00    +0.066 C 
ATOM     22  C   UNL     1       4.829  11.723   6.269  0.00  0.00    -0.064 C 
ATOM     23  N   UNL     1       5.109  11.966   4.785  0.00  0.00    +0.379 N 
ATOM     24  C   UNL     1       4.112  12.901   4.244  0.00  0.00    -0.096 C 
ATOM     25  H   UNL     1       4.985  10.994   4.254  0.00  0.00    -0.082 HD
ATOM     26  C   UNL     1       6.542  12.430   4.567  0.00  0.00    -0.064 C 
ATOM     27  C   UNL     1       7.551  11.402   5.151  0.00  0.00    +0.066 C 
ENDBRANCH  19  20
ENDBRANCH  18  19
ENDBRANCH  14  15
ENDBRANCH  12  13
TORSDOF 6
ENDMDL
MODEL 5
REMARK VINA RESULT:      -7.1      2.867      3.917
REMARK  Name = C:\Users\Docking\Desktop\test protocol\1iep_ligandH.pdb
REMARK  8 active torsions:
REMARK  status: ('A' for Active; 'I' for Inactive)
REMARK    1  A    between atoms: _5  and  _11
REMARK    2  A    between atoms: _19  and  _21
REMARK    3  A    between atoms: _22  and  _66
REMARK    4  A    between atoms: _27  and  _30
REMARK    5  A    between atoms: _32  and  _33
REMARK    6  A    between atoms: _38  and  _43
REMARK    7  A    between atoms: _43  and  _46
REMARK    8  A    between atoms: _53  and  _55
REMARK                            x       y       z     vdW  Elec       q    Type
REMARK                         _______ _______ _______ _____ _____    ______ ____
ROOT
ATOM     10  C   UNL     1      10.523   7.567  17.817  0.00  0.00    +0.038 A 
ATOM     11  C   UNL     1      10.419   7.931  16.450  0.00  0.00    +0.047 A 
ATOM     12  C   UNL     1       9.546   9.013  16.024  0.00  0.00    +0.035 A 
ATOM     32  C   UNL     1       8.794   9.706  17.018  0.00  0.00    +0.024 A 
ATOM     33  C   UNL     1       8.886   9.348  18.411  0.00  0.00    +0.007 A 
ATOM     34  C   UNL     1       9.745   8.280  18.837  0.00  0.00    -0.029 A 
ATOM     35  C   UNL     1       9.800   7.935  20.344  0.00  0.00    +0.045 C 
ENDROOT
BRANCH  10   9
ATOM      4  C   UNL     1      11.377   2.944  18.787  0.00  0.00    +0.077 A 
ATOM      5  C   UNL     1       9.999   2.590  18.600  0.00  0.00    +0.048 A 
ATOM      6  C   UNL     1       9.102   3.628  18.262  0.00  0.00    +0.116 A 
ATOM      7  N   UNL     1       9.559   4.920  18.124  0.00  0.00    -0.223 NA
ATOM      8  C   UNL     1      10.894   5.228  18.312  0.00  0.00    +0.220 A 
ATOM      9  N   UNL     1      11.377   6.520  18.170  0.00  0.00    -0.283 N 
ATOM     36  H   UNL     1      12.367   6.708  18.325  0.00  0.00    +0.155 HD
ATOM     37  N   UNL     1      11.771   4.255  18.637  0.00  0.00    -0.214 NA
BRANCH   4   3
ATOM      1  C   UNL     1      14.822   1.115  19.071  0.00  0.00    +0.020 A 
ATOM      2  C   UNL     1      13.828   2.095  18.699  0.00  0.00    +0.013 A 
ATOM      3  C   UNL     1      12.446   1.959  19.143  0.00  0.00    +0.019 A 
ATOM     38  C   UNL     1      12.101   0.813  19.970  0.00  0.00    +0.120 A 
ATOM     39  N   UNL     1      13.080  -0.115  20.312  0.00  0.00    -0.263 NA
ATOM     40  C   UNL     1      14.413   0.004  19.889  0.00  0.00    +0.111 A 
ENDBRANCH   4   3
ENDBRANCH  10   9
BRANCH  12  13
ATOM     13  N   UNL     1       9.393   9.422  14.650  0.00  0.00    -0.281 N 
ATOM     14  C   UNL     1       9.955  10.521  14.021  0.00  0.00    +0.248 C 
ATOM     30  O   UNL     1      10.507  11.443  14.603  0.00  0.00    -0.270 OA
ATOM     31  H   UNL     1       8.798   8.830  14.070  0.00  0.00    +0.155 HD
BRANCH  14  15
ATOM     15  C   UNL     1       9.881  10.616  12.531  0.00  0.00    +0.037 A 
ATOM     16  C   UNL     1       9.696   9.423  11.702  0.00  0.00    +0.013 A 
ATOM     17  C   UNL     1       9.646   9.541  10.266  0.00  0.00    +0.005 A 
ATOM     18  C   UNL     1       9.779  10.859   9.650  0.00  0.00    -0.033 A 
ATOM     28  C   UNL     1       9.956  12.027  10.497  0.00  0.00    +0.005 A 
ATOM     29  C   UNL     1      10.007  11.915  11.905  0.00  0.00    +0.013 A 
BRANCH  18  19
ATOM     19  C   UNL     1       9.758  11.076   8.126  0.00  0.00    +0.119 C 
BRANCH  19  20
ATOM     20  N   UNL     1       8.448  11.433   7.504  0.00  0.00    -0.302 NA
ATOM     21  C   UNL     1       7.263  10.917   8.325  0.00  0.00    +0.066 C 
ATOM     22  C   UNL     1       5.900  11.319   7.672  0.00  0.00    -0.064 C 
ATOM     23  N   UNL     1       5.844  10.779   6.242  0.00  0.00    +0.379 N 
ATOM     24  C   UNL     1       4.540  11.105   5.645  0.00  0.00    -0.096 C 
ATOM     25  H   UNL     1       5.923   9.668   6.297  0.00  0.00    -0.082 HD
ATOM     26  C   UNL     1       7.020  11.285   5.419  0.00  0.00    -0.064 C 
ATOM     27  C   UNL     1       8.369  10.906   6.092  0.00  0.00    +0.066 C 
ENDBRANCH  19  20
ENDBRANCH  18  19
ENDBRANCH  14  15
ENDBRANCH  12  13
TORSDOF 6
ENDMDL
