MODEL 1
REMARK VINA RESULT:      -6.2      0.000      0.000
REMARK  Name = C:\Users\Docking\Desktop\test protocol\1iep_ligandH.pdb
REMARK  8 active torsions:
REMARK  status: ('A' for Active; 'I' for Inactive)
REMARK    1  A    between atoms: _5  and  _11
REMARK    2  A    between atoms: _19  and  _21
REMARK    3  A    between atoms: _22  and  _66
REMARK    4  A    between atoms: _27  and  _30
REMARK    5  A    between atoms: _32  and  _33
REMARK    6  A    between atoms: _38  and  _43
REMARK    7  A    between atoms: _43  and  _46
REMARK    8  A    between atoms: _53  and  _55
REMARK                            x       y       z     vdW  Elec       q    Type
REMARK                         _______ _______ _______ _____ _____    ______ ____
ROOT
ATOM     10  C   UNL     1      19.190  13.713  12.567  0.00  0.00    +0.038 A 
ATOM     11  C   UNL     1      17.798  13.545  12.353  0.00  0.00    +0.047 A 
ATOM     12  C   UNL     1      17.230  13.598  11.015  0.00  0.00    +0.035 A 
ATOM     32  C   UNL     1      18.110  13.821   9.916  0.00  0.00    +0.024 A 
ATOM     33  C   UNL     1      19.527  13.995  10.115  0.00  0.00    +0.007 A 
ATOM     34  C   UNL     1      20.093  13.946  11.433  0.00  0.00    -0.029 A 
ATOM     35  C   UNL     1      21.619  14.146  11.587  0.00  0.00    +0.045 C 
ENDROOT
BRANCH  10   9
ATOM      4  C   UNL     1      20.428  15.771  16.722  0.00  0.00    +0.077 A 
ATOM      5  C   UNL     1      20.092  17.080  16.242  0.00  0.00    +0.048 A 
ATOM      6  C   UNL     1      19.611  17.182  14.917  0.00  0.00    +0.116 A 
ATOM      7  N   UNL     1      19.479  16.052  14.140  0.00  0.00    -0.223 NA
ATOM      8  C   UNL     1      19.814  14.804  14.634  0.00  0.00    +0.220 A 
ATOM      9  N   UNL     1      19.682  13.653  13.873  0.00  0.00    -0.283 N 
ATOM     36  H   UNL     1      19.946  12.752  14.271  0.00  0.00    +0.155 HD
ATOM     37  N   UNL     1      20.277  14.681  15.895  0.00  0.00    -0.214 NA
BRANCH   4   3
ATOM      1  C   UNL     1      22.752  15.552  19.861  0.00  0.00    +0.020 A 
ATOM      2  C   UNL     1      22.302  15.834  18.517  0.00  0.00    +0.013 A 
ATOM      3  C   UNL     1      20.946  15.501  18.101  0.00  0.00    +0.019 A 
ATOM     38  C   UNL     1      20.063  14.879  19.076  0.00  0.00    +0.120 A 
ATOM     39  N   UNL     1      20.525  14.618  20.362  0.00  0.00    -0.263 NA
ATOM     40  C   UNL     1      21.828  14.933  20.774  0.00  0.00    +0.111 A 
ENDBRANCH   4   3
ENDBRANCH  10   9
BRANCH  12  13
ATOM     13  N   UNL     1      15.824  13.442  10.738  0.00  0.00    -0.281 N 
ATOM     14  C   UNL     1      15.148  12.285  10.386  0.00  0.00    +0.248 C 
ATOM     30  O   UNL     1      15.690  11.244  10.047  0.00  0.00    -0.270 OA
ATOM     31  H   UNL     1      15.258  14.288  10.810  0.00  0.00    +0.155 HD
BRANCH  14  15
ATOM     15  C   UNL     1      13.653  12.289  10.400  0.00  0.00    +0.037 A 
ATOM     16  C   UNL     1      12.890  11.039  10.415  0.00  0.00    +0.013 A 
ATOM     17  C   UNL     1      11.449  11.071  10.410  0.00  0.00    +0.005 A 
ATOM     18  C   UNL     1      10.761  12.360  10.393  0.00  0.00    -0.033 A 
ATOM     28  C   UNL     1      11.543  13.586  10.384  0.00  0.00    +0.005 A 
ATOM     29  C   UNL     1      12.956  13.558  10.387  0.00  0.00    +0.013 A 
BRANCH  18  19
ATOM     19  C   UNL     1       9.227  12.490  10.366  0.00  0.00    +0.119 C 
BRANCH  19  20
ATOM     20  N   UNL     1       8.445  11.529  11.200  0.00  0.00    -0.302 NA
ATOM     21  C   UNL     1       7.230  10.974  10.450  0.00  0.00    +0.066 C 
ATOM     22  C   UNL     1       6.437   9.953  11.329  0.00  0.00    -0.064 C 
ATOM     23  N   UNL     1       6.006  10.632  12.631  0.00  0.00    +0.379 N 
ATOM     24  C   UNL     1       5.210   9.692  13.434  0.00  0.00    -0.096 C 
ATOM     25  H   UNL     1       5.348  11.490  12.363  0.00  0.00    -0.082 HD
ATOM     26  C   UNL     1       7.208  11.189  13.381  0.00  0.00    -0.064 C 
ATOM     27  C   UNL     1       8.006  12.179  12.488  0.00  0.00    +0.066 C 
ENDBRANCH  19  20
ENDBRANCH  18  19
ENDBRANCH  14  15
ENDBRANCH  12  13
TORSDOF 6
ENDMDL
MODEL 2
REMARK VINA RESULT:      -6.1     16.849     20.943
REMARK  Name = C:\Users\Docking\Desktop\test protocol\1iep_ligandH.pdb
REMARK  8 active torsions:
REMARK  status: ('A' for Active; 'I' for Inactive)
REMARK    1  A    between atoms: _5  and  _11
REMARK    2  A    between atoms: _19  and  _21
REMARK    3  A    between atoms: _22  and  _66
REMARK    4  A    between atoms: _27  and  _30
REMARK    5  A    between atoms: _32  and  _33
REMARK    6  A    between atoms: _38  and  _43
REMARK    7  A    between atoms: _43  and  _46
REMARK    8  A    between atoms: _53  and  _55
REMARK                            x       y       z     vdW  Elec       q    Type
REMARK                         _______ _______ _______ _____ _____    ______ ____
ROOT
ATOM     10  C   UNL     1      14.196  30.250  13.076  0.00  0.00    +0.038 A 
ATOM     11  C   UNL     1      14.534  30.410  14.444  0.00  0.00    +0.047 A 
ATOM     12  C   UNL     1      15.868  30.828  14.846  0.00  0.00    +0.035 A 
ATOM     32  C   UNL     1      16.834  31.076  13.827  0.00  0.00    +0.024 A 
ATOM     33  C   UNL     1      16.508  30.918  12.432  0.00  0.00    +0.007 A 
ATOM     34  C   UNL     1      15.194  30.503  12.030  0.00  0.00    -0.029 A 
ATOM     35  C   UNL     1      14.903  30.343  10.519  0.00  0.00    +0.045 C 
ENDROOT
BRANCH  10   9
ATOM      4  C   UNL     1       9.609  31.193  12.027  0.00  0.00    +0.077 A 
ATOM      5  C   UNL     1       9.804  32.607  12.173  0.00  0.00    +0.048 A 
ATOM      6  C   UNL     1      11.099  33.050  12.526  0.00  0.00    +0.116 A 
ATOM      7  N   UNL     1      12.114  32.138  12.716  0.00  0.00    -0.223 NA
ATOM      8  C   UNL     1      11.892  30.781  12.568  0.00  0.00    +0.220 A 
ATOM      9  N   UNL     1      12.900  29.847  12.747  0.00  0.00    -0.283 N 
ATOM     36  H   UNL     1      12.694  28.854  12.636  0.00  0.00    +0.155 HD
ATOM     37  N   UNL     1      10.664  30.333  12.233  0.00  0.00    -0.214 NA
BRANCH   4   3
ATOM      1  C   UNL     1       6.843  29.150  10.163  0.00  0.00    +0.020 A 
ATOM      2  C   UNL     1       8.129  29.727  10.478  0.00  0.00    +0.013 A 
ATOM      3  C   UNL     1       8.299  30.571  11.654  0.00  0.00    +0.019 A 
ATOM     38  C   UNL     1       7.138  30.812  12.498  0.00  0.00    +0.120 A 
ATOM     39  N   UNL     1       5.912  30.244  12.168  0.00  0.00    -0.263 NA
ATOM     40  C   UNL     1       5.736  29.432  11.038  0.00  0.00    +0.111 A 
ENDBRANCH   4   3
ENDBRANCH  10   9
BRANCH  12  13
ATOM     13  N   UNL     1      16.271  30.999  16.220  0.00  0.00    -0.281 N 
ATOM     14  C   UNL     1      15.808  31.932  17.133  0.00  0.00    +0.248 C 
ATOM     30  O   UNL     1      15.126  32.904  16.843  0.00  0.00    -0.270 OA
ATOM     31  H   UNL     1      16.985  30.355  16.560  0.00  0.00    +0.155 HD
BRANCH  14  15
ATOM     15  C   UNL     1      16.166  31.770  18.575  0.00  0.00    +0.037 A 
ATOM     16  C   UNL     1      17.552  31.547  18.994  0.00  0.00    +0.013 A 
ATOM     17  C   UNL     1      17.867  31.377  20.390  0.00  0.00    +0.005 A 
ATOM     18  C   UNL     1      16.793  31.431  21.379  0.00  0.00    -0.033 A 
ATOM     28  C   UNL     1      15.428  31.659  20.936  0.00  0.00    +0.005 A 
ATOM     29  C   UNL     1      15.114  31.825  19.568  0.00  0.00    +0.013 A 
BRANCH  18  19
ATOM     19  C   UNL     1      17.035  31.239  22.888  0.00  0.00    +0.119 C 
BRANCH  19  20
ATOM     20  N   UNL     1      16.817  29.871  23.446  0.00  0.00    -0.302 NA
ATOM     21  C   UNL     1      16.624  29.895  24.965  0.00  0.00    +0.066 C 
ATOM     22  C   UNL     1      16.375  28.459  25.530  0.00  0.00    -0.064 C 
ATOM     23  N   UNL     1      17.546  27.553  25.147  0.00  0.00    +0.379 N 
ATOM     24  C   UNL     1      17.343  26.217  25.726  0.00  0.00    -0.096 C 
ATOM     25  H   UNL     1      18.469  27.982  25.603  0.00  0.00    -0.082 HD
ATOM     26  C   UNL     1      17.747  27.525  23.639  0.00  0.00    -0.064 C 
ATOM     27  C   UNL     1      17.964  28.961  23.084  0.00  0.00    +0.066 C 
ENDBRANCH  19  20
ENDBRANCH  18  19
ENDBRANCH  14  15
ENDBRANCH  12  13
TORSDOF 6
ENDMDL
MODEL 3
REMARK VINA RESULT:      -6.1      8.870     14.011
REMARK  Name = C:\Users\Docking\Desktop\test protocol\1iep_ligandH.pdb
REMARK  8 active torsions:
REMARK  status: ('A' for Active; 'I' for Inactive)
REMARK    1  A    between atoms: _5  and  _11
REMARK    2  A    between atoms: _19  and  _21
REMARK    3  A    between atoms: _22  and  _66
REMARK    4  A    between atoms: _27  and  _30
REMARK    5  A    between atoms: _32  and  _33
REMARK    6  A    between atoms: _38  and  _43
REMARK    7  A    between atoms: _43  and  _46
REMARK    8  A    between atoms: _53  and  _55
REMARK                            x       y       z     vdW  Elec       q    Type
REMARK                         _______ _______ _______ _____ _____    ______ ____
ROOT
ATOM     10  C   UNL     1      17.569   7.483  23.724  0.00  0.00    +0.038 A 
ATOM     11  C   UNL     1      17.967   8.649  23.020  0.00  0.00    +0.047 A 
ATOM     12  C   UNL     1      19.030   8.603  22.028  0.00  0.00    +0.035 A 
ATOM     32  C   UNL     1      19.665   7.352  21.776  0.00  0.00    +0.024 A 
ATOM     33  C   UNL     1      19.274   6.157  22.483  0.00  0.00    +0.007 A 
ATOM     34  C   UNL     1      18.228   6.197  23.465  0.00  0.00    -0.029 A 
ATOM     35  C   UNL     1      17.854   4.887  24.197  0.00  0.00    +0.045 C 
ENDROOT
BRANCH  10   9
ATOM      4  C   UNL     1      12.994   6.944  25.073  0.00  0.00    +0.077 A 
ATOM      5  C   UNL     1      12.612   6.442  23.784  0.00  0.00    +0.048 A 
ATOM      6  C   UNL     1      13.621   6.346  22.800  0.00  0.00    +0.116 A 
ATOM      7  N   UNL     1      14.913   6.724  23.094  0.00  0.00    -0.223 NA
ATOM      8  C   UNL     1      15.248   7.205  24.346  0.00  0.00    +0.220 A 
ATOM      9  N   UNL     1      16.542   7.585  24.666  0.00  0.00    -0.283 N 
ATOM     36  H   UNL     1      16.748   7.942  25.598  0.00  0.00    +0.155 HD
ATOM     37  N   UNL     1      14.302   7.309  25.303  0.00  0.00    -0.214 NA
BRANCH   4   3
ATOM      1  C   UNL     1       9.730   7.064  27.224  0.00  0.00    +0.020 A 
ATOM      2  C   UNL     1      10.605   6.899  26.087  0.00  0.00    +0.013 A 
ATOM      3  C   UNL     1      12.043   7.102  26.218  0.00  0.00    +0.019 A 
ATOM     38  C   UNL     1      12.567   7.472  27.524  0.00  0.00    +0.120 A 
ATOM     39  N   UNL     1      11.699   7.625  28.601  0.00  0.00    -0.263 NA
ATOM     40  C   UNL     1      10.314   7.435  28.487  0.00  0.00    +0.111 A 
ENDBRANCH   4   3
ENDBRANCH  10   9
BRANCH  12  13
ATOM     13  N   UNL     1      19.482   9.755  21.288  0.00  0.00    -0.281 N 
ATOM     14  C   UNL     1      20.582  10.556  21.548  0.00  0.00    +0.248 C 
ATOM     30  O   UNL     1      21.226  10.530  22.586  0.00  0.00    -0.270 OA
ATOM     31  H   UNL     1      18.923  10.011  20.474  0.00  0.00    +0.155 HD
BRANCH  14  15
ATOM     15  C   UNL     1      21.021  11.537  20.510  0.00  0.00    +0.037 A 
ATOM     16  C   UNL     1      20.780  12.973  20.672  0.00  0.00    +0.013 A 
ATOM     17  C   UNL     1      21.199  13.897  19.647  0.00  0.00    +0.005 A 
ATOM     18  C   UNL     1      21.866  13.386  18.452  0.00  0.00    -0.033 A 
ATOM     28  C   UNL     1      22.098  11.958  18.320  0.00  0.00    +0.005 A 
ATOM     29  C   UNL     1      21.687  11.049  19.321  0.00  0.00    +0.013 A 
BRANCH  18  19
ATOM     19  C   UNL     1      22.328  14.297  17.299  0.00  0.00    +0.119 C 
BRANCH  19  20
ATOM     20  N   UNL     1      21.267  14.915  16.449  0.00  0.00    -0.302 NA
ATOM     21  C   UNL     1      20.928  16.339  16.899  0.00  0.00    +0.066 C 
ATOM     22  C   UNL     1      19.833  16.980  15.985  0.00  0.00    -0.064 C 
ATOM     23  N   UNL     1      18.584  16.096  15.995  0.00  0.00    +0.379 N 
ATOM     24  C   UNL     1      17.532  16.725  15.183  0.00  0.00    -0.096 C 
ATOM     25  H   UNL     1      18.215  16.045  17.046  0.00  0.00    -0.082 HD
ATOM     26  C   UNL     1      18.913  14.678  15.552  0.00  0.00    -0.064 C 
ATOM     27  C   UNL     1      20.023  14.062  16.448  0.00  0.00    +0.066 C 
ENDBRANCH  19  20
ENDBRANCH  18  19
ENDBRANCH  14  15
ENDBRANCH  12  13
TORSDOF 6
ENDMDL
MODEL 4
REMARK VINA RESULT:      -6.1     18.644     22.259
REMARK  Name = C:\Users\Docking\Desktop\test protocol\1iep_ligandH.pdb
REMARK  8 active torsions:
REMARK  status: ('A' for Active; 'I' for Inactive)
REMARK    1  A    between atoms: _5  and  _11
REMARK    2  A    between atoms: _19  and  _21
REMARK    3  A    between atoms: _22  and  _66
REMARK    4  A    between atoms: _27  and  _30
REMARK    5  A    between atoms: _32  and  _33
REMARK    6  A    between atoms: _38  and  _43
REMARK    7  A    between atoms: _43  and  _46
REMARK    8  A    between atoms: _53  and  _55
REMARK                            x       y       z     vdW  Elec       q    Type
REMARK                         _______ _______ _______ _____ _____    ______ ____
ROOT
ATOM     10  C   UNL     1       3.736  17.207  30.313  0.00  0.00    +0.038 A 
ATOM     11  C   UNL     1       3.453  18.290  29.441  0.00  0.00    +0.047 A 
ATOM     12  C   UNL     1       3.005  19.574  29.957  0.00  0.00    +0.035 A 
ATOM     32  C   UNL     1       2.859  19.721  31.368  0.00  0.00    +0.024 A 
ATOM     33  C   UNL     1       3.142  18.631  32.268  0.00  0.00    +0.007 A 
ATOM     34  C   UNL     1       3.582  17.361  31.764  0.00  0.00    -0.029 A 
ATOM     35  C   UNL     1       3.864  16.226  32.775  0.00  0.00    +0.045 C 
ENDROOT
BRANCH  10   9
ATOM      4  C   UNL     1       2.971  13.212  27.764  0.00  0.00    +0.077 A 
ATOM      5  C   UNL     1       1.597  13.554  27.531  0.00  0.00    +0.048 A 
ATOM      6  C   UNL     1       1.125  14.762  28.090  0.00  0.00    +0.116 A 
ATOM      7  N   UNL     1       1.972  15.562  28.826  0.00  0.00    -0.223 NA
ATOM      8  C   UNL     1       3.291  15.203  29.033  0.00  0.00    +0.220 A 
ATOM      9  N   UNL     1       4.163  15.996  29.763  0.00  0.00    -0.283 N 
ATOM     36  H   UNL     1       5.127  15.692  29.900  0.00  0.00    +0.155 HD
ATOM     37  N   UNL     1       3.766  14.053  28.511  0.00  0.00    -0.214 NA
BRANCH   4   3
ATOM      1  C   UNL     1       3.916  10.171  25.493  0.00  0.00    +0.020 A 
ATOM      2  C   UNL     1       3.259  11.372  25.957  0.00  0.00    +0.013 A 
ATOM      3  C   UNL     1       3.619  11.970  27.236  0.00  0.00    +0.019 A 
ATOM     38  C   UNL     1       4.655  11.324  28.028  0.00  0.00    +0.120 A 
ATOM     39  N   UNL     1       5.268  10.168  27.556  0.00  0.00    -0.263 NA
ATOM     40  C   UNL     1       4.930   9.582  26.327  0.00  0.00    +0.111 A 
ENDBRANCH   4   3
ENDBRANCH  10   9
BRANCH  12  13
ATOM     13  N   UNL     1       2.695  20.706  29.121  0.00  0.00    -0.281 N 
ATOM     14  C   UNL     1       3.578  21.581  28.509  0.00  0.00    +0.248 C 
ATOM     30  O   UNL     1       4.772  21.648  28.764  0.00  0.00    -0.270 OA
ATOM     31  H   UNL     1       1.704  20.885  28.960  0.00  0.00    +0.155 HD
BRANCH  14  15
ATOM     15  C   UNL     1       3.059  22.526  27.475  0.00  0.00    +0.037 A 
ATOM     16  C   UNL     1       2.249  23.689  27.847  0.00  0.00    +0.013 A 
ATOM     17  C   UNL     1       1.746  24.576  26.828  0.00  0.00    +0.005 A 
ATOM     18  C   UNL     1       2.053  24.303  25.426  0.00  0.00    -0.033 A 
ATOM     28  C   UNL     1       2.862  23.145  25.085  0.00  0.00    +0.005 A 
ATOM     29  C   UNL     1       3.356  22.273  26.081  0.00  0.00    +0.013 A 
BRANCH  18  19
ATOM     19  C   UNL     1       1.540  25.183  24.271  0.00  0.00    +0.119 C 
BRANCH  19  20
ATOM     20  N   UNL     1       2.089  26.568  24.171  0.00  0.00    -0.302 NA
ATOM     21  C   UNL     1       1.696  27.249  22.856  0.00  0.00    +0.066 C 
ATOM     22  C   UNL     1       2.261  28.705  22.778  0.00  0.00    -0.064 C 
ATOM     23  N   UNL     1       3.782  28.668  22.936  0.00  0.00    +0.379 N 
ATOM     24  C   UNL     1       4.321  30.030  22.805  0.00  0.00    -0.096 C 
ATOM     25  H   UNL     1       4.194  28.059  22.098  0.00  0.00    -0.082 HD
ATOM     26  C   UNL     1       4.181  27.991  24.239  0.00  0.00    -0.064 C 
ATOM     27  C   UNL     1       3.591  26.555  24.319  0.00  0.00    +0.066 C 
ENDBRANCH  19  20
ENDBRANCH  18  19
ENDBRANCH  14  15
ENDBRANCH  12  13
TORSDOF 6
ENDMDL
MODEL 5
REMARK VINA RESULT:      -6.0      6.716     11.693
REMARK  Name = C:\Users\Docking\Desktop\test protocol\1iep_ligandH.pdb
REMARK  8 active torsions:
REMARK  status: ('A' for Active; 'I' for Inactive)
REMARK    1  A    between atoms: _5  and  _11
REMARK    2  A    between atoms: _19  and  _21
REMARK    3  A    between atoms: _22  and  _66
REMARK    4  A    between atoms: _27  and  _30
REMARK    5  A    between atoms: _32  and  _33
REMARK    6  A    between atoms: _38  and  _43
REMARK    7  A    between atoms: _43  and  _46
REMARK    8  A    between atoms: _53  and  _55
REMARK                            x       y       z     vdW  Elec       q    Type
REMARK                         _______ _______ _______ _____ _____    ______ ____
ROOT
ATOM     10  C   UNL     1      21.044  13.090  17.561  0.00  0.00    +0.038 A 
ATOM     11  C   UNL     1      20.371  12.164  18.399  0.00  0.00    +0.047 A 
ATOM     12  C   UNL     1      20.684  12.067  19.816  0.00  0.00    +0.035 A 
ATOM     32  C   UNL     1      21.686  12.931  20.348  0.00  0.00    +0.024 A 
ATOM     33  C   UNL     1      22.380  13.877  19.510  0.00  0.00    +0.007 A 
ATOM     34  C   UNL     1      22.078  13.976  18.111  0.00  0.00    -0.029 A 
ATOM     35  C   UNL     1      22.858  15.004  17.259  0.00  0.00    +0.045 C 
ENDROOT
BRANCH  10   9
ATOM      4  C   UNL     1      18.358  14.714  13.930  0.00  0.00    +0.077 A 
ATOM      5  C   UNL     1      17.546  15.508  14.807  0.00  0.00    +0.048 A 
ATOM      6  C   UNL     1      17.849  15.465  16.186  0.00  0.00    +0.116 A 
ATOM      7  N   UNL     1      18.887  14.683  16.643  0.00  0.00    -0.223 NA
ATOM      8  C   UNL     1      19.649  13.928  15.770  0.00  0.00    +0.220 A 
ATOM      9  N   UNL     1      20.704  13.141  16.207  0.00  0.00    -0.283 N 
ATOM     36  H   UNL     1      21.237  12.593  15.532  0.00  0.00    +0.155 HD
ATOM     37  N   UNL     1      19.380  13.951  14.449  0.00  0.00    -0.214 NA
BRANCH   4   3
ATOM      1  C   UNL     1      18.245  15.676  10.140  0.00  0.00    +0.020 A 
ATOM      2  C   UNL     1      18.448  15.783  11.566  0.00  0.00    +0.013 A 
ATOM      3  C   UNL     1      18.165  14.657  12.446  0.00  0.00    +0.019 A 
ATOM     38  C   UNL     1      17.674  13.425  11.846  0.00  0.00    +0.120 A 
ATOM     39  N   UNL     1      17.486  13.351  10.469  0.00  0.00    -0.263 NA
ATOM     40  C   UNL     1      17.754  14.430   9.613  0.00  0.00    +0.111 A 
ENDBRANCH   4   3
ENDBRANCH  10   9
BRANCH  12  13
ATOM     13  N   UNL     1      20.040  11.141  20.714  0.00  0.00    -0.281 N 
ATOM     14  C   UNL     1      20.626  10.133  21.462  0.00  0.00    +0.248 C 
ATOM     30  O   UNL     1      21.771   9.734  21.307  0.00  0.00    -0.270 OA
ATOM     31  H   UNL     1      19.030  11.241  20.811  0.00  0.00    +0.155 HD
BRANCH  14  15
ATOM     15  C   UNL     1      19.820   9.460  22.525  0.00  0.00    +0.037 A 
ATOM     16  C   UNL     1      20.202   9.544  23.937  0.00  0.00    +0.013 A 
ATOM     17  C   UNL     1      19.416   8.871  24.940  0.00  0.00    +0.005 A 
ATOM     18  C   UNL     1      18.237   8.109  24.535  0.00  0.00    -0.033 A 
ATOM     28  C   UNL     1      17.878   8.047  23.128  0.00  0.00    +0.005 A 
ATOM     29  C   UNL     1      18.646   8.704  22.141  0.00  0.00    +0.013 A 
BRANCH  18  19
ATOM     19  C   UNL     1      17.352   7.343  25.535  0.00  0.00    +0.119 C 
BRANCH  19  20
ATOM     20  N   UNL     1      15.884   7.613  25.496  0.00  0.00    -0.302 NA
ATOM     21  C   UNL     1      15.403   8.356  26.745  0.00  0.00    +0.066 C 
ATOM     22  C   UNL     1      13.869   8.650  26.677  0.00  0.00    -0.064 C 
ATOM     23  N   UNL     1      13.107   7.335  26.502  0.00  0.00    +0.379 N 
ATOM     24  C   UNL     1      11.662   7.602  26.496  0.00  0.00    -0.096 C 
ATOM     25  H   UNL     1      13.329   6.695  27.388  0.00  0.00    -0.082 HD
ATOM     26  C   UNL     1      13.582   6.588  25.263  0.00  0.00    -0.064 C 
ATOM     27  C   UNL     1      15.112   6.327  25.328  0.00  0.00    +0.066 C 
ENDBRANCH  19  20
ENDBRANCH  18  19
ENDBRANCH  14  15
ENDBRANCH  12  13
TORSDOF 6
ENDMDL
