MODEL 1
REMARK VINA RESULT:      -9.0      0.000      0.000
REMARK  Name = C:\Users\Docking\Desktop\test protocol\1iep_ligandH.pdb
REMARK  8 active torsions:
REMARK  status: ('A' for Active; 'I' for Inactive)
REMARK    1  A    between atoms: _5  and  _11
REMARK    2  A    between atoms: _19  and  _21
REMARK    3  A    between atoms: _22  and  _66
REMARK    4  A    between atoms: _27  and  _30
REMARK    5  A    between atoms: _32  and  _33
REMARK    6  A    between atoms: _38  and  _43
REMARK    7  A    between atoms: _43  and  _46
REMARK    8  A    between atoms: _53  and  _55
REMARK                            x       y       z     vdW  Elec       q    Type
REMARK                         _______ _______ _______ _____ _____    ______ ____
ROOT
ATOM     10  C   UNL     1      71.780   9.932  33.606  0.00  0.00    +0.038 A 
ATOM     11  C   UNL     1      71.082  10.079  32.380  0.00  0.00    +0.047 A 
ATOM     12  C   UNL     1      71.742  10.613  31.199  0.00  0.00    +0.035 A 
ATOM     32  C   UNL     1      73.114  10.985  31.301  0.00  0.00    +0.024 A 
ATOM     33  C   UNL     1      73.838  10.842  32.539  0.00  0.00    +0.007 A 
ATOM     34  C   UNL     1      73.192  10.319  33.709  0.00  0.00    -0.029 A 
ATOM     35  C   UNL     1      74.016  10.194  35.012  0.00  0.00    +0.045 C 
ENDROOT
BRANCH  10   9
ATOM      4  C   UNL     1      69.938   6.273  36.108  0.00  0.00    +0.077 A 
ATOM      5  C   UNL     1      70.346   5.315  35.120  0.00  0.00    +0.048 A 
ATOM      6  C   UNL     1      71.021   5.806  33.980  0.00  0.00    +0.116 A 
ATOM      7  N   UNL     1      71.265   7.156  33.848  0.00  0.00    -0.223 NA
ATOM      8  C   UNL     1      70.856   8.053  34.818  0.00  0.00    +0.220 A 
ATOM      9  N   UNL     1      71.098   9.414  34.709  0.00  0.00    -0.283 N 
ATOM     36  H   UNL     1      70.773  10.044  35.443  0.00  0.00    +0.155 HD
ATOM     37  N   UNL     1      70.209   7.609  35.915  0.00  0.00    -0.214 NA
BRANCH   4   3
ATOM      1  C   UNL     1      68.993   4.611  39.520  0.00  0.00    +0.020 A 
ATOM      2  C   UNL     1      69.728   4.926  38.316  0.00  0.00    +0.013 A 
ATOM      3  C   UNL     1      69.218   5.909  37.369  0.00  0.00    +0.019 A 
ATOM     38  C   UNL     1      67.953   6.561  37.671  0.00  0.00    +0.120 A 
ATOM     39  N   UNL     1      67.267   6.236  38.838  0.00  0.00    -0.263 NA
ATOM     40  C   UNL     1      67.747   5.291  39.756  0.00  0.00    +0.111 A 
ENDBRANCH   4   3
ENDBRANCH  10   9
BRANCH  12  13
ATOM     13  N   UNL     1      71.083  10.793  29.929  0.00  0.00    -0.281 N 
ATOM     14  C   UNL     1      70.959   9.878  28.896  0.00  0.00    +0.248 C 
ATOM     30  O   UNL     1      71.585   8.831  28.822  0.00  0.00    -0.270 OA
ATOM     31  H   UNL     1      70.655  11.706  29.772  0.00  0.00    +0.155 HD
BRANCH  14  15
ATOM     15  C   UNL     1      70.014  10.176  27.777  0.00  0.00    +0.037 A 
ATOM     16  C   UNL     1      69.673   9.159  26.779  0.00  0.00    +0.013 A 
ATOM     17  C   UNL     1      68.773   9.477  25.700  0.00  0.00    +0.005 A 
ATOM     18  C   UNL     1      68.205  10.821  25.614  0.00  0.00    -0.033 A 
ATOM     28  C   UNL     1      68.556  11.809  26.620  0.00  0.00    +0.005 A 
ATOM     29  C   UNL     1      69.439  11.501  27.679  0.00  0.00    +0.013 A 
BRANCH  18  19
ATOM     19  C   UNL     1      67.252  11.255  24.485  0.00  0.00    +0.119 C 
BRANCH  19  20
ATOM     20  N   UNL     1      66.150  10.315  24.120  0.00  0.00    -0.302 NA
ATOM     21  C   UNL     1      65.308  10.841  22.955  0.00  0.00    +0.066 C 
ATOM     22  C   UNL     1      64.174   9.835  22.572  0.00  0.00    -0.064 C 
ATOM     23  N   UNL     1      63.297   9.569  23.797  0.00  0.00    +0.379 N 
ATOM     24  C   UNL     1      62.196   8.669  23.425  0.00  0.00    -0.096 C 
ATOM     25  H   UNL     1      62.849  10.541  24.109  0.00  0.00    -0.082 HD
ATOM     26  C   UNL     1      64.127   9.048  24.961  0.00  0.00    -0.064 C 
ATOM     27  C   UNL     1      65.269  10.042  25.314  0.00  0.00    +0.066 C 
ENDBRANCH  19  20
ENDBRANCH  18  19
ENDBRANCH  14  15
ENDBRANCH  12  13
TORSDOF 6
ENDMDL
MODEL 2
REMARK VINA RESULT:      -8.0     21.023     23.123
REMARK  Name = C:\Users\Docking\Desktop\test protocol\1iep_ligandH.pdb
REMARK  8 active torsions:
REMARK  status: ('A' for Active; 'I' for Inactive)
REMARK    1  A    between atoms: _5  and  _11
REMARK    2  A    between atoms: _19  and  _21
REMARK    3  A    between atoms: _22  and  _66
REMARK    4  A    between atoms: _27  and  _30
REMARK    5  A    between atoms: _32  and  _33
REMARK    6  A    between atoms: _38  and  _43
REMARK    7  A    between atoms: _43  and  _46
REMARK    8  A    between atoms: _53  and  _55
REMARK                            x       y       z     vdW  Elec       q    Type
REMARK                         _______ _______ _______ _____ _____    ______ ____
ROOT
ATOM     10  C   UNL     1      55.023  21.238  46.404  0.00  0.00    +0.038 A 
ATOM     11  C   UNL     1      55.318  21.672  45.087  0.00  0.00    +0.047 A 
ATOM     12  C   UNL     1      56.443  22.554  44.819  0.00  0.00    +0.035 A 
ATOM     32  C   UNL     1      57.248  22.975  45.917  0.00  0.00    +0.024 A 
ATOM     33  C   UNL     1      56.961  22.545  47.263  0.00  0.00    +0.007 A 
ATOM     34  C   UNL     1      55.852  21.676  47.534  0.00  0.00    -0.029 A 
ATOM     35  C   UNL     1      55.588  21.253  48.997  0.00  0.00    +0.045 C 
ENDROOT
BRANCH  10   9
ATOM      4  C   UNL     1      53.056  16.871  46.715  0.00  0.00    +0.077 A 
ATOM      5  C   UNL     1      54.304  16.224  46.429  0.00  0.00    +0.048 A 
ATOM      6  C   UNL     1      55.426  17.051  46.201  0.00  0.00    +0.116 A 
ATOM      7  N   UNL     1      55.299  18.422  46.258  0.00  0.00    -0.223 NA
ATOM      8  C   UNL     1      54.080  19.014  46.534  0.00  0.00    +0.220 A 
ATOM      9  N   UNL     1      53.931  20.391  46.604  0.00  0.00    -0.283 N 
ATOM     36  H   UNL     1      53.013  20.789  46.804  0.00  0.00    +0.155 HD
ATOM     37  N   UNL     1      52.993  18.246  46.755  0.00  0.00    -0.214 NA
BRANCH   4   3
ATOM      1  C   UNL     1      50.180  14.222  46.595  0.00  0.00    +0.020 A 
ATOM      2  C   UNL     1      51.424  14.896  46.301  0.00  0.00    +0.013 A 
ATOM      3  C   UNL     1      51.781  16.134  46.982  0.00  0.00    +0.019 A 
ATOM     38  C   UNL     1      50.850  16.668  47.965  0.00  0.00    +0.120 A 
ATOM     39  N   UNL     1      49.658  15.998  48.227  0.00  0.00    -0.263 NA
ATOM     40  C   UNL     1      49.304  14.807  47.576  0.00  0.00    +0.111 A 
ENDBRANCH   4   3
ENDBRANCH  10   9
BRANCH  12  13
ATOM     13  N   UNL     1      56.786  23.033  43.503  0.00  0.00    -0.281 N 
ATOM     14  C   UNL     1      56.986  22.290  42.351  0.00  0.00    +0.248 C 
ATOM     30  O   UNL     1      57.109  21.074  42.326  0.00  0.00    -0.270 OA
ATOM     31  H   UNL     1      56.895  24.043  43.409  0.00  0.00    +0.155 HD
BRANCH  14  15
ATOM     15  C   UNL     1      57.076  23.001  41.039  0.00  0.00    +0.037 A 
ATOM     16  C   UNL     1      57.301  22.267  39.791  0.00  0.00    +0.013 A 
ATOM     17  C   UNL     1      57.401  22.979  38.542  0.00  0.00    +0.005 A 
ATOM     18  C   UNL     1      57.274  24.434  38.535  0.00  0.00    -0.033 A 
ATOM     28  C   UNL     1      57.045  25.136  39.786  0.00  0.00    +0.005 A 
ATOM     29  C   UNL     1      56.948  24.442  41.013  0.00  0.00    +0.013 A 
BRANCH  18  19
ATOM     19  C   UNL     1      57.388  25.277  37.251  0.00  0.00    +0.119 C 
BRANCH  19  20
ATOM     20  N   UNL     1      57.790  26.707  37.405  0.00  0.00    -0.302 NA
ATOM     21  C   UNL     1      56.994  27.631  36.478  0.00  0.00    +0.066 C 
ATOM     22  C   UNL     1      57.412  29.125  36.669  0.00  0.00    -0.064 C 
ATOM     23  N   UNL     1      58.914  29.268  36.417  0.00  0.00    +0.379 N 
ATOM     24  C   UNL     1      59.300  30.682  36.539  0.00  0.00    -0.096 C 
ATOM     25  H   UNL     1      59.112  28.953  35.367  0.00  0.00    -0.082 HD
ATOM     26  C   UNL     1      59.713  28.351  37.333  0.00  0.00    -0.064 C 
ATOM     27  C   UNL     1      59.269  26.872  37.156  0.00  0.00    +0.066 C 
ENDBRANCH  19  20
ENDBRANCH  18  19
ENDBRANCH  14  15
ENDBRANCH  12  13
TORSDOF 6
ENDMDL
MODEL 3
REMARK VINA RESULT:      -7.9     28.191     31.239
REMARK  Name = C:\Users\Docking\Desktop\test protocol\1iep_ligandH.pdb
REMARK  8 active torsions:
REMARK  status: ('A' for Active; 'I' for Inactive)
REMARK    1  A    between atoms: _5  and  _11
REMARK    2  A    between atoms: _19  and  _21
REMARK    3  A    between atoms: _22  and  _66
REMARK    4  A    between atoms: _27  and  _30
REMARK    5  A    between atoms: _32  and  _33
REMARK    6  A    between atoms: _38  and  _43
REMARK    7  A    between atoms: _43  and  _46
REMARK    8  A    between atoms: _53  and  _55
REMARK                            x       y       z     vdW  Elec       q    Type
REMARK                         _______ _______ _______ _____ _____    ______ ____
ROOT
ATOM     10  C   UNL     1      51.298   3.802  55.057  0.00  0.00    +0.038 A 
ATOM     11  C   UNL     1      52.312   4.775  55.250  0.00  0.00    +0.047 A 
ATOM     12  C   UNL     1      51.997   6.195  55.277  0.00  0.00    +0.035 A 
ATOM     32  C   UNL     1      50.637   6.589  55.107  0.00  0.00    +0.024 A 
ATOM     33  C   UNL     1      49.594   5.613  54.908  0.00  0.00    +0.007 A 
ATOM     34  C   UNL     1      49.899   4.211  54.878  0.00  0.00    -0.029 A 
ATOM     35  C   UNL     1      48.742   3.210  54.656  0.00  0.00    +0.045 C 
ENDROOT
BRANCH  10   9
ATOM      4  C   UNL     1      52.233  -0.357  57.263  0.00  0.00    +0.077 A 
ATOM      5  C   UNL     1      52.013   0.214  58.561  0.00  0.00    +0.048 A 
ATOM      6  C   UNL     1      51.669   1.583  58.617  0.00  0.00    +0.116 A 
ATOM      7  N   UNL     1      51.554   2.317  57.456  0.00  0.00    -0.223 NA
ATOM      8  C   UNL     1      51.774   1.736  56.221  0.00  0.00    +0.220 A 
ATOM      9  N   UNL     1      51.657   2.453  55.040  0.00  0.00    -0.283 N 
ATOM     36  H   UNL     1      51.834   1.989  54.149  0.00  0.00    +0.155 HD
ATOM     37  N   UNL     1      52.106   0.430  56.140  0.00  0.00    -0.214 NA
BRANCH   4   3
ATOM      1  C   UNL     1      53.990  -3.843  57.508  0.00  0.00    +0.020 A 
ATOM      2  C   UNL     1      53.676  -2.456  57.762  0.00  0.00    +0.013 A 
ATOM      3  C   UNL     1      52.600  -1.791  57.038  0.00  0.00    +0.019 A 
ATOM     38  C   UNL     1      51.853  -2.565  56.058  0.00  0.00    +0.120 A 
ATOM     39  N   UNL     1      52.179  -3.899  55.833  0.00  0.00    -0.263 NA
ATOM     40  C   UNL     1      53.215  -4.548  56.522  0.00  0.00    +0.111 A 
ENDBRANCH   4   3
ENDBRANCH  10   9
BRANCH  12  13
ATOM     13  N   UNL     1      52.985   7.229  55.461  0.00  0.00    -0.281 N 
ATOM     14  C   UNL     1      53.907   7.352  56.488  0.00  0.00    +0.248 C 
ATOM     30  O   UNL     1      53.880   6.704  57.523  0.00  0.00    -0.270 OA
ATOM     31  H   UNL     1      53.007   7.958  54.749  0.00  0.00    +0.155 HD
BRANCH  14  15
ATOM     15  C   UNL     1      55.011   8.351  56.350  0.00  0.00    +0.037 A 
ATOM     16  C   UNL     1      54.746   9.790  56.420  0.00  0.00    +0.013 A 
ATOM     17  C   UNL     1      55.826  10.732  56.268  0.00  0.00    +0.005 A 
ATOM     18  C   UNL     1      57.183  10.237  56.045  0.00  0.00    -0.033 A 
ATOM     28  C   UNL     1      57.417   8.804  55.985  0.00  0.00    +0.005 A 
ATOM     29  C   UNL     1      56.361   7.877  56.133  0.00  0.00    +0.013 A 
BRANCH  18  19
ATOM     19  C   UNL     1      58.392  11.170  55.850  0.00  0.00    +0.119 C 
BRANCH  19  20
ATOM     20  N   UNL     1      58.319  12.524  56.476  0.00  0.00    -0.302 NA
ATOM     21  C   UNL     1      59.562  13.366  56.171  0.00  0.00    +0.066 C 
ATOM     22  C   UNL     1      59.458  14.787  56.814  0.00  0.00    -0.064 C 
ATOM     23  N   UNL     1      59.256  14.647  58.324  0.00  0.00    +0.379 N 
ATOM     24  C   UNL     1      59.217  15.982  58.939  0.00  0.00    -0.096 C 
ATOM     25  H   UNL     1      60.143  14.111  58.735  0.00  0.00    -0.082 HD
ATOM     26  C   UNL     1      58.024  13.809  58.636  0.00  0.00    -0.064 C 
ATOM     27  C   UNL     1      58.124  12.409  57.968  0.00  0.00    +0.066 C 
ENDBRANCH  19  20
ENDBRANCH  18  19
ENDBRANCH  14  15
ENDBRANCH  12  13
TORSDOF 6
ENDMDL
