MODEL 1
REMARK VINA RESULT:      -8.2      0.000      0.000
REMARK  Name = C:\Users\Docking\Desktop\test protocol\1iep_ligandH.pdb
REMARK  8 active torsions:
REMARK  status: ('A' for Active; 'I' for Inactive)
REMARK    1  A    between atoms: _5  and  _11
REMARK    2  A    between atoms: _19  and  _21
REMARK    3  A    between atoms: _22  and  _66
REMARK    4  A    between atoms: _27  and  _30
REMARK    5  A    between atoms: _32  and  _33
REMARK    6  A    between atoms: _38  and  _43
REMARK    7  A    between atoms: _43  and  _46
REMARK    8  A    between atoms: _53  and  _55
REMARK                            x       y       z     vdW  Elec       q    Type
REMARK                         _______ _______ _______ _____ _____    ______ ____
ROOT
ATOM     10  C   UNL     1      -8.195  11.912  -0.039  0.00  0.00    +0.038 A 
ATOM     11  C   UNL     1      -8.986  11.025   0.735  0.00  0.00    +0.047 A 
ATOM     12  C   UNL     1      -9.496  11.416   2.040  0.00  0.00    +0.035 A 
ATOM     32  C   UNL     1      -9.182  12.719   2.526  0.00  0.00    +0.024 A 
ATOM     33  C   UNL     1      -8.378  13.632   1.753  0.00  0.00    +0.007 A 
ATOM     34  C   UNL     1      -7.870  13.252   0.466  0.00  0.00    -0.029 A 
ATOM     35  C   UNL     1      -7.008  14.270  -0.316  0.00  0.00    +0.045 C 
ENDROOT
BRANCH  10   9
ATOM      4  C   UNL     1      -4.794  10.091  -2.895  0.00  0.00    +0.077 A 
ATOM      5  C   UNL     1      -3.851  10.008  -1.817  0.00  0.00    +0.048 A 
ATOM      6  C   UNL     1      -4.278  10.451  -0.545  0.00  0.00    +0.116 A 
ATOM      7  N   UNL     1      -5.555  10.938  -0.375  0.00  0.00    -0.223 NA
ATOM      8  C   UNL     1      -6.440  11.006  -1.436  0.00  0.00    +0.220 A 
ATOM      9  N   UNL     1      -7.732  11.485  -1.286  0.00  0.00    -0.283 N 
ATOM     36  H   UNL     1      -8.352  11.526  -2.095  0.00  0.00    +0.155 HD
ATOM     37  N   UNL     1      -6.056  10.591  -2.661  0.00  0.00    -0.214 NA
BRANCH   4   3
ATOM      1  C   UNL     1      -3.077   9.670  -6.384  0.00  0.00    +0.020 A 
ATOM      2  C   UNL     1      -3.322  10.118  -5.033  0.00  0.00    +0.013 A 
ATOM      3  C   UNL     1      -4.493   9.659  -4.296  0.00  0.00    +0.019 A 
ATOM     38  C   UNL     1      -5.403   8.738  -4.961  0.00  0.00    +0.120 A 
ATOM     39  N   UNL     1      -5.142   8.325  -6.264  0.00  0.00    -0.263 NA
ATOM     40  C   UNL     1      -4.020   8.762  -6.983  0.00  0.00    +0.111 A 
ENDBRANCH   4   3
ENDBRANCH  10   9
BRANCH  12  13
ATOM     13  N   UNL     1     -10.298  10.556   2.874  0.00  0.00    -0.281 N 
ATOM     14  C   UNL     1     -11.209   9.591   2.476  0.00  0.00    +0.248 C 
ATOM     30  O   UNL     1     -11.632   9.469   1.336  0.00  0.00    -0.270 OA
ATOM     31  H   UNL     1     -10.179  10.672   3.881  0.00  0.00    +0.155 HD
BRANCH  14  15
ATOM     15  C   UNL     1     -11.737   8.633   3.494  0.00  0.00    +0.037 A 
ATOM     16  C   UNL     1     -11.183   7.283   3.627  0.00  0.00    +0.013 A 
ATOM     17  C   UNL     1     -11.723   6.373   4.606  0.00  0.00    +0.005 A 
ATOM     18  C   UNL     1     -12.823   6.811   5.461  0.00  0.00    -0.033 A 
ATOM     28  C   UNL     1     -13.351   8.157   5.311  0.00  0.00    +0.005 A 
ATOM     29  C   UNL     1     -12.825   9.051   4.352  0.00  0.00    +0.013 A 
BRANCH  18  19
ATOM     19  C   UNL     1     -13.475   5.900   6.518  0.00  0.00    +0.119 C 
BRANCH  19  20
ATOM     20  N   UNL     1     -13.111   6.140   7.946  0.00  0.00    -0.302 NA
ATOM     21  C   UNL     1     -13.885   7.316   8.547  0.00  0.00    +0.066 C 
ATOM     22  C   UNL     1     -13.508   7.539  10.048  0.00  0.00    -0.064 C 
ATOM     23  N   UNL     1     -12.000   7.768  10.163  0.00  0.00    +0.379 N 
ATOM     24  C   UNL     1     -11.651   8.035  11.566  0.00  0.00    -0.096 C 
ATOM     25  H   UNL     1     -11.750   8.679   9.572  0.00  0.00    -0.082 HD
ATOM     26  C   UNL     1     -11.222   6.603   9.566  0.00  0.00    -0.064 C 
ATOM     27  C   UNL     1     -11.626   6.372   8.083  0.00  0.00    +0.066 C 
ENDBRANCH  19  20
ENDBRANCH  18  19
ENDBRANCH  14  15
ENDBRANCH  12  13
TORSDOF 6
ENDMDL
MODEL 2
REMARK VINA RESULT:      -8.1      2.406     13.036
REMARK  Name = C:\Users\Docking\Desktop\test protocol\1iep_ligandH.pdb
REMARK  8 active torsions:
REMARK  status: ('A' for Active; 'I' for Inactive)
REMARK    1  A    between atoms: _5  and  _11
REMARK    2  A    between atoms: _19  and  _21
REMARK    3  A    between atoms: _22  and  _66
REMARK    4  A    between atoms: _27  and  _30
REMARK    5  A    between atoms: _32  and  _33
REMARK    6  A    between atoms: _38  and  _43
REMARK    7  A    between atoms: _43  and  _46
REMARK    8  A    between atoms: _53  and  _55
REMARK                            x       y       z     vdW  Elec       q    Type
REMARK                         _______ _______ _______ _____ _____    ______ ____
ROOT
ATOM     10  C   UNL     1      -8.433  11.283   1.678  0.00  0.00    +0.038 A 
ATOM     11  C   UNL     1      -7.781  10.807   0.512  0.00  0.00    +0.047 A 
ATOM     12  C   UNL     1      -7.150  11.724  -0.424  0.00  0.00    +0.035 A 
ATOM     32  C   UNL     1      -7.198  13.120  -0.140  0.00  0.00    +0.024 A 
ATOM     33  C   UNL     1      -7.858  13.621   1.041  0.00  0.00    +0.007 A 
ATOM     34  C   UNL     1      -8.485  12.721   1.966  0.00  0.00    -0.029 A 
ATOM     35  C   UNL     1      -9.183  13.315   3.212  0.00  0.00    +0.045 C 
ENDROOT
BRANCH  10   9
ATOM      4  C   UNL     1     -12.207   8.768   3.251  0.00  0.00    +0.077 A 
ATOM      5  C   UNL     1     -13.083   9.368   2.287  0.00  0.00    +0.048 A 
ATOM      6  C   UNL     1     -12.525  10.324   1.409  0.00  0.00    +0.116 A 
ATOM      7  N   UNL     1     -11.189  10.648   1.498  0.00  0.00    -0.223 NA
ATOM      8  C   UNL     1     -10.372  10.053   2.441  0.00  0.00    +0.220 A 
ATOM      9  N   UNL     1      -9.023  10.358   2.543  0.00  0.00    -0.283 N 
ATOM     36  H   UNL     1      -8.456   9.902   3.257  0.00  0.00    +0.155 HD
ATOM     37  N   UNL     1     -10.881   9.138   3.292  0.00  0.00    -0.214 NA
BRANCH   4   3
ATOM      1  C   UNL     1     -12.260   6.257   6.250  0.00  0.00    +0.020 A 
ATOM      2  C   UNL     1     -11.786   7.252   5.315  0.00  0.00    +0.013 A 
ATOM      3  C   UNL     1     -12.647   7.739   4.246  0.00  0.00    +0.019 A 
ATOM     38  C   UNL     1     -13.994   7.196   4.149  0.00  0.00    +0.120 A 
ATOM     39  N   UNL     1     -14.422   6.238   5.062  0.00  0.00    -0.263 NA
ATOM     40  C   UNL     1     -13.601   5.760   6.095  0.00  0.00    +0.111 A 
ENDBRANCH   4   3
ENDBRANCH  10   9
BRANCH  12  13
ATOM     13  N   UNL     1      -6.480  11.300  -1.629  0.00  0.00    -0.281 N 
ATOM     14  C   UNL     1      -5.462  10.369  -1.754  0.00  0.00    +0.248 C 
ATOM     30  O   UNL     1      -4.823   9.913  -0.818  0.00  0.00    -0.270 OA
ATOM     31  H   UNL     1      -6.795  11.739  -2.494  0.00  0.00    +0.155 HD
BRANCH  14  15
ATOM     15  C   UNL     1      -5.090   9.885  -3.119  0.00  0.00    +0.037 A 
ATOM     16  C   UNL     1      -3.701   9.915  -3.584  0.00  0.00    +0.013 A 
ATOM     17  C   UNL     1      -3.373   9.458  -4.911  0.00  0.00    +0.005 A 
ATOM     18  C   UNL     1      -4.437   8.965  -5.782  0.00  0.00    -0.033 A 
ATOM     28  C   UNL     1      -5.805   8.941  -5.294  0.00  0.00    +0.005 A 
ATOM     29  C   UNL     1      -6.131   9.389  -3.994  0.00  0.00    +0.013 A 
BRANCH  18  19
ATOM     19  C   UNL     1      -4.181   8.478  -7.221  0.00  0.00    +0.119 C 
BRANCH  19  20
ATOM     20  N   UNL     1      -2.825   8.725  -7.796  0.00  0.00    -0.302 NA
ATOM     21  C   UNL     1      -2.727  10.100  -8.464  0.00  0.00    +0.066 C 
ATOM     22  C   UNL     1      -1.295  10.352  -9.040  0.00  0.00    -0.064 C 
ATOM     23  N   UNL     1      -0.946   9.242 -10.032  0.00  0.00    +0.379 N 
ATOM     24  C   UNL     1       0.376   9.507 -10.619  0.00  0.00    -0.096 C 
ATOM     25  H   UNL     1      -1.695   9.276 -10.856  0.00  0.00    -0.082 HD
ATOM     26  C   UNL     1      -1.043   7.871  -9.377  0.00  0.00    -0.064 C 
ATOM     27  C   UNL     1      -2.461   7.643  -8.782  0.00  0.00    +0.066 C 
ENDBRANCH  19  20
ENDBRANCH  18  19
ENDBRANCH  14  15
ENDBRANCH  12  13
TORSDOF 6
ENDMDL
MODEL 3
REMARK VINA RESULT:      -8.0      4.207      8.655
REMARK  Name = C:\Users\Docking\Desktop\test protocol\1iep_ligandH.pdb
REMARK  8 active torsions:
REMARK  status: ('A' for Active; 'I' for Inactive)
REMARK    1  A    between atoms: _5  and  _11
REMARK    2  A    between atoms: _19  and  _21
REMARK    3  A    between atoms: _22  and  _66
REMARK    4  A    between atoms: _27  and  _30
REMARK    5  A    between atoms: _32  and  _33
REMARK    6  A    between atoms: _38  and  _43
REMARK    7  A    between atoms: _43  and  _46
REMARK    8  A    between atoms: _53  and  _55
REMARK                            x       y       z     vdW  Elec       q    Type
REMARK                         _______ _______ _______ _____ _____    ______ ____
ROOT
ATOM     10  C   UNL     1      -3.183   9.538  -7.054  0.00  0.00    +0.038 A 
ATOM     11  C   UNL     1      -3.732   9.895  -5.795  0.00  0.00    +0.047 A 
ATOM     12  C   UNL     1      -4.710   9.047  -5.133  0.00  0.00    +0.035 A 
ATOM     32  C   UNL     1      -5.106   7.840  -5.781  0.00  0.00    +0.024 A 
ATOM     33  C   UNL     1      -4.559   7.462  -7.060  0.00  0.00    +0.007 A 
ATOM     34  C   UNL     1      -3.595   8.297  -7.719  0.00  0.00    -0.029 A 
ATOM     35  C   UNL     1      -3.047   7.845  -9.093  0.00  0.00    +0.045 C 
ENDROOT
BRANCH  10   9
ATOM      4  C   UNL     1       1.237  11.375  -7.407  0.00  0.00    +0.077 A 
ATOM      5  C   UNL     1       1.715  10.591  -6.305  0.00  0.00    +0.048 A 
ATOM      6  C   UNL     1       0.790   9.732  -5.670  0.00  0.00    +0.116 A 
ATOM      7  N   UNL     1      -0.514   9.671  -6.113  0.00  0.00    -0.223 NA
ATOM      8  C   UNL     1      -0.942  10.442  -7.177  0.00  0.00    +0.220 A 
ATOM      9  N   UNL     1      -2.247  10.390  -7.644  0.00  0.00    -0.283 N 
ATOM     36  H   UNL     1      -2.526  10.981  -8.427  0.00  0.00    +0.155 HD
ATOM     37  N   UNL     1      -0.078  11.271  -7.800  0.00  0.00    -0.214 NA
BRANCH   4   3
ATOM      1  C   UNL     1       3.316  14.516  -8.464  0.00  0.00    +0.020 A 
ATOM      2  C   UNL     1       2.485  13.635  -7.675  0.00  0.00    +0.013 A 
ATOM      3  C   UNL     1       2.095  12.326  -8.183  0.00  0.00    +0.019 A 
ATOM     38  C   UNL     1       2.567  11.935  -9.502  0.00  0.00    +0.120 A 
ATOM     39  N   UNL     1       3.364  12.804 -10.240  0.00  0.00    -0.263 NA
ATOM     40  C   UNL     1       3.744  14.068  -9.762  0.00  0.00    +0.111 A 
ENDBRANCH   4   3
ENDBRANCH  10   9
BRANCH  12  13
ATOM     13  N   UNL     1      -5.308   9.361  -3.859  0.00  0.00    -0.281 N 
ATOM     14  C   UNL     1      -4.688   9.871  -2.730  0.00  0.00    +0.248 C 
ATOM     30  O   UNL     1      -3.477   9.934  -2.576  0.00  0.00    -0.270 OA
ATOM     31  H   UNL     1      -6.310   9.186  -3.780  0.00  0.00    +0.155 HD
BRANCH  14  15
ATOM     15  C   UNL     1      -5.535  10.369  -1.604  0.00  0.00    +0.037 A 
ATOM     16  C   UNL     1      -5.109  10.222  -0.210  0.00  0.00    +0.013 A 
ATOM     17  C   UNL     1      -5.953  10.697   0.858  0.00  0.00    +0.005 A 
ATOM     18  C   UNL     1      -7.232  11.324   0.535  0.00  0.00    -0.033 A 
ATOM     28  C   UNL     1      -7.627  11.462  -0.857  0.00  0.00    +0.005 A 
ATOM     29  C   UNL     1      -6.803  10.997  -1.906  0.00  0.00    +0.013 A 
BRANCH  18  19
ATOM     19  C   UNL     1      -8.205  11.840   1.611  0.00  0.00    +0.119 C 
BRANCH  19  20
ATOM     20  N   UNL     1      -8.897  10.820   2.453  0.00  0.00    -0.302 NA
ATOM     21  C   UNL     1      -9.555   9.726   1.607  0.00  0.00    +0.066 C 
ATOM     22  C   UNL     1     -10.255   8.655   2.505  0.00  0.00    -0.064 C 
ATOM     23  N   UNL     1     -11.287   9.340   3.402  0.00  0.00    +0.379 N 
ATOM     24  C   UNL     1     -11.987   8.328   4.206  0.00  0.00    -0.096 C 
ATOM     25  H   UNL     1     -12.040   9.827   2.739  0.00  0.00    -0.082 HD
ATOM     26  C   UNL     1     -10.642  10.431   4.245  0.00  0.00    -0.064 C 
ATOM     27  C   UNL     1      -9.924  11.474   3.344  0.00  0.00    +0.066 C 
ENDBRANCH  19  20
ENDBRANCH  18  19
ENDBRANCH  14  15
ENDBRANCH  12  13
TORSDOF 6
ENDMDL
