MODEL 1
REMARK VINA RESULT:      -7.2      0.000      0.000
REMARK  Name = C:\Users\Docking\Desktop\test protocol\1iep_ligandH.pdb
REMARK  8 active torsions:
REMARK  status: ('A' for Active; 'I' for Inactive)
REMARK    1  A    between atoms: _5  and  _11
REMARK    2  A    between atoms: _19  and  _21
REMARK    3  A    between atoms: _22  and  _66
REMARK    4  A    between atoms: _27  and  _30
REMARK    5  A    between atoms: _32  and  _33
REMARK    6  A    between atoms: _38  and  _43
REMARK    7  A    between atoms: _43  and  _46
REMARK    8  A    between atoms: _53  and  _55
REMARK                            x       y       z     vdW  Elec       q    Type
REMARK                         _______ _______ _______ _____ _____    ______ ____
ROOT
ATOM     10  C   UNL     1      25.956  23.678   7.809  0.00  0.00    +0.038 A 
ATOM     11  C   UNL     1      27.056  22.924   7.325  0.00  0.00    +0.047 A 
ATOM     12  C   UNL     1      26.950  21.489   7.115  0.00  0.00    +0.035 A 
ATOM     32  C   UNL     1      25.708  20.853   7.405  0.00  0.00    +0.024 A 
ATOM     33  C   UNL     1      24.580  21.603   7.899  0.00  0.00    +0.007 A 
ATOM     34  C   UNL     1      24.679  23.019   8.111  0.00  0.00    -0.029 A 
ATOM     35  C   UNL     1      23.440  23.772   8.648  0.00  0.00    +0.045 C 
ENDROOT
BRANCH  10   9
ATOM      4  C   UNL     1      26.334  28.156   6.125  0.00  0.00    +0.077 A 
ATOM      5  C   UNL     1      26.238  27.715   4.763  0.00  0.00    +0.048 A 
ATOM      6  C   UNL     1      26.099  26.327   4.539  0.00  0.00    +0.116 A 
ATOM      7  N   UNL     1      26.060  25.454   5.604  0.00  0.00    -0.223 NA
ATOM      8  C   UNL     1      26.158  25.913   6.905  0.00  0.00    +0.220 A 
ATOM      9  N   UNL     1      26.113  25.053   7.992  0.00  0.00    -0.283 N 
ATOM     36  H   UNL     1      26.196  25.430   8.936  0.00  0.00    +0.155 HD
ATOM     37  N   UNL     1      26.292  27.233   7.146  0.00  0.00    -0.214 NA
BRANCH   4   3
ATOM      1  C   UNL     1      27.753  31.503   7.570  0.00  0.00    +0.020 A 
ATOM      2  C   UNL     1      27.661  30.107   7.207  0.00  0.00    +0.013 A 
ATOM      3  C   UNL     1      26.481  29.592   6.524  0.00  0.00    +0.019 A 
ATOM     38  C   UNL     1      25.405  30.522   6.218  0.00  0.00    +0.120 A 
ATOM     39  N   UNL     1      25.521  31.860   6.581  0.00  0.00    -0.263 NA
ATOM     40  C   UNL     1      26.650  32.367   7.241  0.00  0.00    +0.111 A 
ENDBRANCH   4   3
ENDBRANCH  10   9
BRANCH  12  13
ATOM     13  N   UNL     1      28.035  20.670   6.633  0.00  0.00    -0.281 N 
ATOM     14  C   UNL     1      28.351  20.361   5.320  0.00  0.00    +0.248 C 
ATOM     30  O   UNL     1      27.618  20.569   4.366  0.00  0.00    -0.270 OA
ATOM     31  H   UNL     1      28.645  20.270   7.347  0.00  0.00    +0.155 HD
BRANCH  14  15
ATOM     15  C   UNL     1      29.667  19.715   5.027  0.00  0.00    +0.037 A 
ATOM     16  C   UNL     1      30.465  19.100   6.091  0.00  0.00    +0.013 A 
ATOM     17  C   UNL     1      31.738  18.498   5.784  0.00  0.00    +0.005 A 
ATOM     18  C   UNL     1      32.220  18.507   4.404  0.00  0.00    -0.033 A 
ATOM     28  C   UNL     1      31.405  19.118   3.368  0.00  0.00    +0.005 A 
ATOM     29  C   UNL     1      30.157  19.710   3.666  0.00  0.00    +0.013 A 
BRANCH  18  19
ATOM     19  C   UNL     1      33.576  17.906   3.989  0.00  0.00    +0.119 C 
BRANCH  19  20
ATOM     20  N   UNL     1      33.804  16.461   4.286  0.00  0.00    -0.302 NA
ATOM     21  C   UNL     1      35.191  15.993   3.836  0.00  0.00    +0.066 C 
ATOM     22  C   UNL     1      35.421  14.484   4.175  0.00  0.00    -0.064 C 
ATOM     23  N   UNL     1      34.326  13.644   3.517  0.00  0.00    +0.379 N 
ATOM     24  C   UNL     1      34.572  12.219   3.786  0.00  0.00    -0.096 C 
ATOM     25  H   UNL     1      34.398  13.797   2.415  0.00  0.00    -0.082 HD
ATOM     26  C   UNL     1      32.943  14.104   3.958  0.00  0.00    -0.064 C 
ATOM     27  C   UNL     1      32.736  15.612   3.642  0.00  0.00    +0.066 C 
ENDBRANCH  19  20
ENDBRANCH  18  19
ENDBRANCH  14  15
ENDBRANCH  12  13
TORSDOF 6
ENDMDL
MODEL 2
REMARK VINA RESULT:      -7.0      1.763      2.346
REMARK  Name = C:\Users\Docking\Desktop\test protocol\1iep_ligandH.pdb
REMARK  8 active torsions:
REMARK  status: ('A' for Active; 'I' for Inactive)
REMARK    1  A    between atoms: _5  and  _11
REMARK    2  A    between atoms: _19  and  _21
REMARK    3  A    between atoms: _22  and  _66
REMARK    4  A    between atoms: _27  and  _30
REMARK    5  A    between atoms: _32  and  _33
REMARK    6  A    between atoms: _38  and  _43
REMARK    7  A    between atoms: _43  and  _46
REMARK    8  A    between atoms: _53  and  _55
REMARK                            x       y       z     vdW  Elec       q    Type
REMARK                         _______ _______ _______ _____ _____    ______ ____
ROOT
ATOM     10  C   UNL     1      25.863  23.469   8.013  0.00  0.00    +0.038 A 
ATOM     11  C   UNL     1      26.975  22.763   7.487  0.00  0.00    +0.047 A 
ATOM     12  C   UNL     1      26.899  21.338   7.208  0.00  0.00    +0.035 A 
ATOM     32  C   UNL     1      25.672  20.662   7.475  0.00  0.00    +0.024 A 
ATOM     33  C   UNL     1      24.532  21.363   8.011  0.00  0.00    +0.007 A 
ATOM     34  C   UNL     1      24.603  22.769   8.291  0.00  0.00    -0.029 A 
ATOM     35  C   UNL     1      23.352  23.468   8.871  0.00  0.00    +0.045 C 
ENDROOT
BRANCH  10   9
ATOM      4  C   UNL     1      26.310  28.015   6.540  0.00  0.00    +0.077 A 
ATOM      5  C   UNL     1      26.313  27.629   5.158  0.00  0.00    +0.048 A 
ATOM      6  C   UNL     1      26.205  26.250   4.870  0.00  0.00    +0.116 A 
ATOM      7  N   UNL     1      26.102  25.334   5.894  0.00  0.00    -0.223 NA
ATOM      8  C   UNL     1      26.103  25.740   7.216  0.00  0.00    +0.220 A 
ATOM      9  N   UNL     1      25.992  24.837   8.262  0.00  0.00    -0.283 N 
ATOM     36  H   UNL     1      26.005  25.175   9.224  0.00  0.00    +0.155 HD
ATOM     37  N   UNL     1      26.207  27.051   7.518  0.00  0.00    -0.214 NA
BRANCH   4   3
ATOM      1  C   UNL     1      27.061  31.191   8.696  0.00  0.00    +0.020 A 
ATOM      2  C   UNL     1      26.984  29.806   8.294  0.00  0.00    +0.013 A 
ATOM      3  C   UNL     1      26.413  29.434   7.005  0.00  0.00    +0.019 A 
ATOM     38  C   UNL     1      25.927  30.497   6.139  0.00  0.00    +0.120 A 
ATOM     39  N   UNL     1      26.013  31.823   6.553  0.00  0.00    -0.263 NA
ATOM     40  C   UNL     1      26.558  32.192   7.792  0.00  0.00    +0.111 A 
ENDBRANCH   4   3
ENDBRANCH  10   9
BRANCH  12  13
ATOM     13  N   UNL     1      27.997  20.567   6.680  0.00  0.00    -0.281 N 
ATOM     14  C   UNL     1      28.285  20.291   5.354  0.00  0.00    +0.248 C 
ATOM     30  O   UNL     1      27.516  20.489   4.424  0.00  0.00    -0.270 OA
ATOM     31  H   UNL     1      28.641  20.177   7.369  0.00  0.00    +0.155 HD
BRANCH  14  15
ATOM     15  C   UNL     1      29.613  19.697   5.011  0.00  0.00    +0.037 A 
ATOM     16  C   UNL     1      30.454  19.074   6.036  0.00  0.00    +0.013 A 
ATOM     17  C   UNL     1      31.738  18.524   5.681  0.00  0.00    +0.005 A 
ATOM     18  C   UNL     1      32.188  18.593   4.293  0.00  0.00    -0.033 A 
ATOM     28  C   UNL     1      31.332  19.212   3.296  0.00  0.00    +0.005 A 
ATOM     29  C   UNL     1      30.073  19.754   3.640  0.00  0.00    +0.013 A 
BRANCH  18  19
ATOM     19  C   UNL     1      33.553  18.051   3.829  0.00  0.00    +0.119 C 
BRANCH  19  20
ATOM     20  N   UNL     1      33.921  18.262   2.397  0.00  0.00    -0.302 NA
ATOM     21  C   UNL     1      33.938  16.949   1.608  0.00  0.00    +0.066 C 
ATOM     22  C   UNL     1      34.302  17.191   0.108  0.00  0.00    -0.064 C 
ATOM     23  N   UNL     1      35.660  17.892   0.022  0.00  0.00    +0.379 N 
ATOM     24  C   UNL     1      36.032  18.069  -1.389  0.00  0.00    -0.096 C 
ATOM     25  H   UNL     1      36.416  17.220   0.490  0.00  0.00    -0.082 HD
ATOM     26  C   UNL     1      35.653  19.197   0.805  0.00  0.00    -0.064 C 
ATOM     27  C   UNL     1      35.260  18.949   2.289  0.00  0.00    +0.066 C 
ENDBRANCH  19  20
ENDBRANCH  18  19
ENDBRANCH  14  15
ENDBRANCH  12  13
TORSDOF 6
ENDMDL
MODEL 3
REMARK VINA RESULT:      -6.9     19.359     23.704
REMARK  Name = C:\Users\Docking\Desktop\test protocol\1iep_ligandH.pdb
REMARK  8 active torsions:
REMARK  status: ('A' for Active; 'I' for Inactive)
REMARK    1  A    between atoms: _5  and  _11
REMARK    2  A    between atoms: _19  and  _21
REMARK    3  A    between atoms: _22  and  _66
REMARK    4  A    between atoms: _27  and  _30
REMARK    5  A    between atoms: _32  and  _33
REMARK    6  A    between atoms: _38  and  _43
REMARK    7  A    between atoms: _43  and  _46
REMARK    8  A    between atoms: _53  and  _55
REMARK                            x       y       z     vdW  Elec       q    Type
REMARK                         _______ _______ _______ _____ _____    ______ ____
ROOT
ATOM     10  C   UNL     1      30.453  10.714  20.986  0.00  0.00    +0.038 A 
ATOM     11  C   UNL     1      30.650  11.963  21.629  0.00  0.00    +0.047 A 
ATOM     12  C   UNL     1      29.522  12.794  22.019  0.00  0.00    +0.035 A 
ATOM     32  C   UNL     1      28.206  12.322  21.739  0.00  0.00    +0.024 A 
ATOM     33  C   UNL     1      27.988  11.056  21.085  0.00  0.00    +0.007 A 
ATOM     34  C   UNL     1      29.097  10.233  20.696  0.00  0.00    -0.029 A 
ATOM     35  C   UNL     1      28.804   8.888  19.991  0.00  0.00    +0.045 C 
ENDROOT
BRANCH  10   9
ATOM      4  C   UNL     1      33.757   7.360  21.920  0.00  0.00    +0.077 A 
ATOM      5  C   UNL     1      33.225   7.116  23.229  0.00  0.00    +0.048 A 
ATOM      6  C   UNL     1      32.105   7.880  23.627  0.00  0.00    +0.116 A 
ATOM      7  N   UNL     1      31.565   8.815  22.771  0.00  0.00    -0.223 NA
ATOM      8  C   UNL     1      32.104   9.027  21.515  0.00  0.00    +0.220 A 
ATOM      9  N   UNL     1      31.572   9.956  20.634  0.00  0.00    -0.283 N 
ATOM     36  H   UNL     1      32.003  10.088  19.719  0.00  0.00    +0.155 HD
ATOM     37  N   UNL     1      33.174   8.311  21.112  0.00  0.00    -0.214 NA
BRANCH   4   3
ATOM      1  C   UNL     1      36.930   5.100  21.565  0.00  0.00    +0.020 A 
ATOM      2  C   UNL     1      35.804   5.783  22.161  0.00  0.00    +0.013 A 
ATOM      3  C   UNL     1      34.936   6.631  21.354  0.00  0.00    +0.019 A 
ATOM     38  C   UNL     1      35.236   6.768  19.937  0.00  0.00    +0.120 A 
ATOM     39  N   UNL     1      36.328   6.099  19.391  0.00  0.00    -0.263 NA
ATOM     40  C   UNL     1      37.171   5.282  20.158  0.00  0.00    +0.111 A 
ENDBRANCH   4   3
ENDBRANCH  10   9
BRANCH  12  13
ATOM     13  N   UNL     1      29.660  14.075  22.668  0.00  0.00    -0.281 N 
ATOM     14  C   UNL     1      29.179  14.456  23.909  0.00  0.00    +0.248 C 
ATOM     30  O   UNL     1      28.368  13.817  24.563  0.00  0.00    -0.270 OA
ATOM     31  H   UNL     1      30.175  14.786  22.149  0.00  0.00    +0.155 HD
BRANCH  14  15
ATOM     15  C   UNL     1      29.656  15.741  24.505  0.00  0.00    +0.037 A 
ATOM     16  C   UNL     1      29.315  16.115  25.880  0.00  0.00    +0.013 A 
ATOM     17  C   UNL     1      29.774  17.368  26.424  0.00  0.00    +0.005 A 
ATOM     18  C   UNL     1      30.582  18.257  25.593  0.00  0.00    -0.033 A 
ATOM     28  C   UNL     1      30.910  17.859  24.234  0.00  0.00    +0.005 A 
ATOM     29  C   UNL     1      30.461  16.632  23.696  0.00  0.00    +0.013 A 
BRANCH  18  19
ATOM     19  C   UNL     1      31.097  19.623  26.084  0.00  0.00    +0.119 C 
BRANCH  19  20
ATOM     20  N   UNL     1      31.986  19.627  27.284  0.00  0.00    -0.302 NA
ATOM     21  C   UNL     1      32.458  21.038  27.644  0.00  0.00    +0.066 C 
ATOM     22  C   UNL     1      33.369  21.027  28.915  0.00  0.00    -0.064 C 
ATOM     23  N   UNL     1      34.563  20.101  28.675  0.00  0.00    +0.379 N 
ATOM     24  C   UNL     1      35.451  20.133  29.846  0.00  0.00    -0.096 C 
ATOM     25  H   UNL     1      35.133  20.504  27.806  0.00  0.00    -0.082 HD
ATOM     26  C   UNL     1      34.102  18.696  28.313  0.00  0.00    -0.064 C 
ATOM     27  C   UNL     1      33.175  18.722  27.067  0.00  0.00    +0.066 C 
ENDBRANCH  19  20
ENDBRANCH  18  19
ENDBRANCH  14  15
ENDBRANCH  12  13
TORSDOF 6
ENDMDL
