MODEL 1
REMARK VINA RESULT:      -7.0      0.000      0.000
REMARK  Name = C:\Users\Docking\Desktop\test protocol\1iep_ligandH.pdb
REMARK  8 active torsions:
REMARK  status: ('A' for Active; 'I' for Inactive)
REMARK    1  A    between atoms: _5  and  _11
REMARK    2  A    between atoms: _19  and  _21
REMARK    3  A    between atoms: _22  and  _66
REMARK    4  A    between atoms: _27  and  _30
REMARK    5  A    between atoms: _32  and  _33
REMARK    6  A    between atoms: _38  and  _43
REMARK    7  A    between atoms: _43  and  _46
REMARK    8  A    between atoms: _53  and  _55
REMARK                            x       y       z     vdW  Elec       q    Type
REMARK                         _______ _______ _______ _____ _____    ______ ____
ROOT
ATOM     10  C   UNL     1      10.676  29.809  13.623  0.00  0.00    +0.038 A 
ATOM     11  C   UNL     1      10.652  29.562  15.020  0.00  0.00    +0.047 A 
ATOM     12  C   UNL     1       9.458  29.820  15.810  0.00  0.00    +0.035 A 
ATOM     32  C   UNL     1       8.304  30.326  15.144  0.00  0.00    +0.024 A 
ATOM     33  C   UNL     1       8.310  30.583  13.725  0.00  0.00    +0.007 A 
ATOM     34  C   UNL     1       9.486  30.333  12.941  0.00  0.00    -0.029 A 
ATOM     35  C   UNL     1       9.438  30.633  11.425  0.00  0.00    +0.045 C 
ENDROOT
BRANCH  10   9
ATOM      4  C   UNL     1      15.026  31.052  12.021  0.00  0.00    +0.077 A 
ATOM      5  C   UNL     1      14.942  32.351  12.626  0.00  0.00    +0.048 A 
ATOM      6  C   UNL     1      13.760  32.662  13.334  0.00  0.00    +0.116 A 
ATOM      7  N   UNL     1      12.744  31.735  13.425  0.00  0.00    -0.223 NA
ATOM      8  C   UNL     1      12.856  30.493  12.829  0.00  0.00    +0.220 A 
ATOM      9  N   UNL     1      11.849  29.543  12.914  0.00  0.00    -0.283 N 
ATOM     36  H   UNL     1      11.967  28.641  12.454  0.00  0.00    +0.155 HD
ATOM     37  N   UNL     1      13.974  30.172  12.145  0.00  0.00    -0.214 NA
BRANCH   4   3
ATOM      1  C   UNL     1      17.272  29.314   9.332  0.00  0.00    +0.020 A 
ATOM      2  C   UNL     1      16.094  29.748  10.047  0.00  0.00    +0.013 A 
ATOM      3  C   UNL     1      16.212  30.575  11.242  0.00  0.00    +0.019 A 
ATOM     38  C   UNL     1      17.545  30.947  11.689  0.00  0.00    +0.120 A 
ATOM     39  N   UNL     1      18.661  30.513  10.980  0.00  0.00    -0.263 NA
ATOM     40  C   UNL     1      18.560  29.716   9.830  0.00  0.00    +0.111 A 
ENDBRANCH   4   3
ENDBRANCH  10   9
BRANCH  12  13
ATOM     13  N   UNL     1       9.378  29.597  17.232  0.00  0.00    -0.281 N 
ATOM     14  C   UNL     1       9.841  30.415  18.250  0.00  0.00    +0.248 C 
ATOM     30  O   UNL     1      10.588  31.367  18.085  0.00  0.00    -0.270 OA
ATOM     31  H   UNL     1       8.925  28.731  17.524  0.00  0.00    +0.155 HD
BRANCH  14  15
ATOM     15  C   UNL     1       9.424  30.124  19.655  0.00  0.00    +0.037 A 
ATOM     16  C   UNL     1       8.206  30.708  20.223  0.00  0.00    +0.013 A 
ATOM     17  C   UNL     1       7.836  30.425  21.587  0.00  0.00    +0.005 A 
ATOM     18  C   UNL     1       8.686  29.551  22.393  0.00  0.00    -0.033 A 
ATOM     28  C   UNL     1       9.886  28.982  21.803  0.00  0.00    +0.005 A 
ATOM     29  C   UNL     1      10.252  29.258  20.467  0.00  0.00    +0.013 A 
BRANCH  18  19
ATOM     19  C   UNL     1       8.380  29.212  23.864  0.00  0.00    +0.119 C 
BRANCH  19  20
ATOM     20  N   UNL     1       7.164  28.389  24.137  0.00  0.00    -0.302 NA
ATOM     21  C   UNL     1       6.040  29.216  24.767  0.00  0.00    +0.066 C 
ATOM     22  C   UNL     1       4.768  28.344  25.025  0.00  0.00    -0.064 C 
ATOM     23  N   UNL     1       5.137  27.161  25.921  0.00  0.00    +0.379 N 
ATOM     24  C   UNL     1       3.932  26.371  26.213  0.00  0.00    -0.096 C 
ATOM     25  H   UNL     1       5.514  27.572  26.886  0.00  0.00    -0.082 HD
ATOM     26  C   UNL     1       6.257  26.334  25.303  0.00  0.00    -0.064 C 
ATOM     27  C   UNL     1       7.505  27.217  25.024  0.00  0.00    +0.066 C 
ENDBRANCH  19  20
ENDBRANCH  18  19
ENDBRANCH  14  15
ENDBRANCH  12  13
TORSDOF 6
ENDMDL
MODEL 2
REMARK VINA RESULT:      -6.9     12.357     18.121
REMARK  Name = C:\Users\Docking\Desktop\test protocol\1iep_ligandH.pdb
REMARK  8 active torsions:
REMARK  status: ('A' for Active; 'I' for Inactive)
REMARK    1  A    between atoms: _5  and  _11
REMARK    2  A    between atoms: _19  and  _21
REMARK    3  A    between atoms: _22  and  _66
REMARK    4  A    between atoms: _27  and  _30
REMARK    5  A    between atoms: _32  and  _33
REMARK    6  A    between atoms: _38  and  _43
REMARK    7  A    between atoms: _43  and  _46
REMARK    8  A    between atoms: _53  and  _55
REMARK                            x       y       z     vdW  Elec       q    Type
REMARK                         _______ _______ _______ _____ _____    ______ ____
ROOT
ATOM     10  C   UNL     1      13.891  20.450  22.349  0.00  0.00    +0.038 A 
ATOM     11  C   UNL     1      14.975  20.031  21.536  0.00  0.00    +0.047 A 
ATOM     12  C   UNL     1      15.962  20.982  21.049  0.00  0.00    +0.035 A 
ATOM     32  C   UNL     1      15.815  22.353  21.412  0.00  0.00    +0.024 A 
ATOM     33  C   UNL     1      14.718  22.796  22.236  0.00  0.00    +0.007 A 
ATOM     34  C   UNL     1      13.741  21.862  22.718  0.00  0.00    -0.029 A 
ATOM     35  C   UNL     1      12.582  22.395  23.593  0.00  0.00    +0.045 C 
ENDROOT
BRANCH  10   9
ATOM      4  C   UNL     1      12.470  17.043  25.417  0.00  0.00    +0.077 A 
ATOM      5  C   UNL     1      13.671  17.159  26.194  0.00  0.00    +0.048 A 
ATOM      6  C   UNL     1      14.632  18.102  25.767  0.00  0.00    +0.116 A 
ATOM      7  N   UNL     1      14.399  18.867  24.644  0.00  0.00    -0.223 NA
ATOM      8  C   UNL     1      13.232  18.729  23.916  0.00  0.00    +0.220 A 
ATOM      9  N   UNL     1      12.973  19.493  22.789  0.00  0.00    -0.283 N 
ATOM     36  H   UNL     1      12.103  19.356  22.275  0.00  0.00    +0.155 HD
ATOM     37  N   UNL     1      12.299  17.834  24.303  0.00  0.00    -0.214 NA
BRANCH   4   3
ATOM      1  C   UNL     1      10.434  13.775  26.108  0.00  0.00    +0.020 A 
ATOM      2  C   UNL     1      11.540  14.648  25.787  0.00  0.00    +0.013 A 
ATOM      3  C   UNL     1      11.360  16.094  25.743  0.00  0.00    +0.019 A 
ATOM     38  C   UNL     1      10.037  16.628  26.032  0.00  0.00    +0.120 A 
ATOM     39  N   UNL     1       8.991  15.763  26.337  0.00  0.00    -0.263 NA
ATOM     40  C   UNL     1       9.152  14.370  26.380  0.00  0.00    +0.111 A 
ENDBRANCH   4   3
ENDBRANCH  10   9
BRANCH  12  13
ATOM     13  N   UNL     1      17.079  20.617  20.214  0.00  0.00    -0.281 N 
ATOM     14  C   UNL     1      18.017  19.622  20.434  0.00  0.00    +0.248 C 
ATOM     30  O   UNL     1      18.163  19.032  21.494  0.00  0.00    -0.270 OA
ATOM     31  H   UNL     1      17.193  21.158  19.357  0.00  0.00    +0.155 HD
BRANCH  14  15
ATOM     15  C   UNL     1      18.936  19.236  19.320  0.00  0.00    +0.037 A 
ATOM     16  C   UNL     1      19.488  20.241  18.408  0.00  0.00    +0.013 A 
ATOM     17  C   UNL     1      20.358  19.841  17.331  0.00  0.00    +0.005 A 
ATOM     18  C   UNL     1      20.683  18.426  17.161  0.00  0.00    -0.033 A 
ATOM     28  C   UNL     1      20.125  17.451  18.083  0.00  0.00    +0.005 A 
ATOM     29  C   UNL     1      19.271  17.840  19.140  0.00  0.00    +0.013 A 
BRANCH  18  19
ATOM     19  C   UNL     1      21.586  17.906  16.027  0.00  0.00    +0.119 C 
BRANCH  19  20
ATOM     20  N   UNL     1      20.920  17.191  14.897  0.00  0.00    -0.302 NA
ATOM     21  C   UNL     1      19.423  17.504  14.821  0.00  0.00    +0.066 C 
ATOM     22  C   UNL     1      18.748  16.766  13.620  0.00  0.00    -0.064 C 
ATOM     23  N   UNL     1      18.981  15.260  13.754  0.00  0.00    +0.379 N 
ATOM     24  C   UNL     1      18.298  14.558  12.657  0.00  0.00    -0.096 C 
ATOM     25  H   UNL     1      18.513  14.930  14.710  0.00  0.00    -0.082 HD
ATOM     26  C   UNL     1      20.467  14.940  13.833  0.00  0.00    -0.064 C 
ATOM     27  C   UNL     1      21.134  15.702  15.012  0.00  0.00    +0.066 C 
ENDBRANCH  19  20
ENDBRANCH  18  19
ENDBRANCH  14  15
ENDBRANCH  12  13
TORSDOF 6
ENDMDL
MODEL 3
REMARK VINA RESULT:      -6.8     14.342     15.842
REMARK  Name = C:\Users\Docking\Desktop\test protocol\1iep_ligandH.pdb
REMARK  8 active torsions:
REMARK  status: ('A' for Active; 'I' for Inactive)
REMARK    1  A    between atoms: _5  and  _11
REMARK    2  A    between atoms: _19  and  _21
REMARK    3  A    between atoms: _22  and  _66
REMARK    4  A    between atoms: _27  and  _30
REMARK    5  A    between atoms: _32  and  _33
REMARK    6  A    between atoms: _38  and  _43
REMARK    7  A    between atoms: _43  and  _46
REMARK    8  A    between atoms: _53  and  _55
REMARK                            x       y       z     vdW  Elec       q    Type
REMARK                         _______ _______ _______ _____ _____    ______ ____
ROOT
ATOM     10  C   UNL     1      21.305  14.577  17.797  0.00  0.00    +0.038 A 
ATOM     11  C   UNL     1      20.825  15.852  18.191  0.00  0.00    +0.047 A 
ATOM     12  C   UNL     1      19.950  16.003  19.343  0.00  0.00    +0.035 A 
ATOM     32  C   UNL     1      19.586  14.833  20.073  0.00  0.00    +0.024 A 
ATOM     33  C   UNL     1      20.064  13.530  19.685  0.00  0.00    +0.007 A 
ATOM     34  C   UNL     1      20.925  13.375  18.548  0.00  0.00    -0.029 A 
ATOM     35  C   UNL     1      21.403  11.952  18.174  0.00  0.00    +0.045 C 
ENDROOT
BRANCH  10   9
ATOM      4  C   UNL     1      22.115  14.889  13.076  0.00  0.00    +0.077 A 
ATOM      5  C   UNL     1      20.747  15.226  12.804  0.00  0.00    +0.048 A 
ATOM      6  C   UNL     1      19.866  15.302  13.905  0.00  0.00    +0.116 A 
ATOM      7  N   UNL     1      20.329  15.058  15.180  0.00  0.00    -0.223 NA
ATOM      8  C   UNL     1      21.654  14.733  15.408  0.00  0.00    +0.220 A 
ATOM      9  N   UNL     1      22.143  14.491  16.682  0.00  0.00    -0.283 N 
ATOM     36  H   UNL     1      23.125  14.247  16.808  0.00  0.00    +0.155 HD
ATOM     37  N   UNL     1      22.515  14.652  14.372  0.00  0.00    -0.214 NA
BRANCH   4   3
ATOM      1  C   UNL     1      23.979  14.050   9.741  0.00  0.00    +0.020 A 
ATOM      2  C   UNL     1      22.928  14.135  10.729  0.00  0.00    +0.013 A 
ATOM      3  C   UNL     1      23.167  14.772  12.017  0.00  0.00    +0.019 A 
ATOM     38  C   UNL     1      24.491  15.318  12.277  0.00  0.00    +0.120 A 
ATOM     39  N   UNL     1      25.484  15.220  11.307  0.00  0.00    -0.263 NA
ATOM     40  C   UNL     1      25.266  14.607  10.064  0.00  0.00    +0.111 A 
ENDBRANCH   4   3
ENDBRANCH  10   9
BRANCH  12  13
ATOM     13  N   UNL     1      19.424  17.270  19.787  0.00  0.00    -0.281 N 
ATOM     14  C   UNL     1      19.006  18.338  19.009  0.00  0.00    +0.248 C 
ATOM     30  O   UNL     1      19.222  18.446  17.811  0.00  0.00    -0.270 OA
ATOM     31  H   UNL     1      19.352  17.396  20.797  0.00  0.00    +0.155 HD
BRANCH  14  15
ATOM     15  C   UNL     1      18.253  19.453  19.659  0.00  0.00    +0.037 A 
ATOM     16  C   UNL     1      17.596  20.492  18.862  0.00  0.00    +0.013 A 
ATOM     17  C   UNL     1      16.889  21.566  19.514  0.00  0.00    +0.005 A 
ATOM     18  C   UNL     1      16.836  21.605  20.974  0.00  0.00    -0.033 A 
ATOM     28  C   UNL     1      17.492  20.559  21.740  0.00  0.00    +0.005 A 
ATOM     29  C   UNL     1      18.186  19.505  21.104  0.00  0.00    +0.013 A 
BRANCH  18  19
ATOM     19  C   UNL     1      16.123  22.725  21.755  0.00  0.00    +0.119 C 
BRANCH  19  20
ATOM     20  N   UNL     1      15.058  22.316  22.718  0.00  0.00    -0.302 NA
ATOM     21  C   UNL     1      13.861  21.673  22.012  0.00  0.00    +0.066 C 
ATOM     22  C   UNL     1      12.766  21.230  23.036  0.00  0.00    -0.064 C 
ATOM     23  N   UNL     1      12.323  22.441  23.860  0.00  0.00    +0.379 N 
ATOM     24  C   UNL     1      11.252  22.040  24.784  0.00  0.00    -0.096 C 
ATOM     25  H   UNL     1      11.897  23.192  23.154  0.00  0.00    -0.082 HD
ATOM     26  C   UNL     1      13.507  23.088  24.563  0.00  0.00    -0.064 C 
ATOM     27  C   UNL     1      14.602  23.497  23.539  0.00  0.00    +0.066 C 
ENDBRANCH  19  20
ENDBRANCH  18  19
ENDBRANCH  14  15
ENDBRANCH  12  13
TORSDOF 6
ENDMDL
