MODEL 1
REMARK VINA RESULT:      -8.0      0.000      0.000
REMARK  Name = C:\Users\Docking\Desktop\test protocol\1iep_ligandH.pdb
REMARK  8 active torsions:
REMARK  status: ('A' for Active; 'I' for Inactive)
REMARK    1  A    between atoms: _5  and  _11
REMARK    2  A    between atoms: _19  and  _21
REMARK    3  A    between atoms: _22  and  _66
REMARK    4  A    between atoms: _27  and  _30
REMARK    5  A    between atoms: _32  and  _33
REMARK    6  A    between atoms: _38  and  _43
REMARK    7  A    between atoms: _43  and  _46
REMARK    8  A    between atoms: _53  and  _55
REMARK                            x       y       z     vdW  Elec       q    Type
REMARK                         _______ _______ _______ _____ _____    ______ ____
ROOT
ATOM     10  C   UNL     1      30.846 -13.577  26.606  0.00  0.00    +0.038 A 
ATOM     11  C   UNL     1      30.061 -13.789  25.444  0.00  0.00    +0.047 A 
ATOM     12  C   UNL     1      30.649 -13.714  24.116  0.00  0.00    +0.035 A 
ATOM     32  C   UNL     1      32.041 -13.424  24.008  0.00  0.00    +0.024 A 
ATOM     33  C   UNL     1      32.852 -13.205  25.179  0.00  0.00    +0.007 A 
ATOM     34  C   UNL     1      32.277 -13.275  26.492  0.00  0.00    -0.029 A 
ATOM     35  C   UNL     1      33.194 -13.024  27.712  0.00  0.00    +0.045 C 
ENDROOT
BRANCH  10   9
ATOM      4  C   UNL     1      28.515 -11.618  30.317  0.00  0.00    +0.077 A 
ATOM      5  C   UNL     1      28.552 -10.311  29.726  0.00  0.00    +0.048 A 
ATOM      6  C   UNL     1      29.186 -10.184  28.469  0.00  0.00    +0.116 A 
ATOM      7  N   UNL     1      29.738 -11.289  27.859  0.00  0.00    -0.223 NA
ATOM      8  C   UNL     1      29.687 -12.535  28.457  0.00  0.00    +0.220 A 
ATOM      9  N   UNL     1      30.229 -13.661  27.857  0.00  0.00    -0.283 N 
ATOM     36  H   UNL     1      30.178 -14.561  28.334  0.00  0.00    +0.155 HD
ATOM     37  N   UNL     1      29.088 -12.682  29.657  0.00  0.00    -0.214 NA
BRANCH   4   3
ATOM      1  C   UNL     1      27.870 -12.963  33.933  0.00  0.00    +0.020 A 
ATOM      2  C   UNL     1      28.529 -12.707  32.673  0.00  0.00    +0.013 A 
ATOM      3  C   UNL     1      27.877 -11.913  31.639  0.00  0.00    +0.019 A 
ATOM     38  C   UNL     1      26.549 -11.386  31.914  0.00  0.00    +0.120 A 
ATOM     39  N   UNL     1      25.938 -11.650  33.136  0.00  0.00    -0.263 NA
ATOM     40  C   UNL     1      26.555 -12.415  34.138  0.00  0.00    +0.111 A 
ENDBRANCH   4   3
ENDBRANCH  10   9
BRANCH  12  13
ATOM     13  N   UNL     1      29.901 -13.913  22.899  0.00  0.00    -0.281 N 
ATOM     14  C   UNL     1      29.458 -12.951  22.006  0.00  0.00    +0.248 C 
ATOM     30  O   UNL     1      29.453 -11.750  22.230  0.00  0.00    -0.270 OA
ATOM     31  H   UNL     1      29.670 -14.879  22.668  0.00  0.00    +0.155 HD
BRANCH  14  15
ATOM     15  C   UNL     1      28.929 -13.388  20.678  0.00  0.00    +0.037 A 
ATOM     16  C   UNL     1      28.630 -14.796  20.405  0.00  0.00    +0.013 A 
ATOM     17  C   UNL     1      28.138 -15.193  19.109  0.00  0.00    +0.005 A 
ATOM     18  C   UNL     1      27.940 -14.179  18.077  0.00  0.00    -0.033 A 
ATOM     28  C   UNL     1      28.240 -12.788  18.376  0.00  0.00    +0.005 A 
ATOM     29  C   UNL     1      28.724 -12.396  19.644  0.00  0.00    +0.013 A 
BRANCH  18  19
ATOM     19  C   UNL     1      27.439 -14.514  16.660  0.00  0.00    +0.119 C 
BRANCH  19  20
ATOM     20  N   UNL     1      28.422 -14.399  15.541  0.00  0.00    -0.302 NA
ATOM     21  C   UNL     1      27.824 -14.842  14.203  0.00  0.00    +0.066 C 
ATOM     22  C   UNL     1      28.858 -14.693  13.040  0.00  0.00    -0.064 C 
ATOM     23  N   UNL     1      30.111 -15.507  13.369  0.00  0.00    +0.379 N 
ATOM     24  C   UNL     1      31.062 -15.416  12.252  0.00  0.00    -0.096 C 
ATOM     25  H   UNL     1      29.805 -16.574  13.467  0.00  0.00    -0.082 HD
ATOM     26  C   UNL     1      30.711 -15.075  14.700  0.00  0.00    -0.064 C 
ATOM     27  C   UNL     1      29.665 -15.198  15.843  0.00  0.00    +0.066 C 
ENDBRANCH  19  20
ENDBRANCH  18  19
ENDBRANCH  14  15
ENDBRANCH  12  13
TORSDOF 6
ENDMDL
MODEL 2
REMARK VINA RESULT:      -7.6     25.619     29.650
REMARK  Name = C:\Users\Docking\Desktop\test protocol\1iep_ligandH.pdb
REMARK  8 active torsions:
REMARK  status: ('A' for Active; 'I' for Inactive)
REMARK    1  A    between atoms: _5  and  _11
REMARK    2  A    between atoms: _19  and  _21
REMARK    3  A    between atoms: _22  and  _66
REMARK    4  A    between atoms: _27  and  _30
REMARK    5  A    between atoms: _32  and  _33
REMARK    6  A    between atoms: _38  and  _43
REMARK    7  A    between atoms: _43  and  _46
REMARK    8  A    between atoms: _53  and  _55
REMARK                            x       y       z     vdW  Elec       q    Type
REMARK                         _______ _______ _______ _____ _____    ______ ____
ROOT
ATOM     10  C   UNL     1      24.947   0.055  49.161  0.00  0.00    +0.038 A 
ATOM     11  C   UNL     1      24.653   1.005  48.149  0.00  0.00    +0.047 A 
ATOM     12  C   UNL     1      25.284   2.315  48.141  0.00  0.00    +0.035 A 
ATOM     32  C   UNL     1      26.212   2.625  49.177  0.00  0.00    +0.024 A 
ATOM     33  C   UNL     1      26.522   1.672  50.214  0.00  0.00    +0.007 A 
ATOM     34  C   UNL     1      25.901   0.379  50.229  0.00  0.00    -0.029 A 
ATOM     35  C   UNL     1      26.266  -0.600  51.369  0.00  0.00    +0.045 C 
ENDROOT
BRANCH  10   9
ATOM      4  C   UNL     1      24.621  -4.484  47.636  0.00  0.00    +0.077 A 
ATOM      5  C   UNL     1      25.802  -4.360  46.830  0.00  0.00    +0.048 A 
ATOM      6  C   UNL     1      26.459  -3.109  46.830  0.00  0.00    +0.116 A 
ATOM      7  N   UNL     1      25.964  -2.067  47.584  0.00  0.00    -0.223 NA
ATOM      8  C   UNL     1      24.823  -2.220  48.349  0.00  0.00    +0.220 A 
ATOM      9  N   UNL     1      24.312  -1.188  49.121  0.00  0.00    -0.283 N 
ATOM     36  H   UNL     1      23.463  -1.338  49.666  0.00  0.00    +0.155 HD
ATOM     37  N   UNL     1      24.176  -3.404  48.365  0.00  0.00    -0.214 NA
BRANCH   4   3
ATOM      1  C   UNL     1      22.675  -7.560  49.067  0.00  0.00    +0.020 A 
ATOM      2  C   UNL     1      23.453  -6.343  49.019  0.00  0.00    +0.013 A 
ATOM      3  C   UNL     1      23.818  -5.743  47.742  0.00  0.00    +0.019 A 
ATOM     38  C   UNL     1      23.377  -6.403  46.523  0.00  0.00    +0.120 A 
ATOM     39  N   UNL     1      22.630  -7.574  46.600  0.00  0.00    -0.263 NA
ATOM     40  C   UNL     1      22.274  -8.163  47.823  0.00  0.00    +0.111 A 
ENDBRANCH   4   3
ENDBRANCH  10   9
BRANCH  12  13
ATOM     13  N   UNL     1      25.018   3.323  47.144  0.00  0.00    -0.281 N 
ATOM     14  C   UNL     1      24.218   4.447  47.262  0.00  0.00    +0.248 C 
ATOM     30  O   UNL     1      23.435   4.645  48.179  0.00  0.00    -0.270 OA
ATOM     31  H   UNL     1      25.476   3.191  46.242  0.00  0.00    +0.155 HD
BRANCH  14  15
ATOM     15  C   UNL     1      24.287   5.497  46.200  0.00  0.00    +0.037 A 
ATOM     16  C   UNL     1      23.178   5.707  45.265  0.00  0.00    +0.013 A 
ATOM     17  C   UNL     1      23.278   6.715  44.240  0.00  0.00    +0.005 A 
ATOM     18  C   UNL     1      24.492   7.523  44.145  0.00  0.00    -0.033 A 
ATOM     28  C   UNL     1      25.574   7.297  45.088  0.00  0.00    +0.005 A 
ATOM     29  C   UNL     1      25.481   6.309  46.094  0.00  0.00    +0.013 A 
BRANCH  18  19
ATOM     19  C   UNL     1      24.693   8.606  43.069  0.00  0.00    +0.119 C 
BRANCH  19  20
ATOM     20  N   UNL     1      24.689  10.029  43.523  0.00  0.00    -0.302 NA
ATOM     21  C   UNL     1      23.271  10.547  43.776  0.00  0.00    +0.066 C 
ATOM     22  C   UNL     1      23.286  12.030  44.271  0.00  0.00    -0.064 C 
ATOM     23  N   UNL     1      24.005  12.902  43.240  0.00  0.00    +0.379 N 
ATOM     24  C   UNL     1      23.971  14.306  43.675  0.00  0.00    -0.096 C 
ATOM     25  H   UNL     1      23.438  12.830  42.283  0.00  0.00    -0.082 HD
ATOM     26  C   UNL     1      25.416  12.392  42.980  0.00  0.00    -0.064 C 
ATOM     27  C   UNL     1      25.391  10.908  42.517  0.00  0.00    +0.066 C 
ENDBRANCH  19  20
ENDBRANCH  18  19
ENDBRANCH  14  15
ENDBRANCH  12  13
TORSDOF 6
ENDMDL
MODEL 3
REMARK VINA RESULT:      -7.5     24.126     29.867
REMARK  Name = C:\Users\Docking\Desktop\test protocol\1iep_ligandH.pdb
REMARK  8 active torsions:
REMARK  status: ('A' for Active; 'I' for Inactive)
REMARK    1  A    between atoms: _5  and  _11
REMARK    2  A    between atoms: _19  and  _21
REMARK    3  A    between atoms: _22  and  _66
REMARK    4  A    between atoms: _27  and  _30
REMARK    5  A    between atoms: _32  and  _33
REMARK    6  A    between atoms: _38  and  _43
REMARK    7  A    between atoms: _43  and  _46
REMARK    8  A    between atoms: _53  and  _55
REMARK                            x       y       z     vdW  Elec       q    Type
REMARK                         _______ _______ _______ _____ _____    ______ ____
ROOT
ATOM     10  C   UNL     1      23.713   1.675  47.792  0.00  0.00    +0.038 A 
ATOM     11  C   UNL     1      24.082   2.708  46.893  0.00  0.00    +0.047 A 
ATOM     12  C   UNL     1      24.251   4.079  47.350  0.00  0.00    +0.035 A 
ATOM     32  C   UNL     1      24.039   4.361  48.731  0.00  0.00    +0.024 A 
ATOM     33  C   UNL     1      23.662   3.323  49.658  0.00  0.00    +0.007 A 
ATOM     34  C   UNL     1      23.492   1.970  49.212  0.00  0.00    -0.029 A 
ATOM     35  C   UNL     1      23.081   0.899  50.250  0.00  0.00    +0.045 C 
ENDROOT
BRANCH  10   9
ATOM      4  C   UNL     1      25.360  -2.762  46.990  0.00  0.00    +0.077 A 
ATOM      5  C   UNL     1      26.632  -2.460  47.579  0.00  0.00    +0.048 A 
ATOM      6  C   UNL     1      26.825  -1.149  48.070  0.00  0.00    +0.116 A 
ATOM      7  N   UNL     1      25.814  -0.218  47.974  0.00  0.00    -0.223 NA
ATOM      8  C   UNL     1      24.599  -0.542  47.398  0.00  0.00    +0.220 A 
ATOM      9  N   UNL     1      23.565   0.377  47.299  0.00  0.00    -0.283 N 
ATOM     36  H   UNL     1      22.687   0.101  46.860  0.00  0.00    +0.155 HD
ATOM     37  N   UNL     1      24.390  -1.786  46.921  0.00  0.00    -0.214 NA
BRANCH   4   3
ATOM      1  C   UNL     1      24.492  -6.562  46.667  0.00  0.00    +0.020 A 
ATOM      2  C   UNL     1      24.838  -5.290  47.259  0.00  0.00    +0.013 A 
ATOM      3  C   UNL     1      25.002  -4.103  46.429  0.00  0.00    +0.019 A 
ATOM     38  C   UNL     1      24.808  -4.238  44.993  0.00  0.00    +0.120 A 
ATOM     39  N   UNL     1      24.476  -5.476  44.452  0.00  0.00    -0.263 NA
ATOM     40  C   UNL     1      24.317  -6.626  45.240  0.00  0.00    +0.111 A 
ENDBRANCH   4   3
ENDBRANCH  10   9
BRANCH  12  13
ATOM     13  N   UNL     1      24.616   5.171  46.482  0.00  0.00    -0.281 N 
ATOM     14  C   UNL     1      23.857   5.752  45.480  0.00  0.00    +0.248 C 
ATOM     30  O   UNL     1      22.823   5.279  45.032  0.00  0.00    -0.270 OA
ATOM     31  H   UNL     1      25.547   5.562  46.623  0.00  0.00    +0.155 HD
BRANCH  14  15
ATOM     15  C   UNL     1      24.322   7.039  44.877  0.00  0.00    +0.037 A 
ATOM     16  C   UNL     1      24.751   8.160  45.716  0.00  0.00    +0.013 A 
ATOM     17  C   UNL     1      25.178   9.396  45.109  0.00  0.00    +0.005 A 
ATOM     18  C   UNL     1      25.179   9.516  43.653  0.00  0.00    -0.033 A 
ATOM     28  C   UNL     1      24.754   8.386  42.844  0.00  0.00    +0.005 A 
ATOM     29  C   UNL     1      24.333   7.174  43.436  0.00  0.00    +0.013 A 
BRANCH  18  19
ATOM     19  C   UNL     1      25.599  10.804  42.921  0.00  0.00    +0.119 C 
BRANCH  19  20
ATOM     20  N   UNL     1      24.696  11.987  43.045  0.00  0.00    -0.302 NA
ATOM     21  C   UNL     1      23.225  11.610  42.843  0.00  0.00    +0.066 C 
ATOM     22  C   UNL     1      22.292  12.854  42.999  0.00  0.00    -0.064 C 
ATOM     23  N   UNL     1      22.716  13.934  42.001  0.00  0.00    +0.379 N 
ATOM     24  C   UNL     1      21.804  15.083  42.104  0.00  0.00    -0.096 C 
ATOM     25  H   UNL     1      22.609  13.508  40.976  0.00  0.00    -0.082 HD
ATOM     26  C   UNL     1      24.178  14.313  42.192  0.00  0.00    -0.064 C 
ATOM     27  C   UNL     1      25.094  13.063  42.065  0.00  0.00    +0.066 C 
ENDBRANCH  19  20
ENDBRANCH  18  19
ENDBRANCH  14  15
ENDBRANCH  12  13
TORSDOF 6
ENDMDL
