MODEL 1
REMARK VINA RESULT:      -9.6      0.000      0.000
REMARK  Name = C:\Users\Docking\Desktop\test protocol\1iep_ligandH.pdb
REMARK  8 active torsions:
REMARK  status: ('A' for Active; 'I' for Inactive)
REMARK    1  A    between atoms: _5  and  _11
REMARK    2  A    between atoms: _19  and  _21
REMARK    3  A    between atoms: _22  and  _66
REMARK    4  A    between atoms: _27  and  _30
REMARK    5  A    between atoms: _32  and  _33
REMARK    6  A    between atoms: _38  and  _43
REMARK    7  A    between atoms: _43  and  _46
REMARK    8  A    between atoms: _53  and  _55
REMARK                            x       y       z     vdW  Elec       q    Type
REMARK                         _______ _______ _______ _____ _____    ______ ____
ROOT
ATOM     10  C   UNL     1      37.763  28.570 121.206  0.00  0.00    +0.038 A 
ATOM     11  C   UNL     1      37.895  28.266 119.826  0.00  0.00    +0.047 A 
ATOM     12  C   UNL     1      36.960  28.798 118.847  0.00  0.00    +0.035 A 
ATOM     32  C   UNL     1      35.904  29.638 119.306  0.00  0.00    +0.024 A 
ATOM     33  C   UNL     1      35.755  29.955 120.705  0.00  0.00    +0.007 A 
ATOM     34  C   UNL     1      36.673  29.432 121.676  0.00  0.00    -0.029 A 
ATOM     35  C   UNL     1      36.461  29.801 123.163  0.00  0.00    +0.045 C 
ENDROOT
BRANCH  10   9
ATOM      4  C   UNL     1      39.207  25.167 124.268  0.00  0.00    +0.077 A 
ATOM      5  C   UNL     1      38.002  24.409 124.085  0.00  0.00    +0.048 A 
ATOM      6  C   UNL     1      37.034  24.933 123.200  0.00  0.00    +0.116 A 
ATOM      7  N   UNL     1      37.263  26.127 122.551  0.00  0.00    -0.223 NA
ATOM      8  C   UNL     1      38.434  26.834 122.751  0.00  0.00    +0.220 A 
ATOM      9  N   UNL     1      38.689  28.032 122.103  0.00  0.00    -0.283 N 
ATOM     36  H   UNL     1      39.562  28.527 122.283  0.00  0.00    +0.155 HD
ATOM     37  N   UNL     1      39.374  26.355 123.592  0.00  0.00    -0.214 NA
BRANCH   4   3
ATOM      1  C   UNL     1      41.449  23.099 126.716  0.00  0.00    +0.020 A 
ATOM      2  C   UNL     1      40.343  23.460 125.859  0.00  0.00    +0.013 A 
ATOM      3  C   UNL     1      40.325  24.743 125.167  0.00  0.00    +0.019 A 
ATOM     38  C   UNL     1      41.450  25.644 125.366  0.00  0.00    +0.120 A 
ATOM     39  N   UNL     1      42.500  25.270 126.199  0.00  0.00    -0.263 NA
ATOM     40  C   UNL     1      42.528  24.039 126.871  0.00  0.00    +0.111 A 
ENDBRANCH   4   3
ENDBRANCH  10   9
BRANCH  12  13
ATOM     13  N   UNL     1      37.038  28.517 117.434  0.00  0.00    -0.281 N 
ATOM     14  C   UNL     1      38.037  28.885 116.547  0.00  0.00    +0.248 C 
ATOM     30  O   UNL     1      38.915  29.698 116.794  0.00  0.00    -0.270 OA
ATOM     31  H   UNL     1      36.264  27.984 117.041  0.00  0.00    +0.155 HD
BRANCH  14  15
ATOM     15  C   UNL     1      38.055  28.270 115.185  0.00  0.00    +0.037 A 
ATOM     16  C   UNL     1      38.947  28.772 114.137  0.00  0.00    +0.013 A 
ATOM     17  C   UNL     1      38.932  28.172 112.826  0.00  0.00    +0.005 A 
ATOM     18  C   UNL     1      38.021  27.062 112.557  0.00  0.00    -0.033 A 
ATOM     28  C   UNL     1      37.150  26.581 113.617  0.00  0.00    +0.005 A 
ATOM     29  C   UNL     1      37.162  27.167 114.902  0.00  0.00    +0.013 A 
BRANCH  18  19
ATOM     19  C   UNL     1      37.923  26.376 111.182  0.00  0.00    +0.119 C 
BRANCH  19  20
ATOM     20  N   UNL     1      36.559  26.004 110.699  0.00  0.00    -0.302 NA
ATOM     21  C   UNL     1      36.524  24.592 110.109  0.00  0.00    +0.066 C 
ATOM     22  C   UNL     1      35.085  24.211 109.629  0.00  0.00    -0.064 C 
ATOM     23  N   UNL     1      34.603  25.239 108.604  0.00  0.00    +0.379 N 
ATOM     24  C   UNL     1      33.274  24.852 108.109  0.00  0.00    -0.096 C 
ATOM     25  H   UNL     1      35.308  25.211 107.741  0.00  0.00    -0.082 HD
ATOM     26  C   UNL     1      34.638  26.646 109.183  0.00  0.00    -0.064 C 
ATOM     27  C   UNL     1      36.065  27.004 109.683  0.00  0.00    +0.066 C 
ENDBRANCH  19  20
ENDBRANCH  18  19
ENDBRANCH  14  15
ENDBRANCH  12  13
TORSDOF 6
ENDMDL
MODEL 2
REMARK VINA RESULT:      -9.4     13.882     18.367
REMARK  Name = C:\Users\Docking\Desktop\test protocol\1iep_ligandH.pdb
REMARK  8 active torsions:
REMARK  status: ('A' for Active; 'I' for Inactive)
REMARK    1  A    between atoms: _5  and  _11
REMARK    2  A    between atoms: _19  and  _21
REMARK    3  A    between atoms: _22  and  _66
REMARK    4  A    between atoms: _27  and  _30
REMARK    5  A    between atoms: _32  and  _33
REMARK    6  A    between atoms: _38  and  _43
REMARK    7  A    between atoms: _43  and  _46
REMARK    8  A    between atoms: _53  and  _55
REMARK                            x       y       z     vdW  Elec       q    Type
REMARK                         _______ _______ _______ _____ _____    ______ ____
ROOT
ATOM     10  C   UNL     1      45.169  36.085 107.950  0.00  0.00    +0.038 A 
ATOM     11  C   UNL     1      46.540  35.972 108.295  0.00  0.00    +0.047 A 
ATOM     12  C   UNL     1      47.457  37.086 108.111  0.00  0.00    +0.035 A 
ATOM     32  C   UNL     1      46.942  38.302 107.574  0.00  0.00    +0.024 A 
ATOM     33  C   UNL     1      45.551  38.434 107.216  0.00  0.00    +0.007 A 
ATOM     34  C   UNL     1      44.643  37.337 107.394  0.00  0.00    -0.029 A 
ATOM     35  C   UNL     1      43.164  37.533 106.988  0.00  0.00    +0.045 C 
ENDROOT
BRANCH  10   9
ATOM      4  C   UNL     1      41.907  33.650 110.494  0.00  0.00    +0.077 A 
ATOM      5  C   UNL     1      41.885  34.645 111.528  0.00  0.00    +0.048 A 
ATOM      6  C   UNL     1      42.733  35.764 111.371  0.00  0.00    +0.116 A 
ATOM      7  N   UNL     1      43.539  35.870 110.258  0.00  0.00    -0.223 NA
ATOM      8  C   UNL     1      43.537  34.892 109.280  0.00  0.00    +0.220 A 
ATOM      9  N   UNL     1      44.334  34.983 108.149  0.00  0.00    -0.283 N 
ATOM     36  H   UNL     1      44.309  34.237 107.454  0.00  0.00    +0.155 HD
ATOM     37  N   UNL     1      42.737  33.813 109.408  0.00  0.00    -0.214 NA
BRANCH   4   3
ATOM      1  C   UNL     1      40.649  29.982 109.983  0.00  0.00    +0.020 A 
ATOM      2  C   UNL     1      41.501  31.148 109.936  0.00  0.00    +0.013 A 
ATOM      3  C   UNL     1      41.065  32.413 110.515  0.00  0.00    +0.019 A 
ATOM     38  C   UNL     1      39.752  32.464 111.140  0.00  0.00    +0.120 A 
ATOM     39  N   UNL     1      38.953  31.325 111.169  0.00  0.00    -0.263 NA
ATOM     40  C   UNL     1      39.361  30.103 110.614  0.00  0.00    +0.111 A 
ENDBRANCH   4   3
ENDBRANCH  10   9
BRANCH  12  13
ATOM     13  N   UNL     1      48.860  37.028 108.435  0.00  0.00    -0.281 N 
ATOM     14  C   UNL     1      49.444  37.015 109.692  0.00  0.00    +0.248 C 
ATOM     30  O   UNL     1      48.853  37.268 110.731  0.00  0.00    -0.270 OA
ATOM     31  H   UNL     1      49.501  36.992 107.643  0.00  0.00    +0.155 HD
BRANCH  14  15
ATOM     15  C   UNL     1      50.897  36.687 109.809  0.00  0.00    +0.037 A 
ATOM     16  C   UNL     1      51.891  37.317 108.937  0.00  0.00    +0.013 A 
ATOM     17  C   UNL     1      53.285  36.971 109.059  0.00  0.00    +0.005 A 
ATOM     18  C   UNL     1      53.693  35.989 110.061  0.00  0.00    -0.033 A 
ATOM     28  C   UNL     1      52.687  35.383 110.918  0.00  0.00    +0.005 A 
ATOM     29  C   UNL     1      51.320  35.720 110.799  0.00  0.00    +0.013 A 
BRANCH  18  19
ATOM     19  C   UNL     1      55.156  35.543 110.249  0.00  0.00    +0.119 C 
BRANCH  19  20
ATOM     20  N   UNL     1      55.708  34.576 109.254  0.00  0.00    -0.302 NA
ATOM     21  C   UNL     1      55.276  33.137 109.550  0.00  0.00    +0.066 C 
ATOM     22  C   UNL     1      55.845  32.142 108.487  0.00  0.00    -0.064 C 
ATOM     23  N   UNL     1      57.370  32.253 108.453  0.00  0.00    +0.379 N 
ATOM     24  C   UNL     1      57.911  31.277 107.496  0.00  0.00    -0.096 C 
ATOM     25  H   UNL     1      57.752  31.982 109.465  0.00  0.00    -0.082 HD
ATOM     26  C   UNL     1      57.808  33.681 108.161  0.00  0.00    -0.064 C 
ATOM     27  C   UNL     1      57.214  34.666 109.206  0.00  0.00    +0.066 C 
ENDBRANCH  19  20
ENDBRANCH  18  19
ENDBRANCH  14  15
ENDBRANCH  12  13
TORSDOF 6
ENDMDL
MODEL 3
REMARK VINA RESULT:      -9.3      2.454      3.714
REMARK  Name = C:\Users\Docking\Desktop\test protocol\1iep_ligandH.pdb
REMARK  8 active torsions:
REMARK  status: ('A' for Active; 'I' for Inactive)
REMARK    1  A    between atoms: _5  and  _11
REMARK    2  A    between atoms: _19  and  _21
REMARK    3  A    between atoms: _22  and  _66
REMARK    4  A    between atoms: _27  and  _30
REMARK    5  A    between atoms: _32  and  _33
REMARK    6  A    between atoms: _38  and  _43
REMARK    7  A    between atoms: _43  and  _46
REMARK    8  A    between atoms: _53  and  _55
REMARK                            x       y       z     vdW  Elec       q    Type
REMARK                         _______ _______ _______ _____ _____    ______ ____
ROOT
ATOM     10  C   UNL     1      38.124  28.172 121.290  0.00  0.00    +0.038 A 
ATOM     11  C   UNL     1      38.471  27.872 119.948  0.00  0.00    +0.047 A 
ATOM     12  C   UNL     1      37.703  28.410 118.835  0.00  0.00    +0.035 A 
ATOM     32  C   UNL     1      36.590  29.251 119.126  0.00  0.00    +0.024 A 
ATOM     33  C   UNL     1      36.224  29.565 120.485  0.00  0.00    +0.007 A 
ATOM     34  C   UNL     1      36.975  29.036 121.586  0.00  0.00    -0.029 A 
ATOM     35  C   UNL     1      36.533  29.401 123.023  0.00  0.00    +0.045 C 
ENDROOT
BRANCH  10   9
ATOM      4  C   UNL     1      38.993  24.817 124.611  0.00  0.00    +0.077 A 
ATOM      5  C   UNL     1      37.795  24.100 124.285  0.00  0.00    +0.048 A 
ATOM      6  C   UNL     1      36.978  24.631 123.262  0.00  0.00    +0.116 A 
ATOM      7  N   UNL     1      37.343  25.794 122.619  0.00  0.00    -0.223 NA
ATOM      8  C   UNL     1      38.505  26.462 122.959  0.00  0.00    +0.220 A 
ATOM      9  N   UNL     1      38.896  27.629 122.320  0.00  0.00    -0.283 N 
ATOM     36  H   UNL     1      39.757  28.096 122.605  0.00  0.00    +0.155 HD
ATOM     37  N   UNL     1      39.301  25.976 123.934  0.00  0.00    -0.214 NA
BRANCH   4   3
ATOM      1  C   UNL     1      42.289  24.153 126.610  0.00  0.00    +0.020 A 
ATOM      2  C   UNL     1      41.398  24.594 125.562  0.00  0.00    +0.013 A 
ATOM      3  C   UNL     1      39.961  24.380 125.667  0.00  0.00    +0.019 A 
ATOM     38  C   UNL     1      39.452  23.713 126.856  0.00  0.00    +0.120 A 
ATOM     39  N   UNL     1      40.334  23.298 127.849  0.00  0.00    -0.263 NA
ATOM     40  C   UNL     1      41.720  23.497 127.758  0.00  0.00    +0.111 A 
ENDBRANCH   4   3
ENDBRANCH  10   9
BRANCH  12  13
ATOM     13  N   UNL     1      38.002  28.134 117.452  0.00  0.00    -0.281 N 
ATOM     14  C   UNL     1      37.183  27.540 116.506  0.00  0.00    +0.248 C 
ATOM     30  O   UNL     1      36.139  26.959 116.762  0.00  0.00    -0.270 OA
ATOM     31  H   UNL     1      38.930  28.410 117.131  0.00  0.00    +0.155 HD
BRANCH  14  15
ATOM     15  C   UNL     1      37.590  27.585 115.068  0.00  0.00    +0.037 A 
ATOM     16  C   UNL     1      37.061  26.623 114.098  0.00  0.00    +0.013 A 
ATOM     17  C   UNL     1      37.483  26.679 112.721  0.00  0.00    +0.005 A 
ATOM     18  C   UNL     1      38.439  27.703 112.305  0.00  0.00    -0.033 A 
ATOM     28  C   UNL     1      38.943  28.648 113.287  0.00  0.00    +0.005 A 
ATOM     29  C   UNL     1      38.533  28.596 114.638  0.00  0.00    +0.013 A 
BRANCH  18  19
ATOM     19  C   UNL     1      38.960  27.823 110.861  0.00  0.00    +0.119 C 
BRANCH  19  20
ATOM     20  N   UNL     1      39.941  28.913 110.577  0.00  0.00    -0.302 NA
ATOM     21  C   UNL     1      39.444  30.276 111.068  0.00  0.00    +0.066 C 
ATOM     22  C   UNL     1      40.492  31.400 110.783  0.00  0.00    -0.064 C 
ATOM     23  N   UNL     1      40.795  31.443 109.284  0.00  0.00    +0.379 N 
ATOM     24  C   UNL     1      41.736  32.537 109.005  0.00  0.00    -0.096 C 
ATOM     25  H   UNL     1      39.842  31.672 108.753  0.00  0.00    -0.082 HD
ATOM     26  C   UNL     1      41.288  30.091 108.787  0.00  0.00    -0.064 C 
ATOM     27  C   UNL     1      40.252  28.976 109.102  0.00  0.00    +0.066 C 
ENDBRANCH  19  20
ENDBRANCH  18  19
ENDBRANCH  14  15
ENDBRANCH  12  13
TORSDOF 6
ENDMDL
MODEL 4
REMARK VINA RESULT:      -9.3      1.882      2.716
REMARK  Name = C:\Users\Docking\Desktop\test protocol\1iep_ligandH.pdb
REMARK  8 active torsions:
REMARK  status: ('A' for Active; 'I' for Inactive)
REMARK    1  A    between atoms: _5  and  _11
REMARK    2  A    between atoms: _19  and  _21
REMARK    3  A    between atoms: _22  and  _66
REMARK    4  A    between atoms: _27  and  _30
REMARK    5  A    between atoms: _32  and  _33
REMARK    6  A    between atoms: _38  and  _43
REMARK    7  A    between atoms: _43  and  _46
REMARK    8  A    between atoms: _53  and  _55
REMARK                            x       y       z     vdW  Elec       q    Type
REMARK                         _______ _______ _______ _____ _____    ______ ____
ROOT
ATOM     10  C   UNL     1      37.596  28.616 120.876  0.00  0.00    +0.038 A 
ATOM     11  C   UNL     1      37.578  28.150 119.536  0.00  0.00    +0.047 A 
ATOM     12  C   UNL     1      36.447  28.418 118.662  0.00  0.00    +0.035 A 
ATOM     32  C   UNL     1      35.352  29.166 119.184  0.00  0.00    +0.024 A 
ATOM     33  C   UNL     1      35.353  29.646 120.543  0.00  0.00    +0.007 A 
ATOM     34  C   UNL     1      36.465  29.383 121.411  0.00  0.00    -0.029 A 
ATOM     35  C   UNL     1      36.410  29.917 122.862  0.00  0.00    +0.045 C 
ENDROOT
BRANCH  10   9
ATOM      4  C   UNL     1      39.935  25.888 124.057  0.00  0.00    +0.077 A 
ATOM      5  C   UNL     1      38.839  24.968 124.164  0.00  0.00    +0.048 A 
ATOM      6  C   UNL     1      37.689  25.238 123.389  0.00  0.00    +0.116 A 
ATOM      7  N   UNL     1      37.649  26.346 122.571  0.00  0.00    -0.223 NA
ATOM      8  C   UNL     1      38.723  27.214 122.493  0.00  0.00    +0.220 A 
ATOM      9  N   UNL     1      38.708  28.330 121.671  0.00  0.00    -0.283 N 
ATOM     36  H   UNL     1      39.518  28.950 121.647  0.00  0.00    +0.155 HD
ATOM     37  N   UNL     1      39.833  26.979 123.224  0.00  0.00    -0.214 NA
BRANCH   4   3
ATOM      1  C   UNL     1      42.910  24.379 126.100  0.00  0.00    +0.020 A 
ATOM      2  C   UNL     1      41.660  24.471 125.382  0.00  0.00    +0.013 A 
ATOM      3  C   UNL     1      41.221  25.737 124.810  0.00  0.00    +0.019 A 
ATOM     38  C   UNL     1      42.076  26.901 124.984  0.00  0.00    +0.120 A 
ATOM     39  N   UNL     1      43.274  26.783 125.681  0.00  0.00    -0.263 NA
ATOM     40  C   UNL     1      43.707  25.570 126.237  0.00  0.00    +0.111 A 
ENDBRANCH   4   3
ENDBRANCH  10   9
BRANCH  12  13
ATOM     13  N   UNL     1      36.369  27.964 117.295  0.00  0.00    -0.281 N 
ATOM     14  C   UNL     1      37.269  28.195 116.268  0.00  0.00    +0.248 C 
ATOM     30  O   UNL     1      38.177  29.012 116.316  0.00  0.00    -0.270 OA
ATOM     31  H   UNL     1      35.550  27.404 117.056  0.00  0.00    +0.155 HD
BRANCH  14  15
ATOM     15  C   UNL     1      37.132  27.417 115.000  0.00  0.00    +0.037 A 
ATOM     16  C   UNL     1      36.003  26.508 114.783  0.00  0.00    +0.013 A 
ATOM     17  C   UNL     1      35.905  25.757 113.557  0.00  0.00    +0.005 A 
ATOM     18  C   UNL     1      36.939  25.912 112.537  0.00  0.00    -0.033 A 
ATOM     28  C   UNL     1      38.045  26.824 112.775  0.00  0.00    +0.005 A 
ATOM     29  C   UNL     1      38.145  27.562 113.976  0.00  0.00    +0.013 A 
BRANCH  18  19
ATOM     19  C   UNL     1      36.925  25.134 111.207  0.00  0.00    +0.119 C 
BRANCH  19  20
ATOM     20  N   UNL     1      37.962  24.075 111.025  0.00  0.00    -0.302 NA
ATOM     21  C   UNL     1      38.064  23.616 109.567  0.00  0.00    +0.066 C 
ATOM     22  C   UNL     1      39.169  22.524 109.390  0.00  0.00    -0.064 C 
ATOM     23  N   UNL     1      38.866  21.341 110.311  0.00  0.00    +0.379 N 
ATOM     24  C   UNL     1      39.871  20.288 110.105  0.00  0.00    -0.096 C 
ATOM     25  H   UNL     1      37.875  20.926 110.013  0.00  0.00    -0.082 HD
ATOM     26  C   UNL     1      38.761  21.790 111.762  0.00  0.00    -0.064 C 
ATOM     27  C   UNL     1      37.680  22.896 111.922  0.00  0.00    +0.066 C 
ENDBRANCH  19  20
ENDBRANCH  18  19
ENDBRANCH  14  15
ENDBRANCH  12  13
TORSDOF 6
ENDMDL
MODEL 5
REMARK VINA RESULT:      -9.1     15.322     20.740
REMARK  Name = C:\Users\Docking\Desktop\test protocol\1iep_ligandH.pdb
REMARK  8 active torsions:
REMARK  status: ('A' for Active; 'I' for Inactive)
REMARK    1  A    between atoms: _5  and  _11
REMARK    2  A    between atoms: _19  and  _21
REMARK    3  A    between atoms: _22  and  _66
REMARK    4  A    between atoms: _27  and  _30
REMARK    5  A    between atoms: _32  and  _33
REMARK    6  A    between atoms: _38  and  _43
REMARK    7  A    between atoms: _43  and  _46
REMARK    8  A    between atoms: _53  and  _55
REMARK                            x       y       z     vdW  Elec       q    Type
REMARK                         _______ _______ _______ _____ _____    ______ ____
ROOT
ATOM     10  C   UNL     1      45.353  36.568 108.772  0.00  0.00    +0.038 A 
ATOM     11  C   UNL     1      46.763  36.530 108.621  0.00  0.00    +0.047 A 
ATOM     12  C   UNL     1      47.612  35.928 109.637  0.00  0.00    +0.035 A 
ATOM     32  C   UNL     1      46.991  35.370 110.793  0.00  0.00    +0.024 A 
ATOM     33  C   UNL     1      45.559  35.401 110.962  0.00  0.00    +0.007 A 
ATOM     34  C   UNL     1      44.717  35.997 109.965  0.00  0.00    -0.029 A 
ATOM     35  C   UNL     1      43.189  36.008 110.202  0.00  0.00    +0.045 C 
ENDROOT
BRANCH  10   9
ATOM      4  C   UNL     1      43.273  36.506 104.447  0.00  0.00    +0.077 A 
ATOM      5  C   UNL     1      43.780  35.195 104.156  0.00  0.00    +0.048 A 
ATOM      6  C   UNL     1      44.577  34.575 105.144  0.00  0.00    +0.116 A 
ATOM      7  N   UNL     1      44.842  35.226 106.329  0.00  0.00    -0.223 NA
ATOM      8  C   UNL     1      44.339  36.490 106.577  0.00  0.00    +0.220 A 
ATOM      9  N   UNL     1      44.586  37.159 107.765  0.00  0.00    -0.283 N 
ATOM     36  H   UNL     1      44.203  38.094 107.906  0.00  0.00    +0.155 HD
ATOM     37  N   UNL     1      43.576  37.104 105.649  0.00  0.00    -0.214 NA
BRANCH   4   3
ATOM      1  C   UNL     1      41.236  37.618 101.298  0.00  0.00    +0.020 A 
ATOM      2  C   UNL     1      42.071  36.822 102.168  0.00  0.00    +0.013 A 
ATOM      3  C   UNL     1      42.413  37.290 103.505  0.00  0.00    +0.019 A 
ATOM     38  C   UNL     1      41.888  38.577 103.935  0.00  0.00    +0.120 A 
ATOM     39  N   UNL     1      41.088  39.322 103.075  0.00  0.00    -0.263 NA
ATOM     40  C   UNL     1      40.753  38.883 101.785  0.00  0.00    +0.111 A 
ENDBRANCH   4   3
ENDBRANCH  10   9
BRANCH  12  13
ATOM     13  N   UNL     1      49.049  35.867 109.543  0.00  0.00    -0.281 N 
ATOM     14  C   UNL     1      49.982  36.579 110.280  0.00  0.00    +0.248 C 
ATOM     30  O   UNL     1      49.716  37.539 110.988  0.00  0.00    -0.270 OA
ATOM     31  H   UNL     1      49.425  35.221 108.849  0.00  0.00    +0.155 HD
BRANCH  14  15
ATOM     15  C   UNL     1      51.419  36.175 110.208  0.00  0.00    +0.037 A 
ATOM     16  C   UNL     1      52.028  35.346 111.250  0.00  0.00    +0.013 A 
ATOM     17  C   UNL     1      53.422  34.985 111.165  0.00  0.00    +0.005 A 
ATOM     18  C   UNL     1      54.215  35.454 110.031  0.00  0.00    -0.033 A 
ATOM     28  C   UNL     1      53.583  36.271 109.009  0.00  0.00    +0.005 A 
ATOM     29  C   UNL     1      52.219  36.627 109.089  0.00  0.00    +0.013 A 
BRANCH  18  19
ATOM     19  C   UNL     1      55.713  35.135 109.870  0.00  0.00    +0.119 C 
BRANCH  19  20
ATOM     20  N   UNL     1      56.079  34.019 108.948  0.00  0.00    -0.302 NA
ATOM     21  C   UNL     1      55.602  32.661 109.472  0.00  0.00    +0.066 C 
ATOM     22  C   UNL     1      55.974  31.508 108.484  0.00  0.00    -0.064 C 
ATOM     23  N   UNL     1      57.487  31.500 108.260  0.00  0.00    +0.379 N 
ATOM     24  C   UNL     1      57.847  30.381 107.377  0.00  0.00    -0.096 C 
ATOM     25  H   UNL     1      57.974  31.323 109.247  0.00  0.00    -0.082 HD
ATOM     26  C   UNL     1      57.970  32.847 107.742  0.00  0.00    -0.064 C 
ATOM     27  C   UNL     1      57.570  33.990 108.716  0.00  0.00    +0.066 C 
ENDBRANCH  19  20
ENDBRANCH  18  19
ENDBRANCH  14  15
ENDBRANCH  12  13
TORSDOF 6
ENDMDL
