MODEL 1
REMARK VINA RESULT:      -5.4      0.000      0.000
REMARK  Name = C:\Users\Docking\Desktop\test protocol\1iep_ligandH.pdb
REMARK  8 active torsions:
REMARK  status: ('A' for Active; 'I' for Inactive)
REMARK    1  A    between atoms: _5  and  _11
REMARK    2  A    between atoms: _19  and  _21
REMARK    3  A    between atoms: _22  and  _66
REMARK    4  A    between atoms: _27  and  _30
REMARK    5  A    between atoms: _32  and  _33
REMARK    6  A    between atoms: _38  and  _43
REMARK    7  A    between atoms: _43  and  _46
REMARK    8  A    between atoms: _53  and  _55
REMARK                            x       y       z     vdW  Elec       q    Type
REMARK                         _______ _______ _______ _____ _____    ______ ____
ROOT
ATOM     10  C   UNL     1      -1.467   2.752  -3.883  0.00  0.00    +0.038 A 
ATOM     11  C   UNL     1      -1.541   1.388  -3.500  0.00  0.00    +0.047 A 
ATOM     12  C   UNL     1      -2.773   0.630  -3.655  0.00  0.00    +0.035 A 
ATOM     32  C   UNL     1      -3.909   1.291  -4.206  0.00  0.00    +0.024 A 
ATOM     33  C   UNL     1      -3.851   2.676  -4.600  0.00  0.00    +0.007 A 
ATOM     34  C   UNL     1      -2.640   3.431  -4.447  0.00  0.00    -0.029 A 
ATOM     35  C   UNL     1      -2.637   4.915  -4.880  0.00  0.00    +0.045 C 
ENDROOT
BRANCH  10   9
ATOM      4  C   UNL     1       1.776   4.998  -1.148  0.00  0.00    +0.077 A 
ATOM      5  C   UNL     1       0.985   4.824   0.036  0.00  0.00    +0.048 A 
ATOM      6  C   UNL     1      -0.253   4.157  -0.103  0.00  0.00    +0.116 A 
ATOM      7  N   UNL     1      -0.660   3.703  -1.339  0.00  0.00    -0.223 NA
ATOM      8  C   UNL     1       0.126   3.889  -2.461  0.00  0.00    +0.220 A 
ATOM      9  N   UNL     1      -0.259   3.433  -3.712  0.00  0.00    -0.283 N 
ATOM     36  H   UNL     1       0.346   3.596  -4.517  0.00  0.00    +0.155 HD
ATOM     37  N   UNL     1       1.312   4.523  -2.355  0.00  0.00    -0.214 NA
BRANCH   4   3
ATOM      1  C   UNL     1       5.265   6.398  -0.067  0.00  0.00    +0.020 A 
ATOM      2  C   UNL     1       3.987   5.727  -0.000  0.00  0.00    +0.013 A 
ATOM      3  C   UNL     1       3.109   5.679  -1.163  0.00  0.00    +0.019 A 
ATOM     38  C   UNL     1       3.558   6.323  -2.388  0.00  0.00    +0.120 A 
ATOM     39  N   UNL     1       4.794   6.962  -2.423  0.00  0.00    -0.263 NA
ATOM     40  C   UNL     1       5.646   7.017  -1.309  0.00  0.00    +0.111 A 
ENDBRANCH   4   3
ENDBRANCH  10   9
BRANCH  12  13
ATOM     13  N   UNL     1      -2.910  -0.755  -3.276  0.00  0.00    -0.281 N 
ATOM     14  C   UNL     1      -2.653  -1.878  -4.046  0.00  0.00    +0.248 C 
ATOM     30  O   UNL     1      -2.469  -1.860  -5.254  0.00  0.00    -0.270 OA
ATOM     31  H   UNL     1      -3.237  -0.928  -2.326  0.00  0.00    +0.155 HD
BRANCH  14  15
ATOM     15  C   UNL     1      -2.609  -3.215  -3.380  0.00  0.00    +0.037 A 
ATOM     16  C   UNL     1      -3.834  -3.978  -3.124  0.00  0.00    +0.013 A 
ATOM     17  C   UNL     1      -3.765  -5.257  -2.465  0.00  0.00    +0.005 A 
ATOM     18  C   UNL     1      -2.465  -5.784  -2.057  0.00  0.00    -0.033 A 
ATOM     28  C   UNL     1      -1.265  -5.009  -2.327  0.00  0.00    +0.005 A 
ATOM     29  C   UNL     1      -1.329  -3.753  -2.973  0.00  0.00    +0.013 A 
BRANCH  18  19
ATOM     19  C   UNL     1      -2.298  -7.131  -1.329  0.00  0.00    +0.119 C 
BRANCH  19  20
ATOM     20  N   UNL     1      -1.976  -7.085   0.129  0.00  0.00    -0.302 NA
ATOM     21  C   UNL     1      -2.248  -5.705   0.734  0.00  0.00    +0.066 C 
ATOM     22  C   UNL     1      -1.928  -5.681   2.264  0.00  0.00    -0.064 C 
ATOM     23  N   UNL     1      -0.470  -6.091   2.483  0.00  0.00    +0.379 N 
ATOM     24  C   UNL     1      -0.149  -6.013   3.916  0.00  0.00    -0.096 C 
ATOM     25  H   UNL     1       0.172  -5.351   1.952  0.00  0.00    -0.082 HD
ATOM     26  C   UNL     1      -0.191  -7.461   1.882  0.00  0.00    -0.064 C 
ATOM     27  C   UNL     1      -0.541  -7.482   0.368  0.00  0.00    +0.066 C 
ENDBRANCH  19  20
ENDBRANCH  18  19
ENDBRANCH  14  15
ENDBRANCH  12  13
TORSDOF 6
ENDMDL
MODEL 2
REMARK VINA RESULT:      -5.4      2.630     11.235
REMARK  Name = C:\Users\Docking\Desktop\test protocol\1iep_ligandH.pdb
REMARK  8 active torsions:
REMARK  status: ('A' for Active; 'I' for Inactive)
REMARK    1  A    between atoms: _5  and  _11
REMARK    2  A    between atoms: _19  and  _21
REMARK    3  A    between atoms: _22  and  _66
REMARK    4  A    between atoms: _27  and  _30
REMARK    5  A    between atoms: _32  and  _33
REMARK    6  A    between atoms: _38  and  _43
REMARK    7  A    between atoms: _43  and  _46
REMARK    8  A    between atoms: _53  and  _55
REMARK                            x       y       z     vdW  Elec       q    Type
REMARK                         _______ _______ _______ _____ _____    ______ ____
ROOT
ATOM     10  C   UNL     1      -3.428  -3.908  -0.298  0.00  0.00    +0.038 A 
ATOM     11  C   UNL     1      -3.040  -2.636  -0.789  0.00  0.00    +0.047 A 
ATOM     12  C   UNL     1      -2.664  -2.449  -2.182  0.00  0.00    +0.035 A 
ATOM     32  C   UNL     1      -2.697  -3.580  -3.048  0.00  0.00    +0.024 A 
ATOM     33  C   UNL     1      -3.087  -4.882  -2.565  0.00  0.00    +0.007 A 
ATOM     34  C   UNL     1      -3.457  -5.072  -1.192  0.00  0.00    -0.029 A 
ATOM     35  C   UNL     1      -3.861  -6.491  -0.728  0.00  0.00    +0.045 C 
ENDROOT
BRANCH  10   9
ATOM      4  C   UNL     1      -2.410  -5.029   4.257  0.00  0.00    +0.077 A 
ATOM      5  C   UNL     1      -1.074  -5.430   3.922  0.00  0.00    +0.048 A 
ATOM      6  C   UNL     1      -0.691  -5.340   2.565  0.00  0.00    +0.116 A 
ATOM      7  N   UNL     1      -1.584  -4.880   1.622  0.00  0.00    -0.223 NA
ATOM      8  C   UNL     1      -2.866  -4.503   1.979  0.00  0.00    +0.220 A 
ATOM      9  N   UNL     1      -3.779  -4.031   1.048  0.00  0.00    -0.283 N 
ATOM     36  H   UNL     1      -4.717  -3.769   1.350  0.00  0.00    +0.155 HD
ATOM     37  N   UNL     1      -3.257  -4.581   3.268  0.00  0.00    -0.214 NA
BRANCH   4   3
ATOM      1  C   UNL     1      -4.418  -6.061   7.452  0.00  0.00    +0.020 A 
ATOM      2  C   UNL     1      -3.915  -6.072   6.097  0.00  0.00    +0.013 A 
ATOM      3  C   UNL     1      -2.963  -5.064   5.648  0.00  0.00    +0.019 A 
ATOM     38  C   UNL     1      -2.535  -4.051   6.602  0.00  0.00    +0.120 A 
ATOM     39  N   UNL     1      -3.038  -4.065   7.899  0.00  0.00    -0.263 NA
ATOM     40  C   UNL     1      -3.956  -5.029   8.342  0.00  0.00    +0.111 A 
ENDBRANCH   4   3
ENDBRANCH  10   9
BRANCH  12  13
ATOM     13  N   UNL     1      -2.254  -1.182  -2.735  0.00  0.00    -0.281 N 
ATOM     14  C   UNL     1      -3.014  -0.287  -3.470  0.00  0.00    +0.248 C 
ATOM     30  O   UNL     1      -4.110  -0.541  -3.947  0.00  0.00    -0.270 OA
ATOM     31  H   UNL     1      -1.285  -0.912  -2.565  0.00  0.00    +0.155 HD
BRANCH  14  15
ATOM     15  C   UNL     1      -2.473   1.083  -3.723  0.00  0.00    +0.037 A 
ATOM     16  C   UNL     1      -3.101   1.980  -4.696  0.00  0.00    +0.013 A 
ATOM     17  C   UNL     1      -2.549   3.290  -4.933  0.00  0.00    +0.005 A 
ATOM     18  C   UNL     1      -1.361   3.711  -4.195  0.00  0.00    -0.033 A 
ATOM     28  C   UNL     1      -0.761   2.803  -3.231  0.00  0.00    +0.005 A 
ATOM     29  C   UNL     1      -1.299   1.518  -2.997  0.00  0.00    +0.013 A 
BRANCH  18  19
ATOM     19  C   UNL     1      -0.692   5.083  -4.399  0.00  0.00    +0.119 C 
BRANCH  19  20
ATOM     20  N   UNL     1       0.529   5.376  -3.590  0.00  0.00    -0.302 NA
ATOM     21  C   UNL     1       0.241   6.361  -2.453  0.00  0.00    +0.066 C 
ATOM     22  C   UNL     1       1.523   6.639  -1.603  0.00  0.00    -0.064 C 
ATOM     23  N   UNL     1       2.631   7.171  -2.514  0.00  0.00    +0.379 N 
ATOM     24  C   UNL     1       3.819   7.488  -1.708  0.00  0.00    -0.096 C 
ATOM     25  H   UNL     1       2.267   8.122  -2.968  0.00  0.00    -0.082 HD
ATOM     26  C   UNL     1       2.921   6.199  -3.648  0.00  0.00    -0.064 C 
ATOM     27  C   UNL     1       1.634   5.907  -4.469  0.00  0.00    +0.066 C 
ENDBRANCH  19  20
ENDBRANCH  18  19
ENDBRANCH  14  15
ENDBRANCH  12  13
TORSDOF 6
ENDMDL
MODEL 3
REMARK VINA RESULT:      -5.3      3.571      6.290
REMARK  Name = C:\Users\Docking\Desktop\test protocol\1iep_ligandH.pdb
REMARK  8 active torsions:
REMARK  status: ('A' for Active; 'I' for Inactive)
REMARK    1  A    between atoms: _5  and  _11
REMARK    2  A    between atoms: _19  and  _21
REMARK    3  A    between atoms: _22  and  _66
REMARK    4  A    between atoms: _27  and  _30
REMARK    5  A    between atoms: _32  and  _33
REMARK    6  A    between atoms: _38  and  _43
REMARK    7  A    between atoms: _43  and  _46
REMARK    8  A    between atoms: _53  and  _55
REMARK                            x       y       z     vdW  Elec       q    Type
REMARK                         _______ _______ _______ _____ _____    ______ ____
ROOT
ATOM     10  C   UNL     1      -1.980  -2.116  -2.641  0.00  0.00    +0.038 A 
ATOM     11  C   UNL     1      -1.997  -2.683  -1.341  0.00  0.00    +0.047 A 
ATOM     12  C   UNL     1      -2.818  -3.845  -1.038  0.00  0.00    +0.035 A 
ATOM     32  C   UNL     1      -3.606  -4.407  -2.084  0.00  0.00    +0.024 A 
ATOM     33  C   UNL     1      -3.601  -3.843  -3.411  0.00  0.00    +0.007 A 
ATOM     34  C   UNL     1      -2.796  -2.695  -3.715  0.00  0.00    -0.029 A 
ATOM     35  C   UNL     1      -2.834  -2.129  -5.154  0.00  0.00    +0.045 C 
ENDROOT
BRANCH  10   9
ATOM      4  C   UNL     1      -1.253   2.626  -2.785  0.00  0.00    +0.077 A 
ATOM      5  C   UNL     1      -2.601   2.904  -2.383  0.00  0.00    +0.048 A 
ATOM      6  C   UNL     1      -3.452   1.799  -2.156  0.00  0.00    +0.116 A 
ATOM      7  N   UNL     1      -2.979   0.516  -2.321  0.00  0.00    -0.223 NA
ATOM      8  C   UNL     1      -1.673   0.282  -2.712  0.00  0.00    +0.220 A 
ATOM      9  N   UNL     1      -1.173  -1.000  -2.877  0.00  0.00    -0.283 N 
ATOM     36  H   UNL     1      -0.206  -1.131  -3.173  0.00  0.00    +0.155 HD
ATOM     37  N   UNL     1      -0.841   1.321  -2.937  0.00  0.00    -0.214 NA
BRANCH   4   3
ATOM      1  C   UNL     1       0.922   5.340  -4.576  0.00  0.00    +0.020 A 
ATOM      2  C   UNL     1      -0.079   4.320  -4.364  0.00  0.00    +0.013 A 
ATOM      3  C   UNL     1      -0.233   3.687  -3.060  0.00  0.00    +0.019 A 
ATOM     38  C   UNL     1       0.648   4.114  -1.983  0.00  0.00    +0.120 A 
ATOM     39  N   UNL     1       1.603   5.098  -2.217  0.00  0.00    -0.263 NA
ATOM     40  C   UNL     1       1.762   5.712  -3.468  0.00  0.00    +0.111 A 
ENDBRANCH   4   3
ENDBRANCH  10   9
BRANCH  12  13
ATOM     13  N   UNL     1      -2.882  -4.458   0.266  0.00  0.00    -0.281 N 
ATOM     14  C   UNL     1      -1.968  -5.322   0.847  0.00  0.00    +0.248 C 
ATOM     30  O   UNL     1      -1.056  -5.869   0.245  0.00  0.00    -0.270 OA
ATOM     31  H   UNL     1      -3.701  -4.228   0.828  0.00  0.00    +0.155 HD
BRANCH  14  15
ATOM     15  C   UNL     1      -2.095  -5.634   2.303  0.00  0.00    +0.037 A 
ATOM     16  C   UNL     1      -0.938  -5.561   3.199  0.00  0.00    +0.013 A 
ATOM     17  C   UNL     1      -1.084  -5.884   4.596  0.00  0.00    +0.005 A 
ATOM     18  C   UNL     1      -2.393  -6.282   5.106  0.00  0.00    -0.033 A 
ATOM     28  C   UNL     1      -3.525  -6.341   4.196  0.00  0.00    +0.005 A 
ATOM     29  C   UNL     1      -3.386  -6.027   2.826  0.00  0.00    +0.013 A 
BRANCH  18  19
ATOM     19  C   UNL     1      -2.637  -6.664   6.578  0.00  0.00    +0.119 C 
BRANCH  19  20
ATOM     20  N   UNL     1      -2.902  -5.552   7.539  0.00  0.00    -0.302 NA
ATOM     21  C   UNL     1      -2.117  -5.720   8.843  0.00  0.00    +0.066 C 
ATOM     22  C   UNL     1      -2.389  -4.536   9.827  0.00  0.00    -0.064 C 
ATOM     23  N   UNL     1      -3.891  -4.443  10.106  0.00  0.00    +0.379 N 
ATOM     24  C   UNL     1      -4.144  -3.368  11.077  0.00  0.00    -0.096 C 
ATOM     25  H   UNL     1      -4.207  -5.404  10.576  0.00  0.00    -0.082 HD
ATOM     26  C   UNL     1      -4.679  -4.279   8.815  0.00  0.00    -0.064 C 
ATOM     27  C   UNL     1      -4.378  -5.445   7.832  0.00  0.00    +0.066 C 
ENDBRANCH  19  20
ENDBRANCH  18  19
ENDBRANCH  14  15
ENDBRANCH  12  13
TORSDOF 6
ENDMDL
