MODEL 1
REMARK VINA RESULT:      -9.0      0.000      0.000
REMARK  Name = C:\Users\Docking\Desktop\test protocol\1iep_ligandH.pdb
REMARK  8 active torsions:
REMARK  status: ('A' for Active; 'I' for Inactive)
REMARK    1  A    between atoms: _5  and  _11
REMARK    2  A    between atoms: _19  and  _21
REMARK    3  A    between atoms: _22  and  _66
REMARK    4  A    between atoms: _27  and  _30
REMARK    5  A    between atoms: _32  and  _33
REMARK    6  A    between atoms: _38  and  _43
REMARK    7  A    between atoms: _43  and  _46
REMARK    8  A    between atoms: _53  and  _55
REMARK                            x       y       z     vdW  Elec       q    Type
REMARK                         _______ _______ _______ _____ _____    ______ ____
ROOT
ATOM     10  C   UNL     1      10.229  11.223  40.578  0.00  0.00    +0.038 A 
ATOM     11  C   UNL     1      10.186  10.129  39.676  0.00  0.00    +0.047 A 
ATOM     12  C   UNL     1      10.458   8.772  40.124  0.00  0.00    +0.035 A 
ATOM     32  C   UNL     1      10.769   8.565  41.499  0.00  0.00    +0.024 A 
ATOM     33  C   UNL     1      10.819   9.665  42.430  0.00  0.00    +0.007 A 
ATOM     34  C   UNL     1      10.553  11.006  41.993  0.00  0.00    -0.029 A 
ATOM     35  C   UNL     1      10.627  12.148  43.033  0.00  0.00    +0.045 C 
ENDROOT
BRANCH  10   9
ATOM      4  C   UNL     1       7.212  14.590  38.968  0.00  0.00    +0.077 A 
ATOM      5  C   UNL     1       6.082  13.713  39.076  0.00  0.00    +0.048 A 
ATOM      6  C   UNL     1       6.321  12.401  39.543  0.00  0.00    +0.116 A 
ATOM      7  N   UNL     1       7.599  12.007  39.875  0.00  0.00    -0.223 NA
ATOM      8  C   UNL     1       8.667  12.877  39.758  0.00  0.00    +0.220 A 
ATOM      9  N   UNL     1       9.959  12.504  40.093  0.00  0.00    -0.283 N 
ATOM     36  H   UNL     1      10.721  13.174  39.986  0.00  0.00    +0.155 HD
ATOM     37  N   UNL     1       8.465  14.135  39.313  0.00  0.00    -0.214 NA
BRANCH   4   3
ATOM      1  C   UNL     1       7.329  17.789  36.720  0.00  0.00    +0.020 A 
ATOM      2  C   UNL     1       7.434  16.407  37.127  0.00  0.00    +0.013 A 
ATOM      3  C   UNL     1       7.120  16.007  38.493  0.00  0.00    +0.019 A 
ATOM     38  C   UNL     1       6.698  17.038  39.429  0.00  0.00    +0.120 A 
ATOM     39  N   UNL     1       6.607  18.362  39.009  0.00  0.00    -0.263 NA
ATOM     40  C   UNL     1       6.909  18.758  37.697  0.00  0.00    +0.111 A 
ENDBRANCH   4   3
ENDBRANCH  10   9
BRANCH  12  13
ATOM     13  N   UNL     1      10.436   7.624  39.252  0.00  0.00    -0.281 N 
ATOM     14  C   UNL     1       9.371   6.781  38.981  0.00  0.00    +0.248 C 
ATOM     30  O   UNL     1       8.327   6.760  39.616  0.00  0.00    -0.270 OA
ATOM     31  H   UNL     1      11.312   7.406  38.778  0.00  0.00    +0.155 HD
BRANCH  14  15
ATOM     15  C   UNL     1       9.489   5.810  37.851  0.00  0.00    +0.037 A 
ATOM     16  C   UNL     1      10.749   5.639  37.124  0.00  0.00    +0.013 A 
ATOM     17  C   UNL     1      10.830   4.708  36.026  0.00  0.00    +0.005 A 
ATOM     18  C   UNL     1       9.646   3.940  35.649  0.00  0.00    -0.033 A 
ATOM     28  C   UNL     1       8.410   4.126  36.391  0.00  0.00    +0.005 A 
ATOM     29  C   UNL     1       8.326   5.038  37.467  0.00  0.00    +0.013 A 
BRANCH  18  19
ATOM     19  C   UNL     1       9.636   2.940  34.478  0.00  0.00    +0.119 C 
BRANCH  19  20
ATOM     20  N   UNL     1       8.958   3.369  33.218  0.00  0.00    -0.302 NA
ATOM     21  C   UNL     1       7.607   2.675  33.028  0.00  0.00    +0.066 C 
ATOM     22  C   UNL     1       6.901   3.153  31.717  0.00  0.00    -0.064 C 
ATOM     23  N   UNL     1       7.819   2.889  30.522  0.00  0.00    +0.379 N 
ATOM     24  C   UNL     1       7.135   3.284  29.282  0.00  0.00    -0.096 C 
ATOM     25  H   UNL     1       8.002   1.791  30.472  0.00  0.00    -0.082 HD
ATOM     26  C   UNL     1       9.166   3.574  30.705  0.00  0.00    -0.064 C 
ATOM     27  C   UNL     1       9.845   3.114  32.025  0.00  0.00    +0.066 C 
ENDBRANCH  19  20
ENDBRANCH  18  19
ENDBRANCH  14  15
ENDBRANCH  12  13
TORSDOF 6
ENDMDL
MODEL 2
REMARK VINA RESULT:      -8.9      3.338     12.285
REMARK  Name = C:\Users\Docking\Desktop\test protocol\1iep_ligandH.pdb
REMARK  8 active torsions:
REMARK  status: ('A' for Active; 'I' for Inactive)
REMARK    1  A    between atoms: _5  and  _11
REMARK    2  A    between atoms: _19  and  _21
REMARK    3  A    between atoms: _22  and  _66
REMARK    4  A    between atoms: _27  and  _30
REMARK    5  A    between atoms: _32  and  _33
REMARK    6  A    between atoms: _38  and  _43
REMARK    7  A    between atoms: _43  and  _46
REMARK    8  A    between atoms: _53  and  _55
REMARK                            x       y       z     vdW  Elec       q    Type
REMARK                         _______ _______ _______ _____ _____    ______ ____
ROOT
ATOM     10  C   UNL     1       9.341   8.482  39.972  0.00  0.00    +0.038 A 
ATOM     11  C   UNL     1       8.624   9.635  39.561  0.00  0.00    +0.047 A 
ATOM     12  C   UNL     1       9.291  10.918  39.401  0.00  0.00    +0.035 A 
ATOM     32  C   UNL     1      10.690  10.990  39.665  0.00  0.00    +0.024 A 
ATOM     33  C   UNL     1      11.434   9.828  40.084  0.00  0.00    +0.007 A 
ATOM     34  C   UNL     1      10.781   8.560  40.246  0.00  0.00    -0.029 A 
ATOM     35  C   UNL     1      11.627   7.349  40.703  0.00  0.00    +0.045 C 
ENDROOT
BRANCH  10   9
ATOM      4  C   UNL     1       7.893   4.219  38.306  0.00  0.00    +0.077 A 
ATOM      5  C   UNL     1       8.545   4.424  37.045  0.00  0.00    +0.048 A 
ATOM      6  C   UNL     1       9.236   5.643  36.862  0.00  0.00    +0.116 A 
ATOM      7  N   UNL     1       9.267   6.580  37.873  0.00  0.00    -0.223 NA
ATOM      8  C   UNL     1       8.626   6.351  39.077  0.00  0.00    +0.220 A 
ATOM      9  N   UNL     1       8.651   7.275  40.110  0.00  0.00    -0.283 N 
ATOM     36  H   UNL     1       8.159   7.072  40.980  0.00  0.00    +0.155 HD
ATOM     37  N   UNL     1       7.958   5.196  39.275  0.00  0.00    -0.214 NA
BRANCH   4   3
ATOM      1  C   UNL     1       6.488   0.569  38.280  0.00  0.00    +0.020 A 
ATOM      2  C   UNL     1       7.252   1.736  37.905  0.00  0.00    +0.013 A 
ATOM      3  C   UNL     1       7.126   2.981  38.652  0.00  0.00    +0.019 A 
ATOM     38  C   UNL     1       6.211   3.011  39.784  0.00  0.00    +0.120 A 
ATOM     39  N   UNL     1       5.488   1.872  40.121  0.00  0.00    -0.263 NA
ATOM     40  C   UNL     1       5.600   0.669  39.408  0.00  0.00    +0.111 A 
ENDBRANCH   4   3
ENDBRANCH  10   9
BRANCH  12  13
ATOM     13  N   UNL     1       8.613  12.124  38.995  0.00  0.00    -0.281 N 
ATOM     14  C   UNL     1       8.259  13.208  39.782  0.00  0.00    +0.248 C 
ATOM     30  O   UNL     1       8.281  13.211  41.004  0.00  0.00    -0.270 OA
ATOM     31  H   UNL     1       8.365  12.187  38.008  0.00  0.00    +0.155 HD
BRANCH  14  15
ATOM     15  C   UNL     1       7.800  14.465  39.116  0.00  0.00    +0.037 A 
ATOM     16  C   UNL     1       7.619  14.532  37.664  0.00  0.00    +0.013 A 
ATOM     17  C   UNL     1       7.191  15.762  37.045  0.00  0.00    +0.005 A 
ATOM     18  C   UNL     1       6.941  16.935  37.879  0.00  0.00    -0.033 A 
ATOM     28  C   UNL     1       7.124  16.838  39.318  0.00  0.00    +0.005 A 
ATOM     29  C   UNL     1       7.543  15.635  39.928  0.00  0.00    +0.013 A 
BRANCH  18  19
ATOM     19  C   UNL     1       6.503  18.294  37.302  0.00  0.00    +0.119 C 
BRANCH  19  20
ATOM     20  N   UNL     1       5.107  18.740  37.589  0.00  0.00    -0.302 NA
ATOM     21  C   UNL     1       4.405  19.271  36.336  0.00  0.00    +0.066 C 
ATOM     22  C   UNL     1       2.939  19.713  36.649  0.00  0.00    -0.064 C 
ATOM     23  N   UNL     1       2.953  20.773  37.752  0.00  0.00    +0.379 N 
ATOM     24  C   UNL     1       1.580  21.233  38.009  0.00  0.00    -0.096 C 
ATOM     25  H   UNL     1       3.537  21.645  37.376  0.00  0.00    -0.082 HD
ATOM     26  C   UNL     1       3.652  20.254  39.001  0.00  0.00    -0.064 C 
ATOM     27  C   UNL     1       5.098  19.790  38.673  0.00  0.00    +0.066 C 
ENDBRANCH  19  20
ENDBRANCH  18  19
ENDBRANCH  14  15
ENDBRANCH  12  13
TORSDOF 6
ENDMDL
MODEL 3
REMARK VINA RESULT:      -8.6      5.696     11.935
REMARK  Name = C:\Users\Docking\Desktop\test protocol\1iep_ligandH.pdb
REMARK  8 active torsions:
REMARK  status: ('A' for Active; 'I' for Inactive)
REMARK    1  A    between atoms: _5  and  _11
REMARK    2  A    between atoms: _19  and  _21
REMARK    3  A    between atoms: _22  and  _66
REMARK    4  A    between atoms: _27  and  _30
REMARK    5  A    between atoms: _32  and  _33
REMARK    6  A    between atoms: _38  and  _43
REMARK    7  A    between atoms: _43  and  _46
REMARK    8  A    between atoms: _53  and  _55
REMARK                            x       y       z     vdW  Elec       q    Type
REMARK                         _______ _______ _______ _____ _____    ______ ____
ROOT
ATOM     10  C   UNL     1       5.391   8.823  40.008  0.00  0.00    +0.038 A 
ATOM     11  C   UNL     1       5.596  10.190  39.694  0.00  0.00    +0.047 A 
ATOM     12  C   UNL     1       6.890  10.823  39.898  0.00  0.00    +0.035 A 
ATOM     32  C   UNL     1       7.954  10.032  40.420  0.00  0.00    +0.024 A 
ATOM     33  C   UNL     1       7.763   8.640  40.746  0.00  0.00    +0.007 A 
ATOM     34  C   UNL     1       6.488   8.012  40.550  0.00  0.00    -0.029 A 
ATOM     35  C   UNL     1       6.338   6.518  40.922  0.00  0.00    +0.045 C 
ENDROOT
BRANCH  10   9
ATOM      4  C   UNL     1       0.865   7.950  41.348  0.00  0.00    +0.077 A 
ATOM      5  C   UNL     1       1.039   8.638  42.595  0.00  0.00    +0.048 A 
ATOM      6  C   UNL     1       2.311   9.196  42.856  0.00  0.00    +0.116 A 
ATOM      7  N   UNL     1       3.325   9.070  41.932  0.00  0.00    -0.223 NA
ATOM      8  C   UNL     1       3.124   8.399  40.740  0.00  0.00    +0.220 A 
ATOM      9  N   UNL     1       4.128   8.266  39.793  0.00  0.00    -0.283 N 
ATOM     36  H   UNL     1       3.942   7.757  38.929  0.00  0.00    +0.155 HD
ATOM     37  N   UNL     1       1.919   7.856  40.468  0.00  0.00    -0.214 NA
BRANCH   4   3
ATOM      1  C   UNL     1      -2.937   7.135  40.929  0.00  0.00    +0.020 A 
ATOM      2  C   UNL     1      -1.725   7.789  41.367  0.00  0.00    +0.013 A 
ATOM      3  C   UNL     1      -0.421   7.310  40.927  0.00  0.00    +0.019 A 
ATOM     38  C   UNL     1      -0.377   6.160  40.037  0.00  0.00    +0.120 A 
ATOM     39  N   UNL     1      -1.561   5.550  39.634  0.00  0.00    -0.263 NA
ATOM     40  C   UNL     1      -2.822   6.000  40.052  0.00  0.00    +0.111 A 
ENDBRANCH   4   3
ENDBRANCH  10   9
BRANCH  12  13
ATOM     13  N   UNL     1       7.156  12.210  39.605  0.00  0.00    -0.281 N 
ATOM     14  C   UNL     1       7.167  12.832  38.367  0.00  0.00    +0.248 C 
ATOM     30  O   UNL     1       7.161  12.242  37.297  0.00  0.00    -0.270 OA
ATOM     31  H   UNL     1       7.360  12.805  40.408  0.00  0.00    +0.155 HD
BRANCH  14  15
ATOM     15  C   UNL     1       7.207  14.325  38.310  0.00  0.00    +0.037 A 
ATOM     16  C   UNL     1       6.777  15.141  39.448  0.00  0.00    +0.013 A 
ATOM     17  C   UNL     1       6.809  16.579  39.360  0.00  0.00    +0.005 A 
ATOM     18  C   UNL     1       7.274  17.211  38.128  0.00  0.00    -0.033 A 
ATOM     28  C   UNL     1       7.699  16.378  37.015  0.00  0.00    +0.005 A 
ATOM     29  C   UNL     1       7.668  14.967  37.098  0.00  0.00    +0.013 A 
BRANCH  18  19
ATOM     19  C   UNL     1       7.322  18.739  37.938  0.00  0.00    +0.119 C 
BRANCH  19  20
ATOM     20  N   UNL     1       6.023  19.440  37.711  0.00  0.00    -0.302 NA
ATOM     21  C   UNL     1       5.186  19.526  38.990  0.00  0.00    +0.066 C 
ATOM     22  C   UNL     1       3.840  20.283  38.740  0.00  0.00    -0.064 C 
ATOM     23  N   UNL     1       3.061  19.578  37.629  0.00  0.00    +0.379 N 
ATOM     24  C   UNL     1       1.770  20.253  37.431  0.00  0.00    -0.096 C 
ATOM     25  H   UNL     1       2.850  18.538  37.971  0.00  0.00    -0.082 HD
ATOM     26  C   UNL     1       3.887  19.486  36.354  0.00  0.00    -0.064 C 
ATOM     27  C   UNL     1       5.235  18.758  36.620  0.00  0.00    +0.066 C 
ENDBRANCH  19  20
ENDBRANCH  18  19
ENDBRANCH  14  15
ENDBRANCH  12  13
TORSDOF 6
ENDMDL
