MODEL 1
REMARK VINA RESULT:     -10.6      0.000      0.000
REMARK  Name = C:\Users\Docking\Desktop\test protocol\1iep_ligandH.pdb
REMARK  8 active torsions:
REMARK  status: ('A' for Active; 'I' for Inactive)
REMARK    1  A    between atoms: _5  and  _11
REMARK    2  A    between atoms: _19  and  _21
REMARK    3  A    between atoms: _22  and  _66
REMARK    4  A    between atoms: _27  and  _30
REMARK    5  A    between atoms: _32  and  _33
REMARK    6  A    between atoms: _38  and  _43
REMARK    7  A    between atoms: _43  and  _46
REMARK    8  A    between atoms: _53  and  _55
REMARK                            x       y       z     vdW  Elec       q    Type
REMARK                         _______ _______ _______ _____ _____    ______ ____
ROOT
ATOM     10  C   UNL     1      -3.098  19.477  35.024  0.00  0.00    +0.038 A 
ATOM     11  C   UNL     1      -2.395  20.560  34.439  0.00  0.00    +0.047 A 
ATOM     12  C   UNL     1      -0.976  20.759  34.689  0.00  0.00    +0.035 A 
ATOM     32  C   UNL     1      -0.303  19.834  35.539  0.00  0.00    +0.024 A 
ATOM     33  C   UNL     1      -1.003  18.727  36.143  0.00  0.00    +0.007 A 
ATOM     34  C   UNL     1      -2.403  18.527  35.902  0.00  0.00    -0.029 A 
ATOM     35  C   UNL     1      -3.103  17.328  36.582  0.00  0.00    +0.045 C 
ENDROOT
BRANCH  10   9
ATOM      4  C   UNL     1      -6.730  18.356  32.093  0.00  0.00    +0.077 A 
ATOM      5  C   UNL     1      -5.840  18.057  31.008  0.00  0.00    +0.048 A 
ATOM      6  C   UNL     1      -4.455  18.211  31.244  0.00  0.00    +0.116 A 
ATOM      7  N   UNL     1      -4.005  18.633  32.476  0.00  0.00    -0.223 NA
ATOM      8  C   UNL     1      -4.890  18.915  33.500  0.00  0.00    +0.220 A 
ATOM      9  N   UNL     1      -4.460  19.333  34.750  0.00  0.00    -0.283 N 
ATOM     36  H   UNL     1      -5.145  19.538  35.476  0.00  0.00    +0.155 HD
ATOM     37  N   UNL     1      -6.218  18.777  33.300  0.00  0.00    -0.214 NA
BRANCH   4   3
ATOM      1  C   UNL     1     -10.493  19.100  31.328  0.00  0.00    +0.020 A 
ATOM      2  C   UNL     1      -9.059  19.263  31.392  0.00  0.00    +0.013 A 
ATOM      3  C   UNL     1      -8.219  18.238  32.000  0.00  0.00    +0.019 A 
ATOM     38  C   UNL     1      -8.867  17.051  32.537  0.00  0.00    +0.120 A 
ATOM     39  N   UNL     1     -10.251  16.922  32.463  0.00  0.00    -0.263 NA
ATOM     40  C   UNL     1     -11.069  17.903  31.881  0.00  0.00    +0.111 A 
ENDBRANCH   4   3
ENDBRANCH  10   9
BRANCH  12  13
ATOM     13  N   UNL     1      -0.211  21.846  34.129  0.00  0.00    -0.281 N 
ATOM     14  C   UNL     1      -0.092  22.205  32.796  0.00  0.00    +0.248 C 
ATOM     30  O   UNL     1      -0.457  21.512  31.858  0.00  0.00    -0.270 OA
ATOM     31  H   UNL     1       0.306  22.420  34.795  0.00  0.00    +0.155 HD
BRANCH  14  15
ATOM     15  C   UNL     1       0.537  23.518  32.456  0.00  0.00    +0.037 A 
ATOM     16  C   UNL     1      -0.218  24.565  31.764  0.00  0.00    +0.013 A 
ATOM     17  C   UNL     1       0.417  25.816  31.432  0.00  0.00    +0.005 A 
ATOM     18  C   UNL     1       1.817  26.026  31.793  0.00  0.00    -0.033 A 
ATOM     28  C   UNL     1       2.541  24.972  32.484  0.00  0.00    +0.005 A 
ATOM     29  C   UNL     1       1.922  23.744  32.810  0.00  0.00    +0.013 A 
BRANCH  18  19
ATOM     19  C   UNL     1       2.582  27.321  31.460  0.00  0.00    +0.119 C 
BRANCH  19  20
ATOM     20  N   UNL     1       2.801  28.291  32.574  0.00  0.00    -0.302 NA
ATOM     21  C   UNL     1       2.419  29.719  32.174  0.00  0.00    +0.066 C 
ATOM     22  C   UNL     1       2.633  30.718  33.358  0.00  0.00    -0.064 C 
ATOM     23  N   UNL     1       4.091  30.655  33.817  0.00  0.00    +0.379 N 
ATOM     24  C   UNL     1       4.309  31.635  34.891  0.00  0.00    -0.096 C 
ATOM     25  H   UNL     1       4.730  30.952  32.954  0.00  0.00    -0.082 HD
ATOM     26  C   UNL     1       4.479  29.238  34.214  0.00  0.00    -0.064 C 
ATOM     27  C   UNL     1       4.235  28.249  33.040  0.00  0.00    +0.066 C 
ENDBRANCH  19  20
ENDBRANCH  18  19
ENDBRANCH  14  15
ENDBRANCH  12  13
TORSDOF 6
ENDMDL
MODEL 2
REMARK VINA RESULT:     -10.0      5.885     10.480
REMARK  Name = C:\Users\Docking\Desktop\test protocol\1iep_ligandH.pdb
REMARK  8 active torsions:
REMARK  status: ('A' for Active; 'I' for Inactive)
REMARK    1  A    between atoms: _5  and  _11
REMARK    2  A    between atoms: _19  and  _21
REMARK    3  A    between atoms: _22  and  _66
REMARK    4  A    between atoms: _27  and  _30
REMARK    5  A    between atoms: _32  and  _33
REMARK    6  A    between atoms: _38  and  _43
REMARK    7  A    between atoms: _43  and  _46
REMARK    8  A    between atoms: _53  and  _55
REMARK                            x       y       z     vdW  Elec       q    Type
REMARK                         _______ _______ _______ _____ _____    ______ ____
ROOT
ATOM     10  C   UNL     1     -12.566  15.699  33.426  0.00  0.00    +0.038 A 
ATOM     11  C   UNL     1     -11.257  16.245  33.423  0.00  0.00    +0.047 A 
ATOM     12  C   UNL     1     -10.342  16.000  32.319  0.00  0.00    +0.035 A 
ATOM     32  C   UNL     1     -10.794  15.198  31.232  0.00  0.00    +0.024 A 
ATOM     33  C   UNL     1     -12.121  14.634  31.218  0.00  0.00    +0.007 A 
ATOM     34  C   UNL     1     -13.027  14.870  32.306  0.00  0.00    -0.029 A 
ATOM     35  C   UNL     1     -14.436  14.235  32.241  0.00  0.00    +0.045 C 
ENDROOT
BRANCH  10   9
ATOM      4  C   UNL     1     -14.934  18.725  36.302  0.00  0.00    +0.077 A 
ATOM      5  C   UNL     1     -14.440  19.874  35.598  0.00  0.00    +0.048 A 
ATOM      6  C   UNL     1     -13.574  19.643  34.506  0.00  0.00    +0.116 A 
ATOM      7  N   UNL     1     -13.233  18.355  34.153  0.00  0.00    -0.223 NA
ATOM      8  C   UNL     1     -13.726  17.269  34.854  0.00  0.00    +0.220 A 
ATOM      9  N   UNL     1     -13.403  15.965  34.512  0.00  0.00    -0.283 N 
ATOM     36  H   UNL     1     -13.781  15.192  35.058  0.00  0.00    +0.155 HD
ATOM     37  N   UNL     1     -14.554  17.464  35.902  0.00  0.00    -0.214 NA
BRANCH   4   3
ATOM      1  C   UNL     1     -16.366  18.637  39.941  0.00  0.00    +0.020 A 
ATOM      2  C   UNL     1     -15.431  18.545  38.843  0.00  0.00    +0.013 A 
ATOM      3  C   UNL     1     -15.861  18.806  37.475  0.00  0.00    +0.019 A 
ATOM     38  C   UNL     1     -17.254  19.162  37.250  0.00  0.00    +0.120 A 
ATOM     39  N   UNL     1     -18.132  19.241  38.326  0.00  0.00    -0.263 NA
ATOM     40  C   UNL     1     -17.730  18.990  39.647  0.00  0.00    +0.111 A 
ENDBRANCH   4   3
ENDBRANCH  10   9
BRANCH  12  13
ATOM     13  N   UNL     1      -8.998  16.521  32.266  0.00  0.00    -0.281 N 
ATOM     14  C   UNL     1      -8.529  17.591  31.522  0.00  0.00    +0.248 C 
ATOM     30  O   UNL     1      -9.152  18.133  30.621  0.00  0.00    -0.270 OA
ATOM     31  H   UNL     1      -8.310  16.043  32.847  0.00  0.00    +0.155 HD
BRANCH  14  15
ATOM     15  C   UNL     1      -7.164  18.128  31.810  0.00  0.00    +0.037 A 
ATOM     16  C   UNL     1      -6.037  17.860  30.914  0.00  0.00    +0.013 A 
ATOM     17  C   UNL     1      -4.727  18.376  31.225  0.00  0.00    +0.005 A 
ATOM     18  C   UNL     1      -4.539  19.167  32.439  0.00  0.00    -0.033 A 
ATOM     28  C   UNL     1      -5.676  19.422  33.307  0.00  0.00    +0.005 A 
ATOM     29  C   UNL     1      -6.960  18.918  33.006  0.00  0.00    +0.013 A 
BRANCH  18  19
ATOM     19  C   UNL     1      -3.172  19.739  32.860  0.00  0.00    +0.119 C 
BRANCH  19  20
ATOM     20  N   UNL     1      -2.853  19.743  34.319  0.00  0.00    -0.302 NA
ATOM     21  C   UNL     1      -1.797  20.794  34.674  0.00  0.00    +0.066 C 
ATOM     22  C   UNL     1      -1.492  20.799  36.207  0.00  0.00    -0.064 C 
ATOM     23  N   UNL     1      -1.034  19.405  36.638  0.00  0.00    +0.379 N 
ATOM     24  C   UNL     1      -0.691  19.422  38.068  0.00  0.00    -0.096 C 
ATOM     25  H   UNL     1      -0.106  19.163  36.070  0.00  0.00    -0.082 HD
ATOM     26  C   UNL     1      -2.077  18.353  36.287  0.00  0.00    -0.064 C 
ATOM     27  C   UNL     1      -2.395  18.376  34.766  0.00  0.00    +0.066 C 
ENDBRANCH  19  20
ENDBRANCH  18  19
ENDBRANCH  14  15
ENDBRANCH  12  13
TORSDOF 6
ENDMDL
MODEL 3
REMARK VINA RESULT:      -9.6      1.512      2.029
REMARK  Name = C:\Users\Docking\Desktop\test protocol\1iep_ligandH.pdb
REMARK  8 active torsions:
REMARK  status: ('A' for Active; 'I' for Inactive)
REMARK    1  A    between atoms: _5  and  _11
REMARK    2  A    between atoms: _19  and  _21
REMARK    3  A    between atoms: _22  and  _66
REMARK    4  A    between atoms: _27  and  _30
REMARK    5  A    between atoms: _32  and  _33
REMARK    6  A    between atoms: _38  and  _43
REMARK    7  A    between atoms: _43  and  _46
REMARK    8  A    between atoms: _53  and  _55
REMARK                            x       y       z     vdW  Elec       q    Type
REMARK                         _______ _______ _______ _____ _____    ______ ____
ROOT
ATOM     10  C   UNL     1      -2.619  19.589  35.106  0.00  0.00    +0.038 A 
ATOM     11  C   UNL     1      -1.967  20.703  34.517  0.00  0.00    +0.047 A 
ATOM     12  C   UNL     1      -1.109  21.575  35.304  0.00  0.00    +0.035 A 
ATOM     32  C   UNL     1      -0.935  21.282  36.688  0.00  0.00    +0.024 A 
ATOM     33  C   UNL     1      -1.591  20.155  37.303  0.00  0.00    +0.007 A 
ATOM     34  C   UNL     1      -2.440  19.292  36.533  0.00  0.00    -0.029 A 
ATOM     35  C   UNL     1      -3.123  18.102  37.246  0.00  0.00    +0.045 C 
ENDROOT
BRANCH  10   9
ATOM      4  C   UNL     1      -6.507  18.884  32.381  0.00  0.00    +0.077 A 
ATOM      5  C   UNL     1      -6.973  20.224  32.596  0.00  0.00    +0.048 A 
ATOM      6  C   UNL     1      -6.187  21.060  33.420  0.00  0.00    +0.116 A 
ATOM      7  N   UNL     1      -5.023  20.582  33.982  0.00  0.00    -0.223 NA
ATOM      8  C   UNL     1      -4.602  19.284  33.755  0.00  0.00    +0.220 A 
ATOM      9  N   UNL     1      -3.431  18.785  34.304  0.00  0.00    -0.283 N 
ATOM     36  H   UNL     1      -3.159  17.819  34.119  0.00  0.00    +0.155 HD
ATOM     37  N   UNL     1      -5.336  18.465  32.973  0.00  0.00    -0.214 NA
BRANCH   4   3
ATOM      1  C   UNL     1      -9.262  16.529  30.910  0.00  0.00    +0.020 A 
ATOM      2  C   UNL     1      -8.614  17.502  31.759  0.00  0.00    +0.013 A 
ATOM      3  C   UNL     1      -7.225  17.882  31.532  0.00  0.00    +0.019 A 
ATOM     38  C   UNL     1      -6.515  17.254  30.429  0.00  0.00    +0.120 A 
ATOM     39  N   UNL     1      -7.164  16.319  29.628  0.00  0.00    -0.263 NA
ATOM     40  C   UNL     1      -8.499  15.945  29.838  0.00  0.00    +0.111 A 
ENDBRANCH   4   3
ENDBRANCH  10   9
BRANCH  12  13
ATOM     13  N   UNL     1      -0.428  22.725  34.763  0.00  0.00    -0.281 N 
ATOM     14  C   UNL     1       0.846  22.783  34.221  0.00  0.00    +0.248 C 
ATOM     30  O   UNL     1       1.678  21.893  34.314  0.00  0.00    -0.270 OA
ATOM     31  H   UNL     1      -0.947  23.602  34.782  0.00  0.00    +0.155 HD
BRANCH  14  15
ATOM     15  C   UNL     1       1.260  24.013  33.480  0.00  0.00    +0.037 A 
ATOM     16  C   UNL     1       0.346  25.147  33.320  0.00  0.00    +0.013 A 
ATOM     17  C   UNL     1       0.764  26.315  32.586  0.00  0.00    +0.005 A 
ATOM     18  C   UNL     1       2.105  26.355  32.007  0.00  0.00    -0.033 A 
ATOM     28  C   UNL     1       2.993  25.218  32.185  0.00  0.00    +0.005 A 
ATOM     29  C   UNL     1       2.586  24.071  32.903  0.00  0.00    +0.013 A 
BRANCH  18  19
ATOM     19  C   UNL     1       2.629  27.551  31.190  0.00  0.00    +0.119 C 
BRANCH  19  20
ATOM     20  N   UNL     1       3.152  28.723  31.953  0.00  0.00    -0.302 NA
ATOM     21  C   UNL     1       3.765  28.309  33.294  0.00  0.00    +0.066 C 
ATOM     22  C   UNL     1       4.328  29.545  34.069  0.00  0.00    -0.064 C 
ATOM     23  N   UNL     1       3.207  30.565  34.278  0.00  0.00    +0.379 N 
ATOM     24  C   UNL     1       3.719  31.702  35.057  0.00  0.00    -0.096 C 
ATOM     25  H   UNL     1       2.410  30.072  34.882  0.00  0.00    -0.082 HD
ATOM     26  C   UNL     1       2.590  30.981  32.951  0.00  0.00    -0.064 C 
ATOM     27  C   UNL     1       2.061  29.742  32.175  0.00  0.00    +0.066 C 
ENDBRANCH  19  20
ENDBRANCH  18  19
ENDBRANCH  14  15
ENDBRANCH  12  13
TORSDOF 6
ENDMDL
