MODEL 1
REMARK VINA RESULT:     -10.2      0.000      0.000
REMARK  Name = C:\Users\Docking\Desktop\test protocol\1iep_ligandH.pdb
REMARK  8 active torsions:
REMARK  status: ('A' for Active; 'I' for Inactive)
REMARK    1  A    between atoms: _5  and  _11
REMARK    2  A    between atoms: _19  and  _21
REMARK    3  A    between atoms: _22  and  _66
REMARK    4  A    between atoms: _27  and  _30
REMARK    5  A    between atoms: _32  and  _33
REMARK    6  A    between atoms: _38  and  _43
REMARK    7  A    between atoms: _43  and  _46
REMARK    8  A    between atoms: _53  and  _55
REMARK                            x       y       z     vdW  Elec       q    Type
REMARK                         _______ _______ _______ _____ _____    ______ ____
ROOT
ATOM     10  C   UNL     1      31.365  66.722 -15.137  0.00  0.00    +0.038 A 
ATOM     11  C   UNL     1      30.878  65.659 -15.941  0.00  0.00    +0.047 A 
ATOM     12  C   UNL     1      29.989  65.912 -17.064  0.00  0.00    +0.035 A 
ATOM     32  C   UNL     1      29.618  67.260 -17.341  0.00  0.00    +0.024 A 
ATOM     33  C   UNL     1      30.103  68.352 -16.534  0.00  0.00    +0.007 A 
ATOM     34  C   UNL     1      30.978  68.108 -15.424  0.00  0.00    -0.029 A 
ATOM     35  C   UNL     1      31.462  69.317 -14.589  0.00  0.00    +0.045 C 
ENDROOT
BRANCH  10   9
ATOM      4  C   UNL     1      35.723  65.891 -13.306  0.00  0.00    +0.077 A 
ATOM      5  C   UNL     1      36.355  66.040 -14.585  0.00  0.00    +0.048 A 
ATOM      6  C   UNL     1      35.521  66.324 -15.691  0.00  0.00    +0.116 A 
ATOM      7  N   UNL     1      34.160  66.447 -15.518  0.00  0.00    -0.223 NA
ATOM      8  C   UNL     1      33.583  66.295 -14.270  0.00  0.00    +0.220 A 
ATOM      9  N   UNL     1      32.217  66.422 -14.071  0.00  0.00    -0.283 N 
ATOM     36  H   UNL     1      31.829  66.295 -13.137  0.00  0.00    +0.155 HD
ATOM     37  N   UNL     1      34.357  66.022 -13.199  0.00  0.00    -0.214 NA
BRANCH   4   3
ATOM      1  C   UNL     1      36.573  65.083  -9.574  0.00  0.00    +0.020 A 
ATOM      2  C   UNL     1      35.806  65.367 -10.765  0.00  0.00    +0.013 A 
ATOM      3  C   UNL     1      36.470  65.593 -12.042  0.00  0.00    +0.019 A 
ATOM     38  C   UNL     1      37.923  65.524 -12.082  0.00  0.00    +0.120 A 
ATOM     39  N   UNL     1      38.635  65.250 -10.918  0.00  0.00    -0.263 NA
ATOM     40  C   UNL     1      38.008  65.032  -9.683  0.00  0.00    +0.111 A 
ENDBRANCH   4   3
ENDBRANCH  10   9
BRANCH  12  13
ATOM     13  N   UNL     1      29.456  64.873 -17.910  0.00  0.00    -0.281 N 
ATOM     14  C   UNL     1      29.042  63.603 -17.542  0.00  0.00    +0.248 C 
ATOM     30  O   UNL     1      29.268  63.091 -16.455  0.00  0.00    -0.270 OA
ATOM     31  H   UNL     1      29.374  65.102 -18.901  0.00  0.00    +0.155 HD
BRANCH  14  15
ATOM     15  C   UNL     1      28.280  62.778 -18.527  0.00  0.00    +0.037 A 
ATOM     16  C   UNL     1      28.715  61.425 -18.884  0.00  0.00    +0.013 A 
ATOM     17  C   UNL     1      27.971  60.657 -19.850  0.00  0.00    +0.005 A 
ATOM     18  C   UNL     1      26.781  61.241 -20.466  0.00  0.00    -0.033 A 
ATOM     28  C   UNL     1      26.369  62.583 -20.090  0.00  0.00    +0.005 A 
ATOM     29  C   UNL     1      27.097  63.339 -19.144  0.00  0.00    +0.013 A 
BRANCH  18  19
ATOM     19  C   UNL     1      25.939  60.502 -21.523  0.00  0.00    +0.119 C 
BRANCH  19  20
ATOM     20  N   UNL     1      26.446  60.506 -22.927  0.00  0.00    -0.302 NA
ATOM     21  C   UNL     1      27.916  60.083 -23.008  0.00  0.00    +0.066 C 
ATOM     22  C   UNL     1      28.424  60.071 -24.487  0.00  0.00    -0.064 C 
ATOM     23  N   UNL     1      28.224  61.457 -25.103  0.00  0.00    +0.379 N 
ATOM     24  C   UNL     1      28.754  61.465 -26.474  0.00  0.00    -0.096 C 
ATOM     25  H   UNL     1      28.823  62.183 -24.505  0.00  0.00    -0.082 HD
ATOM     26  C   UNL     1      26.766  61.886 -25.024  0.00  0.00    -0.064 C 
ATOM     27  C   UNL     1      26.262  61.866 -23.554  0.00  0.00    +0.066 C 
ENDBRANCH  19  20
ENDBRANCH  18  19
ENDBRANCH  14  15
ENDBRANCH  12  13
TORSDOF 6
ENDMDL
MODEL 2
REMARK VINA RESULT:     -10.0      4.637     15.099
REMARK  Name = C:\Users\Docking\Desktop\test protocol\1iep_ligandH.pdb
REMARK  8 active torsions:
REMARK  status: ('A' for Active; 'I' for Inactive)
REMARK    1  A    between atoms: _5  and  _11
REMARK    2  A    between atoms: _19  and  _21
REMARK    3  A    between atoms: _22  and  _66
REMARK    4  A    between atoms: _27  and  _30
REMARK    5  A    between atoms: _32  and  _33
REMARK    6  A    between atoms: _38  and  _43
REMARK    7  A    between atoms: _43  and  _46
REMARK    8  A    between atoms: _53  and  _55
REMARK                            x       y       z     vdW  Elec       q    Type
REMARK                         _______ _______ _______ _____ _____    ______ ____
ROOT
ATOM     10  C   UNL     1      24.864  59.951 -24.633  0.00  0.00    +0.038 A 
ATOM     11  C   UNL     1      25.148  60.687 -23.454  0.00  0.00    +0.047 A 
ATOM     12  C   UNL     1      26.516  60.877 -22.997  0.00  0.00    +0.035 A 
ATOM     32  C   UNL     1      27.571  60.305 -23.766  0.00  0.00    +0.024 A 
ATOM     33  C   UNL     1      27.300  59.553 -24.966  0.00  0.00    +0.007 A 
ATOM     34  C   UNL     1      25.953  59.360 -25.421  0.00  0.00    -0.029 A 
ATOM     35  C   UNL     1      25.721  58.539 -26.711  0.00  0.00    +0.045 C 
ENDROOT
BRANCH  10   9
ATOM      4  C   UNL     1      21.037  61.266 -27.214  0.00  0.00    +0.077 A 
ATOM      5  C   UNL     1      21.743  62.363 -27.811  0.00  0.00    +0.048 A 
ATOM      6  C   UNL     1      23.087  62.559 -27.421  0.00  0.00    +0.116 A 
ATOM      7  N   UNL     1      23.672  61.714 -26.503  0.00  0.00    -0.223 NA
ATOM      8  C   UNL     1      22.962  60.667 -25.945  0.00  0.00    +0.220 A 
ATOM      9  N   UNL     1      23.532  59.800 -25.025  0.00  0.00    -0.283 N 
ATOM     36  H   UNL     1      22.973  59.044 -24.631  0.00  0.00    +0.155 HD
ATOM     37  N   UNL     1      21.677  60.459 -26.299  0.00  0.00    -0.214 NA
BRANCH   4   3
ATOM      1  C   UNL     1      17.805  59.334 -28.272  0.00  0.00    +0.020 A 
ATOM      2  C   UNL     1      19.194  59.609 -27.985  0.00  0.00    +0.013 A 
ATOM      3  C   UNL     1      19.613  60.928 -27.526  0.00  0.00    +0.019 A 
ATOM     38  C   UNL     1      18.593  61.954 -27.367  0.00  0.00    +0.120 A 
ATOM     39  N   UNL     1      17.264  61.661 -27.653  0.00  0.00    -0.263 NA
ATOM     40  C   UNL     1      16.849  60.396 -28.096  0.00  0.00    +0.111 A 
ENDBRANCH   4   3
ENDBRANCH  10   9
BRANCH  12  13
ATOM     13  N   UNL     1      26.865  61.608 -21.804  0.00  0.00    -0.281 N 
ATOM     14  C   UNL     1      27.363  61.105 -20.613  0.00  0.00    +0.248 C 
ATOM     30  O   UNL     1      27.383  59.920 -20.317  0.00  0.00    -0.270 OA
ATOM     31  H   UNL     1      26.729  62.618 -21.842  0.00  0.00    +0.155 HD
BRANCH  14  15
ATOM     15  C   UNL     1      27.904  62.059 -19.597  0.00  0.00    +0.037 A 
ATOM     16  C   UNL     1      27.025  62.991 -18.886  0.00  0.00    +0.013 A 
ATOM     17  C   UNL     1      27.575  63.912 -17.923  0.00  0.00    +0.005 A 
ATOM     18  C   UNL     1      29.013  63.905 -17.665  0.00  0.00    -0.033 A 
ATOM     28  C   UNL     1      29.861  62.966 -18.381  0.00  0.00    +0.005 A 
ATOM     29  C   UNL     1      29.326  62.063 -19.326  0.00  0.00    +0.013 A 
BRANCH  18  19
ATOM     19  C   UNL     1      29.690  64.867 -16.671  0.00  0.00    +0.119 C 
BRANCH  19  20
ATOM     20  N   UNL     1      31.087  65.295 -16.976  0.00  0.00    -0.302 NA
ATOM     21  C   UNL     1      31.929  65.458 -15.707  0.00  0.00    +0.066 C 
ATOM     22  C   UNL     1      33.394  65.883 -16.047  0.00  0.00    -0.064 C 
ATOM     23  N   UNL     1      33.371  67.184 -16.852  0.00  0.00    +0.379 N 
ATOM     24  C   UNL     1      34.750  67.618 -17.123  0.00  0.00    -0.096 C 
ATOM     25  H   UNL     1      32.889  67.964 -16.219  0.00  0.00    -0.082 HD
ATOM     26  C   UNL     1      32.535  67.031 -18.114  0.00  0.00    -0.064 C 
ATOM     27  C   UNL     1      31.088  66.580 -17.768  0.00  0.00    +0.066 C 
ENDBRANCH  19  20
ENDBRANCH  18  19
ENDBRANCH  14  15
ENDBRANCH  12  13
TORSDOF 6
ENDMDL
MODEL 3
REMARK VINA RESULT:      -9.9      3.209      5.718
REMARK  Name = C:\Users\Docking\Desktop\test protocol\1iep_ligandH.pdb
REMARK  8 active torsions:
REMARK  status: ('A' for Active; 'I' for Inactive)
REMARK    1  A    between atoms: _5  and  _11
REMARK    2  A    between atoms: _19  and  _21
REMARK    3  A    between atoms: _22  and  _66
REMARK    4  A    between atoms: _27  and  _30
REMARK    5  A    between atoms: _32  and  _33
REMARK    6  A    between atoms: _38  and  _43
REMARK    7  A    between atoms: _43  and  _46
REMARK    8  A    between atoms: _53  and  _55
REMARK                            x       y       z     vdW  Elec       q    Type
REMARK                         _______ _______ _______ _____ _____    ______ ____
ROOT
ATOM     10  C   UNL     1      31.740  67.357 -14.908  0.00  0.00    +0.038 A 
ATOM     11  C   UNL     1      30.841  66.500 -15.593  0.00  0.00    +0.047 A 
ATOM     12  C   UNL     1      31.297  65.257 -16.195  0.00  0.00    +0.035 A 
ATOM     32  C   UNL     1      32.676  64.916 -16.079  0.00  0.00    +0.024 A 
ATOM     33  C   UNL     1      33.604  65.776 -15.387  0.00  0.00    +0.007 A 
ATOM     34  C   UNL     1      33.160  67.004 -14.793  0.00  0.00    -0.029 A 
ATOM     35  C   UNL     1      34.201  67.890 -14.069  0.00  0.00    +0.045 C 
ENDROOT
BRANCH  10   9
ATOM      4  C   UNL     1      29.098  69.732 -11.680  0.00  0.00    +0.077 A 
ATOM      5  C   UNL     1      28.638  68.515 -11.074  0.00  0.00    +0.048 A 
ATOM      6  C   UNL     1      29.099  67.300 -11.627  0.00  0.00    +0.116 A 
ATOM      7  N   UNL     1      29.957  67.312 -12.706  0.00  0.00    -0.223 NA
ATOM      8  C   UNL     1      30.380  68.502 -13.268  0.00  0.00    +0.220 A 
ATOM      9  N   UNL     1      31.248  68.538 -14.348  0.00  0.00    -0.283 N 
ATOM     36  H   UNL     1      31.531  69.437 -14.738  0.00  0.00    +0.155 HD
ATOM     37  N   UNL     1      29.953  69.676 -12.758  0.00  0.00    -0.214 NA
BRANCH   4   3
ATOM      1  C   UNL     1      28.852  73.613 -11.264  0.00  0.00    +0.020 A 
ATOM      2  C   UNL     1      29.270  72.320 -11.756  0.00  0.00    +0.013 A 
ATOM      3  C   UNL     1      28.702  71.096 -11.207  0.00  0.00    +0.019 A 
ATOM     38  C   UNL     1      27.707  71.215 -10.152  0.00  0.00    +0.120 A 
ATOM     39  N   UNL     1      27.326  72.473  -9.697  0.00  0.00    -0.263 NA
ATOM     40  C   UNL     1      27.866  73.659 -10.217  0.00  0.00    +0.111 A 
ENDBRANCH   4   3
ENDBRANCH  10   9
BRANCH  12  13
ATOM     13  N   UNL     1      30.432  64.352 -16.910  0.00  0.00    -0.281 N 
ATOM     14  C   UNL     1      29.304  64.660 -17.653  0.00  0.00    +0.248 C 
ATOM     30  O   UNL     1      28.742  65.745 -17.639  0.00  0.00    -0.270 OA
ATOM     31  H   UNL     1      30.681  63.364 -16.862  0.00  0.00    +0.155 HD
BRANCH  14  15
ATOM     15  C   UNL     1      28.704  63.605 -18.526  0.00  0.00    +0.037 A 
ATOM     16  C   UNL     1      29.536  62.574 -19.153  0.00  0.00    +0.013 A 
ATOM     17  C   UNL     1      28.934  61.579 -20.004  0.00  0.00    +0.005 A 
ATOM     18  C   UNL     1      27.491  61.609 -20.233  0.00  0.00    -0.033 A 
ATOM     28  C   UNL     1      26.690  62.639 -19.594  0.00  0.00    +0.005 A 
ATOM     29  C   UNL     1      27.276  63.617 -18.759  0.00  0.00    +0.013 A 
BRANCH  18  19
ATOM     19  C   UNL     1      26.768  60.599 -21.143  0.00  0.00    +0.119 C 
BRANCH  19  20
ATOM     20  N   UNL     1      26.833  60.837 -22.616  0.00  0.00    -0.302 NA
ATOM     21  C   UNL     1      25.499  60.537 -23.306  0.00  0.00    +0.066 C 
ATOM     22  C   UNL     1      25.579  60.813 -24.843  0.00  0.00    -0.064 C 
ATOM     23  N   UNL     1      26.704  59.975 -25.451  0.00  0.00    +0.379 N 
ATOM     24  C   UNL     1      26.744  60.188 -26.905  0.00  0.00    -0.096 C 
ATOM     25  H   UNL     1      26.461  58.901 -25.273  0.00  0.00    -0.082 HD
ATOM     26  C   UNL     1      28.034  60.265 -24.769  0.00  0.00    -0.064 C 
ATOM     27  C   UNL     1      27.935  60.016 -23.238  0.00  0.00    +0.066 C 
ENDBRANCH  19  20
ENDBRANCH  18  19
ENDBRANCH  14  15
ENDBRANCH  12  13
TORSDOF 6
ENDMDL
