MODEL 1
REMARK VINA RESULT:     -11.4      0.000      0.000
REMARK  Name = C:\Users\Docking\Desktop\test protocol\1iep_ligandH.pdb
REMARK  8 active torsions:
REMARK  status: ('A' for Active; 'I' for Inactive)
REMARK    1  A    between atoms: _5  and  _11
REMARK    2  A    between atoms: _19  and  _21
REMARK    3  A    between atoms: _22  and  _66
REMARK    4  A    between atoms: _27  and  _30
REMARK    5  A    between atoms: _32  and  _33
REMARK    6  A    between atoms: _38  and  _43
REMARK    7  A    between atoms: _43  and  _46
REMARK    8  A    between atoms: _53  and  _55
REMARK                            x       y       z     vdW  Elec       q    Type
REMARK                         _______ _______ _______ _____ _____    ______ ____
ROOT
ATOM     10  C   UNL     1      17.822  25.326  62.181  0.00  0.00    +0.038 A 
ATOM     11  C   UNL     1      18.969  25.106  61.375  0.00  0.00    +0.047 A 
ATOM     12  C   UNL     1      18.845  24.652  59.999  0.00  0.00    +0.035 A 
ATOM     32  C   UNL     1      17.538  24.433  59.474  0.00  0.00    +0.024 A 
ATOM     33  C   UNL     1      16.362  24.650  60.279  0.00  0.00    +0.007 A 
ATOM     34  C   UNL     1      16.478  25.096  61.638  0.00  0.00    -0.029 A 
ATOM     35  C   UNL     1      15.183  25.306  62.457  0.00  0.00    +0.045 C 
ENDROOT
BRANCH  10   9
ATOM      4  C   UNL     1      17.690  28.727  65.565  0.00  0.00    +0.077 A 
ATOM      5  C   UNL     1      17.259  29.725  64.629  0.00  0.00    +0.048 A 
ATOM      6  C   UNL     1      17.089  29.323  63.285  0.00  0.00    +0.116 A 
ATOM      7  N   UNL     1      17.336  28.019  62.916  0.00  0.00    -0.223 NA
ATOM      8  C   UNL     1      17.753  27.082  63.843  0.00  0.00    +0.220 A 
ATOM      9  N   UNL     1      17.999  25.762  63.496  0.00  0.00    -0.283 N 
ATOM     36  H   UNL     1      18.312  25.103  64.208  0.00  0.00    +0.155 HD
ATOM     37  N   UNL     1      17.923  27.440  65.133  0.00  0.00    -0.214 NA
BRANCH   4   3
ATOM      1  C   UNL     1      19.331  28.986  69.107  0.00  0.00    +0.020 A 
ATOM      2  C   UNL     1      19.169  28.707  67.698  0.00  0.00    +0.013 A 
ATOM      3  C   UNL     1      17.911  28.995  67.021  0.00  0.00    +0.019 A 
ATOM     38  C   UNL     1      16.828  29.571  67.804  0.00  0.00    +0.120 A 
ATOM     39  N   UNL     1      17.012  29.827  69.159  0.00  0.00    -0.263 NA
ATOM     40  C   UNL     1      18.217  29.553  69.822  0.00  0.00    +0.111 A 
ENDBRANCH   4   3
ENDBRANCH  10   9
BRANCH  12  13
ATOM     13  N   UNL     1      19.973  24.404  59.136  0.00  0.00    -0.281 N 
ATOM     14  C   UNL     1      21.006  25.270  58.814  0.00  0.00    +0.248 C 
ATOM     30  O   UNL     1      21.002  26.469  59.052  0.00  0.00    -0.270 OA
ATOM     31  H   UNL     1      20.016  23.478  58.710  0.00  0.00    +0.155 HD
BRANCH  14  15
ATOM     15  C   UNL     1      22.210  24.730  58.112  0.00  0.00    +0.037 A 
ATOM     16  C   UNL     1      23.521  25.367  58.253  0.00  0.00    +0.013 A 
ATOM     17  C   UNL     1      24.663  24.835  57.552  0.00  0.00    +0.005 A 
ATOM     18  C   UNL     1      24.498  23.657  56.704  0.00  0.00    -0.033 A 
ATOM     28  C   UNL     1      23.186  23.042  56.586  0.00  0.00    +0.005 A 
ATOM     29  C   UNL     1      22.065  23.561  57.271  0.00  0.00    +0.013 A 
BRANCH  18  19
ATOM     19  C   UNL     1      25.656  23.034  55.902  0.00  0.00    +0.119 C 
BRANCH  19  20
ATOM     20  N   UNL     1      26.757  22.391  56.680  0.00  0.00    -0.302 NA
ATOM     21  C   UNL     1      28.014  23.265  56.726  0.00  0.00    +0.066 C 
ATOM     22  C   UNL     1      29.148  22.587  57.562  0.00  0.00    -0.064 C 
ATOM     23  N   UNL     1      29.465  21.214  56.967  0.00  0.00    +0.379 N 
ATOM     24  C   UNL     1      30.571  20.599  57.715  0.00  0.00    -0.096 C 
ATOM     25  H   UNL     1      29.811  21.371  55.919  0.00  0.00    -0.082 HD
ATOM     26  C   UNL     1      28.220  20.340  56.915  0.00  0.00    -0.064 C 
ATOM     27  C   UNL     1      27.089  21.036  56.107  0.00  0.00    +0.066 C 
ENDBRANCH  19  20
ENDBRANCH  18  19
ENDBRANCH  14  15
ENDBRANCH  12  13
TORSDOF 6
ENDMDL
MODEL 2
REMARK VINA RESULT:     -11.4      3.835     12.541
REMARK  Name = C:\Users\Docking\Desktop\test protocol\1iep_ligandH.pdb
REMARK  8 active torsions:
REMARK  status: ('A' for Active; 'I' for Inactive)
REMARK    1  A    between atoms: _5  and  _11
REMARK    2  A    between atoms: _19  and  _21
REMARK    3  A    between atoms: _22  and  _66
REMARK    4  A    between atoms: _27  and  _30
REMARK    5  A    between atoms: _32  and  _33
REMARK    6  A    between atoms: _38  and  _43
REMARK    7  A    between atoms: _43  and  _46
REMARK    8  A    between atoms: _53  and  _55
REMARK                            x       y       z     vdW  Elec       q    Type
REMARK                         _______ _______ _______ _____ _____    ______ ____
ROOT
ATOM     10  C   UNL     1      20.231  24.277  57.536  0.00  0.00    +0.038 A 
ATOM     11  C   UNL     1      19.468  24.906  58.552  0.00  0.00    +0.047 A 
ATOM     12  C   UNL     1      20.061  25.906  59.428  0.00  0.00    +0.035 A 
ATOM     32  C   UNL     1      21.433  26.242  59.238  0.00  0.00    +0.024 A 
ATOM     33  C   UNL     1      22.223  25.610  58.210  0.00  0.00    +0.007 A 
ATOM     34  C   UNL     1      21.645  24.622  57.345  0.00  0.00    -0.029 A 
ATOM     35  C   UNL     1      22.541  23.974  56.265  0.00  0.00    +0.045 C 
ENDROOT
BRANCH  10   9
ATOM      4  C   UNL     1      18.746  19.802  56.638  0.00  0.00    +0.077 A 
ATOM      5  C   UNL     1      19.273  19.314  57.880  0.00  0.00    +0.048 A 
ATOM      6  C   UNL     1      19.926  20.246  58.718  0.00  0.00    +0.116 A 
ATOM      7  N   UNL     1      20.036  21.564  58.333  0.00  0.00    -0.223 NA
ATOM      8  C   UNL     1      19.518  22.001  57.127  0.00  0.00    +0.220 A 
ATOM      9  N   UNL     1      19.611  23.324  56.724  0.00  0.00    -0.283 N 
ATOM     36  H   UNL     1      19.222  23.605  55.824  0.00  0.00    +0.155 HD
ATOM     37  N   UNL     1      18.892  21.131  56.309  0.00  0.00    -0.214 NA
BRANCH   4   3
ATOM      1  C   UNL     1      16.395  17.115  55.039  0.00  0.00    +0.020 A 
ATOM      2  C   UNL     1      17.062  17.919  56.036  0.00  0.00    +0.013 A 
ATOM      3  C   UNL     1      18.027  18.940  55.646  0.00  0.00    +0.019 A 
ATOM     38  C   UNL     1      18.296  19.123  54.228  0.00  0.00    +0.120 A 
ATOM     39  N   UNL     1      17.639  18.332  53.290  0.00  0.00    -0.263 NA
ATOM     40  C   UNL     1      16.710  17.346  53.654  0.00  0.00    +0.111 A 
ENDBRANCH   4   3
ENDBRANCH  10   9
BRANCH  12  13
ATOM     13  N   UNL     1      19.338  26.573  60.482  0.00  0.00    -0.281 N 
ATOM     14  C   UNL     1      18.582  25.999  61.491  0.00  0.00    +0.248 C 
ATOM     30  O   UNL     1      18.236  24.828  61.515  0.00  0.00    -0.270 OA
ATOM     31  H   UNL     1      19.390  27.591  60.485  0.00  0.00    +0.155 HD
BRANCH  14  15
ATOM     15  C   UNL     1      18.134  26.854  62.632  0.00  0.00    +0.037 A 
ATOM     16  C   UNL     1      18.156  28.316  62.541  0.00  0.00    +0.013 A 
ATOM     17  C   UNL     1      17.734  29.118  63.662  0.00  0.00    +0.005 A 
ATOM     18  C   UNL     1      17.284  28.457  64.886  0.00  0.00    -0.033 A 
ATOM     28  C   UNL     1      17.267  27.005  64.947  0.00  0.00    +0.005 A 
ATOM     29  C   UNL     1      17.681  26.217  63.850  0.00  0.00    +0.013 A 
BRANCH  18  19
ATOM     19  C   UNL     1      16.836  29.233  66.139  0.00  0.00    +0.119 C 
BRANCH  19  20
ATOM     20  N   UNL     1      17.483  28.869  67.435  0.00  0.00    -0.302 NA
ATOM     21  C   UNL     1      16.990  29.748  68.589  0.00  0.00    +0.066 C 
ATOM     22  C   UNL     1      17.659  29.339  69.941  0.00  0.00    -0.064 C 
ATOM     23  N   UNL     1      19.180  29.430  69.802  0.00  0.00    +0.379 N 
ATOM     24  C   UNL     1      19.810  29.102  71.089  0.00  0.00    -0.096 C 
ATOM     25  H   UNL     1      19.435  30.488  69.560  0.00  0.00    -0.082 HD
ATOM     26  C   UNL     1      19.678  28.562  68.656  0.00  0.00    -0.064 C 
ATOM     27  C   UNL     1      18.985  28.956  67.322  0.00  0.00    +0.066 C 
ENDBRANCH  19  20
ENDBRANCH  18  19
ENDBRANCH  14  15
ENDBRANCH  12  13
TORSDOF 6
ENDMDL
MODEL 3
REMARK VINA RESULT:     -10.8      1.341      2.184
REMARK  Name = C:\Users\Docking\Desktop\test protocol\1iep_ligandH.pdb
REMARK  8 active torsions:
REMARK  status: ('A' for Active; 'I' for Inactive)
REMARK    1  A    between atoms: _5  and  _11
REMARK    2  A    between atoms: _19  and  _21
REMARK    3  A    between atoms: _22  and  _66
REMARK    4  A    between atoms: _27  and  _30
REMARK    5  A    between atoms: _32  and  _33
REMARK    6  A    between atoms: _38  and  _43
REMARK    7  A    between atoms: _43  and  _46
REMARK    8  A    between atoms: _53  and  _55
REMARK                            x       y       z     vdW  Elec       q    Type
REMARK                         _______ _______ _______ _____ _____    ______ ____
ROOT
ATOM     10  C   UNL     1      17.616  25.057  62.399  0.00  0.00    +0.038 A 
ATOM     11  C   UNL     1      18.771  24.833  61.607  0.00  0.00    +0.047 A 
ATOM     12  C   UNL     1      18.666  24.318  60.251  0.00  0.00    +0.035 A 
ATOM     32  C   UNL     1      17.367  24.045  59.731  0.00  0.00    +0.024 A 
ATOM     33  C   UNL     1      16.182  24.267  60.522  0.00  0.00    +0.007 A 
ATOM     34  C   UNL     1      16.280  24.772  61.861  0.00  0.00    -0.029 A 
ATOM     35  C   UNL     1      14.976  24.984  62.665  0.00  0.00    +0.045 C 
ENDROOT
BRANCH  10   9
ATOM      4  C   UNL     1      17.644  28.648  65.583  0.00  0.00    +0.077 A 
ATOM      5  C   UNL     1      17.343  29.623  64.575  0.00  0.00    +0.048 A 
ATOM      6  C   UNL     1      17.195  29.161  63.249  0.00  0.00    +0.116 A 
ATOM      7  N   UNL     1      17.340  27.820  62.963  0.00  0.00    -0.223 NA
ATOM      8  C   UNL     1      17.633  26.906  63.958  0.00  0.00    +0.220 A 
ATOM      9  N   UNL     1      17.775  25.553  63.695  0.00  0.00    -0.283 N 
ATOM     36  H   UNL     1      17.998  24.912  64.456  0.00  0.00    +0.155 HD
ATOM     37  N   UNL     1      17.780  27.323  65.233  0.00  0.00    -0.214 NA
BRANCH   4   3
ATOM      1  C   UNL     1      16.989  29.839  69.251  0.00  0.00    +0.020 A 
ATOM      2  C   UNL     1      16.761  29.536  67.857  0.00  0.00    +0.013 A 
ATOM      3  C   UNL     1      17.827  28.981  67.032  0.00  0.00    +0.019 A 
ATOM     38  C   UNL     1      19.121  28.743  67.652  0.00  0.00    +0.120 A 
ATOM     39  N   UNL     1      19.312  29.046  68.997  0.00  0.00    -0.263 NA
ATOM     40  C   UNL     1      18.294  29.582  69.801  0.00  0.00    +0.111 A 
ENDBRANCH   4   3
ENDBRANCH  10   9
BRANCH  12  13
ATOM     13  N   UNL     1      19.804  24.063  59.403  0.00  0.00    -0.281 N 
ATOM     14  C   UNL     1      20.637  24.987  58.795  0.00  0.00    +0.248 C 
ATOM     30  O   UNL     1      20.400  26.183  58.714  0.00  0.00    -0.270 OA
ATOM     31  H   UNL     1      20.022  23.081  59.231  0.00  0.00    +0.155 HD
BRANCH  14  15
ATOM     15  C   UNL     1      21.911  24.513  58.174  0.00  0.00    +0.037 A 
ATOM     16  C   UNL     1      21.999  23.200  57.528  0.00  0.00    +0.013 A 
ATOM     17  C   UNL     1      23.244  22.760  56.951  0.00  0.00    +0.005 A 
ATOM     18  C   UNL     1      24.413  23.634  57.018  0.00  0.00    -0.033 A 
ATOM     28  C   UNL     1      24.297  24.933  57.660  0.00  0.00    +0.005 A 
ATOM     29  C   UNL     1      23.078  25.368  58.226  0.00  0.00    +0.013 A 
BRANCH  18  19
ATOM     19  C   UNL     1      25.788  23.237  56.448  0.00  0.00    +0.119 C 
BRANCH  19  20
ATOM     20  N   UNL     1      25.823  22.109  55.470  0.00  0.00    -0.302 NA
ATOM     21  C   UNL     1      27.067  21.235  55.645  0.00  0.00    +0.066 C 
ATOM     22  C   UNL     1      27.076  20.047  54.628  0.00  0.00    -0.064 C 
ATOM     23  N   UNL     1      26.998  20.598  53.204  0.00  0.00    +0.379 N 
ATOM     24  C   UNL     1      27.065  19.487  52.244  0.00  0.00    -0.096 C 
ATOM     25  H   UNL     1      27.894  21.241  53.040  0.00  0.00    -0.082 HD
ATOM     26  C   UNL     1      25.765  21.471  53.021  0.00  0.00    -0.064 C 
ATOM     27  C   UNL     1      25.751  22.631  54.056  0.00  0.00    +0.066 C 
ENDBRANCH  19  20
ENDBRANCH  18  19
ENDBRANCH  14  15
ENDBRANCH  12  13
TORSDOF 6
ENDMDL
