MODEL 1
REMARK VINA RESULT:      -9.9      0.000      0.000
REMARK  Name = C:\Users\Docking\Desktop\test protocol\1iep_ligandH.pdb
REMARK  8 active torsions:
REMARK  status: ('A' for Active; 'I' for Inactive)
REMARK    1  A    between atoms: _5  and  _11
REMARK    2  A    between atoms: _19  and  _21
REMARK    3  A    between atoms: _22  and  _66
REMARK    4  A    between atoms: _27  and  _30
REMARK    5  A    between atoms: _32  and  _33
REMARK    6  A    between atoms: _38  and  _43
REMARK    7  A    between atoms: _43  and  _46
REMARK    8  A    between atoms: _53  and  _55
REMARK                            x       y       z     vdW  Elec       q    Type
REMARK                         _______ _______ _______ _____ _____    ______ ____
ROOT
ATOM     10  C   UNL     1      40.690 110.221  43.536  0.00  0.00    +0.038 A 
ATOM     11  C   UNL     1      41.148 108.995  44.082  0.00  0.00    +0.047 A 
ATOM     12  C   UNL     1      40.613 108.481  45.333  0.00  0.00    +0.035 A 
ATOM     32  C   UNL     1      39.608 109.240  46.000  0.00  0.00    +0.024 A 
ATOM     33  C   UNL     1      39.131 110.489  45.460  0.00  0.00    +0.007 A 
ATOM     34  C   UNL     1      39.658 111.002  44.228  0.00  0.00    -0.029 A 
ATOM     35  C   UNL     1      39.114 112.350  43.700  0.00  0.00    +0.045 C 
ENDROOT
BRANCH  10   9
ATOM      4  C   UNL     1      44.039 112.568  41.024  0.00  0.00    +0.077 A 
ATOM      5  C   UNL     1      44.740 112.960  42.213  0.00  0.00    +0.048 A 
ATOM      6  C   UNL     1      44.202 112.544  43.451  0.00  0.00    +0.116 A 
ATOM      7  N   UNL     1      43.048 111.791  43.486  0.00  0.00    -0.223 NA
ATOM      8  C   UNL     1      42.396 111.431  42.321  0.00  0.00    +0.220 A 
ATOM      9  N   UNL     1      41.239 110.667  42.332  0.00  0.00    -0.283 N 
ATOM     36  H   UNL     1      40.783 110.429  41.451  0.00  0.00    +0.155 HD
ATOM     37  N   UNL     1      42.889 111.817  41.126  0.00  0.00    -0.214 NA
BRANCH   4   3
ATOM      1  C   UNL     1      44.210 112.934  37.134  0.00  0.00    +0.020 A 
ATOM      2  C   UNL     1      43.736 112.561  38.446  0.00  0.00    +0.013 A 
ATOM      3  C   UNL     1      44.485 112.928  39.641  0.00  0.00    +0.019 A 
ATOM     38  C   UNL     1      45.720 113.679  39.472  0.00  0.00    +0.120 A 
ATOM     39  N   UNL     1      46.153 114.023  38.195  0.00  0.00    -0.263 NA
ATOM     40  C   UNL     1      45.441 113.674  37.038  0.00  0.00    +0.111 A 
ENDBRANCH   4   3
ENDBRANCH  10   9
BRANCH  12  13
ATOM     13  N   UNL     1      41.045 107.246  45.939  0.00  0.00    -0.281 N 
ATOM     14  C   UNL     1      41.167 106.957  47.288  0.00  0.00    +0.248 C 
ATOM     30  O   UNL     1      41.125 107.791  48.180  0.00  0.00    -0.270 OA
ATOM     31  H   UNL     1      41.292 106.494  45.295  0.00  0.00    +0.155 HD
BRANCH  14  15
ATOM     15  C   UNL     1      41.380 105.537  47.706  0.00  0.00    +0.037 A 
ATOM     16  C   UNL     1      41.026 104.424  46.822  0.00  0.00    +0.013 A 
ATOM     17  C   UNL     1      41.226 103.064  47.256  0.00  0.00    +0.005 A 
ATOM     18  C   UNL     1      41.784 102.810  48.582  0.00  0.00    -0.033 A 
ATOM     28  C   UNL     1      42.131 103.934  49.437  0.00  0.00    +0.005 A 
ATOM     29  C   UNL     1      41.935 105.268  49.015  0.00  0.00    +0.013 A 
BRANCH  18  19
ATOM     19  C   UNL     1      42.012 101.392  49.137  0.00  0.00    +0.119 C 
BRANCH  19  20
ATOM     20  N   UNL     1      43.191 100.636  48.618  0.00  0.00    -0.302 NA
ATOM     21  C   UNL     1      43.749  99.659  49.656  0.00  0.00    +0.066 C 
ATOM     22  C   UNL     1      44.968  98.860  49.089  0.00  0.00    -0.064 C 
ATOM     23  N   UNL     1      46.049  99.841  48.633  0.00  0.00    +0.379 N 
ATOM     24  C   UNL     1      47.219  99.093  48.152  0.00  0.00    -0.096 C 
ATOM     25  H   UNL     1      46.367 100.432  49.523  0.00  0.00    -0.082 HD
ATOM     26  C   UNL     1      45.501 100.819  47.602  0.00  0.00    -0.064 C 
ATOM     27  C   UNL     1      44.273 101.586  48.165  0.00  0.00    +0.066 C 
ENDBRANCH  19  20
ENDBRANCH  18  19
ENDBRANCH  14  15
ENDBRANCH  12  13
TORSDOF 6
ENDMDL
MODEL 2
REMARK VINA RESULT:      -9.6      2.729     12.380
REMARK  Name = C:\Users\Docking\Desktop\test protocol\1iep_ligandH.pdb
REMARK  8 active torsions:
REMARK  status: ('A' for Active; 'I' for Inactive)
REMARK    1  A    between atoms: _5  and  _11
REMARK    2  A    between atoms: _19  and  _21
REMARK    3  A    between atoms: _22  and  _66
REMARK    4  A    between atoms: _27  and  _30
REMARK    5  A    between atoms: _32  and  _33
REMARK    6  A    between atoms: _38  and  _43
REMARK    7  A    between atoms: _43  and  _46
REMARK    8  A    between atoms: _53  and  _55
REMARK                            x       y       z     vdW  Elec       q    Type
REMARK                         _______ _______ _______ _____ _____    ______ ____
ROOT
ATOM     10  C   UNL     1      41.205 106.521  46.814  0.00  0.00    +0.038 A 
ATOM     11  C   UNL     1      41.170 107.458  45.750  0.00  0.00    +0.047 A 
ATOM     12  C   UNL     1      41.800 108.763  45.875  0.00  0.00    +0.035 A 
ATOM     32  C   UNL     1      42.460 109.080  47.097  0.00  0.00    +0.024 A 
ATOM     33  C   UNL     1      42.504 108.141  48.190  0.00  0.00    +0.007 A 
ATOM     34  C   UNL     1      41.883 106.853  48.074  0.00  0.00    -0.029 A 
ATOM     35  C   UNL     1      41.956 105.888  49.280  0.00  0.00    +0.045 C 
ENDROOT
BRANCH  10   9
ATOM      4  C   UNL     1      41.348 101.780  46.083  0.00  0.00    +0.077 A 
ATOM      5  C   UNL     1      42.781 101.774  46.015  0.00  0.00    +0.048 A 
ATOM      6  C   UNL     1      43.443 103.013  46.166  0.00  0.00    +0.116 A 
ATOM      7  N   UNL     1      42.716 104.166  46.370  0.00  0.00    -0.223 NA
ATOM      8  C   UNL     1      41.335 104.137  46.428  0.00  0.00    +0.220 A 
ATOM      9  N   UNL     1      40.584 105.283  46.640  0.00  0.00    -0.283 N 
ATOM     36  H   UNL     1      39.566 105.221  46.669  0.00  0.00    +0.155 HD
ATOM     37  N   UNL     1      40.679 102.966  46.285  0.00  0.00    -0.214 NA
BRANCH   4   3
ATOM      1  C   UNL     1      39.451  98.703  44.588  0.00  0.00    +0.020 A 
ATOM      2  C   UNL     1      40.273  99.889  44.667  0.00  0.00    +0.013 A 
ATOM      3  C   UNL     1      40.506 100.550  45.945  0.00  0.00    +0.019 A 
ATOM     38  C   UNL     1      39.889  99.981  47.133  0.00  0.00    +0.120 A 
ATOM     39  N   UNL     1      39.102  98.838  47.027  0.00  0.00    -0.263 NA
ATOM     40  C   UNL     1      38.869  98.194  45.802  0.00  0.00    +0.111 A 
ENDBRANCH   4   3
ENDBRANCH  10   9
BRANCH  12  13
ATOM     13  N   UNL     1      41.789 109.758  44.831  0.00  0.00    -0.281 N 
ATOM     14  C   UNL     1      40.782 110.657  44.521  0.00  0.00    +0.248 C 
ATOM     30  O   UNL     1      39.644 110.599  44.963  0.00  0.00    -0.270 OA
ATOM     31  H   UNL     1      42.626 109.805  44.249  0.00  0.00    +0.155 HD
BRANCH  14  15
ATOM     15  C   UNL     1      41.078 111.774  43.574  0.00  0.00    +0.037 A 
ATOM     16  C   UNL     1      42.443 112.273  43.389  0.00  0.00    +0.013 A 
ATOM     17  C   UNL     1      42.698 113.363  42.481  0.00  0.00    +0.005 A 
ATOM     18  C   UNL     1      41.584 113.962  41.750  0.00  0.00    -0.033 A 
ATOM     28  C   UNL     1      40.240 113.444  41.948  0.00  0.00    +0.005 A 
ATOM     29  C   UNL     1      39.986 112.376  42.838  0.00  0.00    +0.013 A 
BRANCH  18  19
ATOM     19  C   UNL     1      41.760 115.143  40.777  0.00  0.00    +0.119 C 
BRANCH  19  20
ATOM     20  N   UNL     1      42.599 114.909  39.564  0.00  0.00    -0.302 NA
ATOM     21  C   UNL     1      42.691 113.423  39.206  0.00  0.00    +0.066 C 
ATOM     22  C   UNL     1      43.554 113.200  37.921  0.00  0.00    -0.064 C 
ATOM     23  N   UNL     1      44.948 113.792  38.137  0.00  0.00    +0.379 N 
ATOM     24  C   UNL     1      45.780 113.532  36.953  0.00  0.00    -0.096 C 
ATOM     25  H   UNL     1      45.412 113.260  39.000  0.00  0.00    -0.082 HD
ATOM     26  C   UNL     1      44.866 115.269  38.496  0.00  0.00    -0.064 C 
ATOM     27  C   UNL     1      43.982 115.483  39.757  0.00  0.00    +0.066 C 
ENDBRANCH  19  20
ENDBRANCH  18  19
ENDBRANCH  14  15
ENDBRANCH  12  13
TORSDOF 6
ENDMDL
MODEL 3
REMARK VINA RESULT:      -9.5      2.185      3.076
REMARK  Name = C:\Users\Docking\Desktop\test protocol\1iep_ligandH.pdb
REMARK  8 active torsions:
REMARK  status: ('A' for Active; 'I' for Inactive)
REMARK    1  A    between atoms: _5  and  _11
REMARK    2  A    between atoms: _19  and  _21
REMARK    3  A    between atoms: _22  and  _66
REMARK    4  A    between atoms: _27  and  _30
REMARK    5  A    between atoms: _32  and  _33
REMARK    6  A    between atoms: _38  and  _43
REMARK    7  A    between atoms: _43  and  _46
REMARK    8  A    between atoms: _53  and  _55
REMARK                            x       y       z     vdW  Elec       q    Type
REMARK                         _______ _______ _______ _____ _____    ______ ____
ROOT
ATOM     10  C   UNL     1      41.581 111.613  42.399  0.00  0.00    +0.038 A 
ATOM     11  C   UNL     1      41.905 110.384  43.029  0.00  0.00    +0.047 A 
ATOM     12  C   UNL     1      41.339 110.028  44.321  0.00  0.00    +0.035 A 
ATOM     32  C   UNL     1      40.443 110.946  44.942  0.00  0.00    +0.024 A 
ATOM     33  C   UNL     1      40.104 112.200  44.317  0.00  0.00    +0.007 A 
ATOM     34  C   UNL     1      40.661 112.558  43.044  0.00  0.00    -0.029 A 
ATOM     35  C   UNL     1      40.267 113.919  42.423  0.00  0.00    +0.045 C 
ENDROOT
BRANCH  10   9
ATOM      4  C   UNL     1      45.197 113.209  39.677  0.00  0.00    +0.077 A 
ATOM      5  C   UNL     1      46.003 113.515  40.823  0.00  0.00    +0.048 A 
ATOM      6  C   UNL     1      45.448 113.253  42.095  0.00  0.00    +0.116 A 
ATOM      7  N   UNL     1      44.180 112.724  42.202  0.00  0.00    -0.223 NA
ATOM      8  C   UNL     1      43.428 112.443  41.076  0.00  0.00    +0.220 A 
ATOM      9  N   UNL     1      42.153 111.904  41.159  0.00  0.00    -0.283 N 
ATOM     36  H   UNL     1      41.628 111.717  40.305  0.00  0.00    +0.155 HD
ATOM     37  N   UNL     1      43.935 112.685  39.849  0.00  0.00    -0.214 NA
BRANCH   4   3
ATOM      1  C   UNL     1      45.208 113.939  35.834  0.00  0.00    +0.020 A 
ATOM      2  C   UNL     1      44.723 113.738  37.180  0.00  0.00    +0.013 A 
ATOM      3  C   UNL     1      45.645 113.427  38.265  0.00  0.00    +0.019 A 
ATOM     38  C   UNL     1      47.063 113.326  37.952  0.00  0.00    +0.120 A 
ATOM     39  N   UNL     1      47.500 113.524  36.646  0.00  0.00    -0.263 NA
ATOM     40  C   UNL     1      46.622 113.822  35.593  0.00  0.00    +0.111 A 
ENDBRANCH   4   3
ENDBRANCH  10   9
BRANCH  12  13
ATOM     13  N   UNL     1      41.637 108.798  45.012  0.00  0.00    -0.281 N 
ATOM     14  C   UNL     1      42.495 108.609  46.083  0.00  0.00    +0.248 C 
ATOM     30  O   UNL     1      43.302 109.438  46.476  0.00  0.00    -0.270 OA
ATOM     31  H   UNL     1      41.158 107.965  44.669  0.00  0.00    +0.155 HD
BRANCH  14  15
ATOM     15  C   UNL     1      42.460 107.307  46.815  0.00  0.00    +0.037 A 
ATOM     16  C   UNL     1      41.497 107.067  47.893  0.00  0.00    +0.013 A 
ATOM     17  C   UNL     1      41.496 105.807  48.595  0.00  0.00    +0.005 A 
ATOM     18  C   UNL     1      42.462 104.778  48.219  0.00  0.00    -0.033 A 
ATOM     28  C   UNL     1      43.402 105.040  47.142  0.00  0.00    +0.005 A 
ATOM     29  C   UNL     1      43.407 106.274  46.453  0.00  0.00    +0.013 A 
BRANCH  18  19
ATOM     19  C   UNL     1      42.547 103.412  48.927  0.00  0.00    +0.119 C 
BRANCH  19  20
ATOM     20  N   UNL     1      41.991 102.231  48.203  0.00  0.00    -0.302 NA
ATOM     21  C   UNL     1      40.882 102.626  47.224  0.00  0.00    +0.066 C 
ATOM     22  C   UNL     1      40.328 101.381  46.458  0.00  0.00    -0.064 C 
ATOM     23  N   UNL     1      39.817 100.351  47.468  0.00  0.00    +0.379 N 
ATOM     24  C   UNL     1      39.242  99.204  46.750  0.00  0.00    -0.096 C 
ATOM     25  H   UNL     1      38.997 100.830  48.053  0.00  0.00    -0.082 HD
ATOM     26  C   UNL     1      40.912  99.954  48.447  0.00  0.00    -0.064 C 
ATOM     27  C   UNL     1      41.477 101.203  49.181  0.00  0.00    +0.066 C 
ENDBRANCH  19  20
ENDBRANCH  18  19
ENDBRANCH  14  15
ENDBRANCH  12  13
TORSDOF 6
ENDMDL
