MODEL 1
REMARK VINA RESULT:      -8.0      0.000      0.000
REMARK  Name = C:\Users\Docking\Desktop\test protocol\1iep_ligandH.pdb
REMARK  8 active torsions:
REMARK  status: ('A' for Active; 'I' for Inactive)
REMARK    1  A    between atoms: _5  and  _11
REMARK    2  A    between atoms: _19  and  _21
REMARK    3  A    between atoms: _22  and  _66
REMARK    4  A    between atoms: _27  and  _30
REMARK    5  A    between atoms: _32  and  _33
REMARK    6  A    between atoms: _38  and  _43
REMARK    7  A    between atoms: _43  and  _46
REMARK    8  A    between atoms: _53  and  _55
REMARK                            x       y       z     vdW  Elec       q    Type
REMARK                         _______ _______ _______ _____ _____    ______ ____
ROOT
ATOM     10  C   UNL     1      18.720  28.100  49.615  0.00  0.00    +0.038 A 
ATOM     11  C   UNL     1      19.406  29.314  49.878  0.00  0.00    +0.047 A 
ATOM     12  C   UNL     1      19.218  30.028  51.131  0.00  0.00    +0.035 A 
ATOM     32  C   UNL     1      18.326  29.477  52.096  0.00  0.00    +0.024 A 
ATOM     33  C   UNL     1      17.620  28.245  51.845  0.00  0.00    +0.007 A 
ATOM     34  C   UNL     1      17.799  27.537  50.610  0.00  0.00    -0.029 A 
ATOM     35  C   UNL     1      17.011  26.224  50.393  0.00  0.00    +0.045 C 
ENDROOT
BRANCH  10   9
ATOM      4  C   UNL     1      17.812  27.458  44.946  0.00  0.00    +0.077 A 
ATOM      5  C   UNL     1      16.799  28.473  44.943  0.00  0.00    +0.048 A 
ATOM      6  C   UNL     1      16.537  29.132  46.165  0.00  0.00    +0.116 A 
ATOM      7  N   UNL     1      17.242  28.793  47.299  0.00  0.00    -0.223 NA
ATOM      8  C   UNL     1      18.211  27.808  47.269  0.00  0.00    +0.220 A 
ATOM      9  N   UNL     1      18.938  27.456  48.396  0.00  0.00    -0.283 N 
ATOM     36  H   UNL     1      19.640  26.718  48.333  0.00  0.00    +0.155 HD
ATOM     37  N   UNL     1      18.479  27.162  46.114  0.00  0.00    -0.214 NA
BRANCH   4   3
ATOM      1  C   UNL     1      18.874  26.495  41.307  0.00  0.00    +0.020 A 
ATOM      2  C   UNL     1      18.497  27.297  42.448  0.00  0.00    +0.013 A 
ATOM      3  C   UNL     1      18.206  26.674  43.733  0.00  0.00    +0.019 A 
ATOM     38  C   UNL     1      18.306  25.226  43.830  0.00  0.00    +0.120 A 
ATOM     39  N   UNL     1      18.669  24.479  42.714  0.00  0.00    -0.263 NA
ATOM     40  C   UNL     1      18.950  25.067  41.472  0.00  0.00    +0.111 A 
ENDBRANCH   4   3
ENDBRANCH  10   9
BRANCH  12  13
ATOM     13  N   UNL     1      19.881  31.269  51.450  0.00  0.00    -0.281 N 
ATOM     14  C   UNL     1      21.029  31.451  52.204  0.00  0.00    +0.248 C 
ATOM     30  O   UNL     1      21.543  30.589  52.900  0.00  0.00    -0.270 OA
ATOM     31  H   UNL     1      19.452  32.114  51.075  0.00  0.00    +0.155 HD
BRANCH  14  15
ATOM     15  C   UNL     1      21.693  32.790  52.194  0.00  0.00    +0.037 A 
ATOM     16  C   UNL     1      21.103  33.937  52.888  0.00  0.00    +0.013 A 
ATOM     17  C   UNL     1      21.756  35.221  52.848  0.00  0.00    +0.005 A 
ATOM     18  C   UNL     1      23.010  35.365  52.112  0.00  0.00    -0.033 A 
ATOM     28  C   UNL     1      23.576  34.209  51.436  0.00  0.00    +0.005 A 
ATOM     29  C   UNL     1      22.938  32.949  51.472  0.00  0.00    +0.013 A 
BRANCH  18  19
ATOM     19  C   UNL     1      23.765  36.702  51.998  0.00  0.00    +0.119 C 
BRANCH  19  20
ATOM     20  N   UNL     1      24.378  37.031  50.677  0.00  0.00    -0.302 NA
ATOM     21  C   UNL     1      25.597  37.947  50.822  0.00  0.00    +0.066 C 
ATOM     22  C   UNL     1      26.240  38.263  49.432  0.00  0.00    -0.064 C 
ATOM     23  N   UNL     1      25.190  38.898  48.519  0.00  0.00    +0.379 N 
ATOM     24  C   UNL     1      25.806  39.249  47.232  0.00  0.00    -0.096 C 
ATOM     25  H   UNL     1      24.852  39.845  49.002  0.00  0.00    -0.082 HD
ATOM     26  C   UNL     1      23.974  37.995  48.372  0.00  0.00    -0.064 C 
ATOM     27  C   UNL     1      23.360  37.664  49.761  0.00  0.00    +0.066 C 
ENDBRANCH  19  20
ENDBRANCH  18  19
ENDBRANCH  14  15
ENDBRANCH  12  13
TORSDOF 6
ENDMDL
MODEL 2
REMARK VINA RESULT:      -7.6      5.187     12.131
REMARK  Name = C:\Users\Docking\Desktop\test protocol\1iep_ligandH.pdb
REMARK  8 active torsions:
REMARK  status: ('A' for Active; 'I' for Inactive)
REMARK    1  A    between atoms: _5  and  _11
REMARK    2  A    between atoms: _19  and  _21
REMARK    3  A    between atoms: _22  and  _66
REMARK    4  A    between atoms: _27  and  _30
REMARK    5  A    between atoms: _32  and  _33
REMARK    6  A    between atoms: _38  and  _43
REMARK    7  A    between atoms: _43  and  _46
REMARK    8  A    between atoms: _53  and  _55
REMARK                            x       y       z     vdW  Elec       q    Type
REMARK                         _______ _______ _______ _____ _____    ______ ____
ROOT
ATOM     10  C   UNL     1      21.962  37.291  51.331  0.00  0.00    +0.038 A 
ATOM     11  C   UNL     1      21.707  35.909  51.139  0.00  0.00    +0.047 A 
ATOM     12  C   UNL     1      21.386  35.040  52.260  0.00  0.00    +0.035 A 
ATOM     32  C   UNL     1      21.331  35.613  53.564  0.00  0.00    +0.024 A 
ATOM     33  C   UNL     1      21.589  37.015  53.778  0.00  0.00    +0.007 A 
ATOM     34  C   UNL     1      21.909  37.877  52.676  0.00  0.00    -0.029 A 
ATOM     35  C   UNL     1      22.182  39.371  52.964  0.00  0.00    +0.045 C 
ENDROOT
BRANCH  10   9
ATOM      4  C   UNL     1      25.086  39.268  48.269  0.00  0.00    +0.077 A 
ATOM      5  C   UNL     1      26.210  38.705  48.960  0.00  0.00    +0.048 A 
ATOM      6  C   UNL     1      25.942  37.919  50.103  0.00  0.00    +0.116 A 
ATOM      7  N   UNL     1      24.642  37.717  50.515  0.00  0.00    -0.223 NA
ATOM      8  C   UNL     1      23.581  38.276  49.827  0.00  0.00    +0.220 A 
ATOM      9  N   UNL     1      22.266  38.079  50.218  0.00  0.00    -0.283 N 
ATOM     36  H   UNL     1      21.511  38.514  49.688  0.00  0.00    +0.155 HD
ATOM     37  N   UNL     1      23.811  39.032  48.733  0.00  0.00    -0.214 NA
BRANCH   4   3
ATOM      1  C   UNL     1      26.434  40.921  44.990  0.00  0.00    +0.020 A 
ATOM      2  C   UNL     1      26.367  40.079  46.162  0.00  0.00    +0.013 A 
ATOM      3  C   UNL     1      25.206  40.119  47.043  0.00  0.00    +0.019 A 
ATOM     38  C   UNL     1      24.121  41.028  46.706  0.00  0.00    +0.120 A 
ATOM     39  N   UNL     1      24.214  41.828  45.572  0.00  0.00    -0.263 NA
ATOM     40  C   UNL     1      25.327  41.800  44.718  0.00  0.00    +0.111 A 
ENDBRANCH   4   3
ENDBRANCH  10   9
BRANCH  12  13
ATOM     13  N   UNL     1      21.124  33.628  52.127  0.00  0.00    -0.281 N 
ATOM     14  C   UNL     1      22.000  32.635  51.721  0.00  0.00    +0.248 C 
ATOM     30  O   UNL     1      23.088  32.842  51.203  0.00  0.00    -0.270 OA
ATOM     31  H   UNL     1      20.179  33.325  52.361  0.00  0.00    +0.155 HD
BRANCH  14  15
ATOM     15  C   UNL     1      21.605  31.205  51.904  0.00  0.00    +0.037 A 
ATOM     16  C   UNL     1      21.537  30.284  50.766  0.00  0.00    +0.013 A 
ATOM     17  C   UNL     1      21.136  28.914  50.968  0.00  0.00    +0.005 A 
ATOM     18  C   UNL     1      20.802  28.457  52.315  0.00  0.00    -0.033 A 
ATOM     28  C   UNL     1      20.884  29.390  53.426  0.00  0.00    +0.005 A 
ATOM     29  C   UNL     1      21.275  30.734  53.232  0.00  0.00    +0.013 A 
BRANCH  18  19
ATOM     19  C   UNL     1      20.345  27.018  52.619  0.00  0.00    +0.119 C 
BRANCH  19  20
ATOM     20  N   UNL     1      21.191  26.214  53.551  0.00  0.00    -0.302 NA
ATOM     21  C   UNL     1      21.084  24.712  53.274  0.00  0.00    +0.066 C 
ATOM     22  C   UNL     1      21.993  23.888  54.242  0.00  0.00    -0.064 C 
ATOM     23  N   UNL     1      21.606  24.200  55.689  0.00  0.00    +0.379 N 
ATOM     24  C   UNL     1      22.420  23.383  56.602  0.00  0.00    -0.096 C 
ATOM     25  H   UNL     1      20.541  23.902  55.826  0.00  0.00    -0.082 HD
ATOM     26  C   UNL     1      21.707  25.692  55.973  0.00  0.00    -0.064 C 
ATOM     27  C   UNL     1      20.823  26.504  54.986  0.00  0.00    +0.066 C 
ENDBRANCH  19  20
ENDBRANCH  18  19
ENDBRANCH  14  15
ENDBRANCH  12  13
TORSDOF 6
ENDMDL
MODEL 3
REMARK VINA RESULT:      -7.5      8.608     16.550
REMARK  Name = C:\Users\Docking\Desktop\test protocol\1iep_ligandH.pdb
REMARK  8 active torsions:
REMARK  status: ('A' for Active; 'I' for Inactive)
REMARK    1  A    between atoms: _5  and  _11
REMARK    2  A    between atoms: _19  and  _21
REMARK    3  A    between atoms: _22  and  _66
REMARK    4  A    between atoms: _27  and  _30
REMARK    5  A    between atoms: _32  and  _33
REMARK    6  A    between atoms: _38  and  _43
REMARK    7  A    between atoms: _43  and  _46
REMARK    8  A    between atoms: _53  and  _55
REMARK                            x       y       z     vdW  Elec       q    Type
REMARK                         _______ _______ _______ _____ _____    ______ ____
ROOT
ATOM     10  C   UNL     1      20.765  24.730  51.680  0.00  0.00    +0.038 A 
ATOM     11  C   UNL     1      20.549  23.346  51.455  0.00  0.00    +0.047 A 
ATOM     12  C   UNL     1      19.708  22.885  50.361  0.00  0.00    +0.035 A 
ATOM     32  C   UNL     1      19.104  23.860  49.515  0.00  0.00    +0.024 A 
ATOM     33  C   UNL     1      19.312  25.270  49.731  0.00  0.00    +0.007 A 
ATOM     34  C   UNL     1      20.139  25.732  50.809  0.00  0.00    -0.029 A 
ATOM     35  C   UNL     1      20.322  27.256  50.997  0.00  0.00    +0.045 C 
ENDROOT
BRANCH  10   9
ATOM      4  C   UNL     1      21.521  25.587  56.342  0.00  0.00    +0.077 A 
ATOM      5  C   UNL     1      20.165  25.262  56.682  0.00  0.00    +0.048 A 
ATOM      6  C   UNL     1      19.304  24.886  55.627  0.00  0.00    +0.116 A 
ATOM      7  N   UNL     1      19.774  24.841  54.333  0.00  0.00    -0.223 NA
ATOM      8  C   UNL     1      21.086  25.163  54.039  0.00  0.00    +0.220 A 
ATOM      9  N   UNL     1      21.582  25.117  52.745  0.00  0.00    -0.283 N 
ATOM     36  H   UNL     1      22.554  25.369  52.568  0.00  0.00    +0.155 HD
ATOM     37  N   UNL     1      21.928  25.527  55.028  0.00  0.00    -0.214 NA
BRANCH   4   3
ATOM      1  C   UNL     1      24.330  27.566  58.210  0.00  0.00    +0.020 A 
ATOM      2  C   UNL     1      23.348  27.213  57.211  0.00  0.00    +0.013 A 
ATOM      3  C   UNL     1      22.552  26.000  57.346  0.00  0.00    +0.019 A 
ATOM     38  C   UNL     1      22.776  25.159  58.512  0.00  0.00    +0.120 A 
ATOM     39  N   UNL     1      23.731  25.524  59.457  0.00  0.00    -0.263 NA
ATOM     40  C   UNL     1      24.504  26.688  59.337  0.00  0.00    +0.111 A 
ENDBRANCH   4   3
ENDBRANCH  10   9
BRANCH  12  13
ATOM     13  N   UNL     1      19.445  21.493  50.088  0.00  0.00    -0.281 N 
ATOM     14  C   UNL     1      18.259  20.800  50.265  0.00  0.00    +0.248 C 
ATOM     30  O   UNL     1      17.298  21.223  50.889  0.00  0.00    -0.270 OA
ATOM     31  H   UNL     1      20.229  20.954  49.720  0.00  0.00    +0.155 HD
BRANCH  14  15
ATOM     15  C   UNL     1      18.127  19.433  49.676  0.00  0.00    +0.037 A 
ATOM     16  C   UNL     1      19.224  18.464  49.751  0.00  0.00    +0.013 A 
ATOM     17  C   UNL     1      19.077  17.158  49.158  0.00  0.00    +0.005 A 
ATOM     18  C   UNL     1      17.826  16.813  48.487  0.00  0.00    -0.033 A 
ATOM     28  C   UNL     1      16.753  17.791  48.432  0.00  0.00    +0.005 A 
ATOM     29  C   UNL     1      16.894  19.073  49.010  0.00  0.00    +0.013 A 
BRANCH  18  19
ATOM     19  C   UNL     1      17.589  15.450  47.809  0.00  0.00    +0.119 C 
BRANCH  19  20
ATOM     20  N   UNL     1      16.535  14.569  48.395  0.00  0.00    -0.302 NA
ATOM     21  C   UNL     1      16.591  14.545  49.925  0.00  0.00    +0.066 C 
ATOM     22  C   UNL     1      15.467  13.637  50.521  0.00  0.00    -0.064 C 
ATOM     23  N   UNL     1      15.602  12.224  49.952  0.00  0.00    +0.379 N 
ATOM     24  C   UNL     1      14.582  11.353  50.555  0.00  0.00    -0.096 C 
ATOM     25  H   UNL     1      16.602  11.832  50.252  0.00  0.00    -0.082 HD
ATOM     26  C   UNL     1      15.550  12.239  48.431  0.00  0.00    -0.064 C 
ATOM     27  C   UNL     1      16.652  13.167  47.849  0.00  0.00    +0.066 C 
ENDBRANCH  19  20
ENDBRANCH  18  19
ENDBRANCH  14  15
ENDBRANCH  12  13
TORSDOF 6
ENDMDL
