MODEL 1
REMARK VINA RESULT:      -9.0      0.000      0.000
REMARK  Name = C:\Users\Docking\Desktop\test protocol\1iep_ligandH.pdb
REMARK  8 active torsions:
REMARK  status: ('A' for Active; 'I' for Inactive)
REMARK    1  A    between atoms: _5  and  _11
REMARK    2  A    between atoms: _19  and  _21
REMARK    3  A    between atoms: _22  and  _66
REMARK    4  A    between atoms: _27  and  _30
REMARK    5  A    between atoms: _32  and  _33
REMARK    6  A    between atoms: _38  and  _43
REMARK    7  A    between atoms: _43  and  _46
REMARK    8  A    between atoms: _53  and  _55
REMARK                            x       y       z     vdW  Elec       q    Type
REMARK                         _______ _______ _______ _____ _____    ______ ____
ROOT
ATOM     10  C   UNL     1      54.118  73.079  14.984  0.00  0.00    +0.038 A 
ATOM     11  C   UNL     1      54.124  72.596  16.318  0.00  0.00    +0.047 A 
ATOM     12  C   UNL     1      53.740  73.452  17.430  0.00  0.00    +0.035 A 
ATOM     32  C   UNL     1      53.352  74.794  17.147  0.00  0.00    +0.024 A 
ATOM     33  C   UNL     1      53.342  75.302  15.798  0.00  0.00    +0.007 A 
ATOM     34  C   UNL     1      53.722  74.463  14.697  0.00  0.00    -0.029 A 
ATOM     35  C   UNL     1      53.698  75.062  13.272  0.00  0.00    +0.045 C 
ENDROOT
BRANCH  10   9
ATOM      4  C   UNL     1      57.442  70.889  12.302  0.00  0.00    +0.077 A 
ATOM      5  C   UNL     1      58.515  71.544  12.992  0.00  0.00    +0.048 A 
ATOM      6  C   UNL     1      58.169  72.443  14.027  0.00  0.00    +0.116 A 
ATOM      7  N   UNL     1      56.845  72.662  14.339  0.00  0.00    -0.223 NA
ATOM      8  C   UNL     1      55.834  72.015  13.652  0.00  0.00    +0.220 A 
ATOM      9  N   UNL     1      54.496  72.214  13.955  0.00  0.00    -0.283 N 
ATOM     36  H   UNL     1      53.780  71.723  13.420  0.00  0.00    +0.155 HD
ATOM     37  N   UNL     1      56.138  71.153  12.660  0.00  0.00    -0.214 NA
BRANCH   4   3
ATOM      1  C   UNL     1      59.010  68.900   9.322  0.00  0.00    +0.020 A 
ATOM      2  C   UNL     1      58.862  69.866  10.386  0.00  0.00    +0.013 A 
ATOM      3  C   UNL     1      57.647  69.910  11.189  0.00  0.00    +0.019 A 
ATOM     38  C   UNL     1      56.592  68.954  10.887  0.00  0.00    +0.120 A 
ATOM     39  N   UNL     1      56.761  68.036   9.855  0.00  0.00    -0.263 NA
ATOM     40  C   UNL     1      57.926  67.986   9.075  0.00  0.00    +0.111 A 
ENDBRANCH   4   3
ENDBRANCH  10   9
BRANCH  12  13
ATOM     13  N   UNL     1      53.734  73.019  18.805  0.00  0.00    -0.281 N 
ATOM     14  C   UNL     1      54.782  73.044  19.710  0.00  0.00    +0.248 C 
ATOM     30  O   UNL     1      55.950  73.245  19.410  0.00  0.00    -0.270 OA
ATOM     31  H   UNL     1      52.849  72.650  19.154  0.00  0.00    +0.155 HD
BRANCH  14  15
ATOM     15  C   UNL     1      54.495  72.795  21.156  0.00  0.00    +0.037 A 
ATOM     16  C   UNL     1      54.898  71.545  21.806  0.00  0.00    +0.013 A 
ATOM     17  C   UNL     1      54.593  71.323  23.198  0.00  0.00    +0.005 A 
ATOM     18  C   UNL     1      53.882  72.355  23.948  0.00  0.00    -0.033 A 
ATOM     28  C   UNL     1      53.499  73.588  23.279  0.00  0.00    +0.005 A 
ATOM     29  C   UNL     1      53.795  73.808  21.916  0.00  0.00    +0.013 A 
BRANCH  18  19
ATOM     19  C   UNL     1      53.496  72.195  25.431  0.00  0.00    +0.119 C 
BRANCH  19  20
ATOM     20  N   UNL     1      52.064  72.414  25.793  0.00  0.00    -0.302 NA
ATOM     21  C   UNL     1      51.909  72.985  27.205  0.00  0.00    +0.066 C 
ATOM     22  C   UNL     1      50.406  73.230  27.559  0.00  0.00    -0.064 C 
ATOM     23  N   UNL     1      49.632  71.918  27.417  0.00  0.00    +0.379 N 
ATOM     24  C   UNL     1      48.230  72.131  27.804  0.00  0.00    -0.096 C 
ATOM     25  H   UNL     1      50.073  71.186  28.132  0.00  0.00    -0.082 HD
ATOM     26  C   UNL     1      49.783  71.342  26.016  0.00  0.00    -0.064 C 
ATOM     27  C   UNL     1      51.282  71.131  25.663  0.00  0.00    +0.066 C 
ENDBRANCH  19  20
ENDBRANCH  18  19
ENDBRANCH  14  15
ENDBRANCH  12  13
TORSDOF 6
ENDMDL
MODEL 2
REMARK VINA RESULT:      -8.8      4.875     13.189
REMARK  Name = C:\Users\Docking\Desktop\test protocol\1iep_ligandH.pdb
REMARK  8 active torsions:
REMARK  status: ('A' for Active; 'I' for Inactive)
REMARK    1  A    between atoms: _5  and  _11
REMARK    2  A    between atoms: _19  and  _21
REMARK    3  A    between atoms: _22  and  _66
REMARK    4  A    between atoms: _27  and  _30
REMARK    5  A    between atoms: _32  and  _33
REMARK    6  A    between atoms: _38  and  _43
REMARK    7  A    between atoms: _43  and  _46
REMARK    8  A    between atoms: _53  and  _55
REMARK                            x       y       z     vdW  Elec       q    Type
REMARK                         _______ _______ _______ _____ _____    ______ ____
ROOT
ATOM     10  C   UNL     1      47.177  74.250  15.928  0.00  0.00    +0.038 A 
ATOM     11  C   UNL     1      48.476  73.782  15.607  0.00  0.00    +0.047 A 
ATOM     12  C   UNL     1      49.105  74.117  14.339  0.00  0.00    +0.035 A 
ATOM     32  C   UNL     1      48.382  74.934  13.421  0.00  0.00    +0.024 A 
ATOM     33  C   UNL     1      47.060  75.417  13.731  0.00  0.00    +0.007 A 
ATOM     34  C   UNL     1      46.433  75.088  14.979  0.00  0.00    -0.029 A 
ATOM     35  C   UNL     1      45.011  75.629  15.254  0.00  0.00    +0.045 C 
ENDROOT
BRANCH  10   9
ATOM      4  C   UNL     1      46.907  74.607  20.707  0.00  0.00    +0.077 A 
ATOM      5  C   UNL     1      47.983  75.555  20.756  0.00  0.00    +0.048 A 
ATOM      6  C   UNL     1      48.583  75.919  19.530  0.00  0.00    +0.116 A 
ATOM      7  N   UNL     1      48.133  75.370  18.349  0.00  0.00    -0.223 NA
ATOM      8  C   UNL     1      47.095  74.457  18.337  0.00  0.00    +0.220 A 
ATOM      9  N   UNL     1      46.621  73.898  17.160  0.00  0.00    -0.283 N 
ATOM     36  H   UNL     1      45.858  73.223  17.194  0.00  0.00    +0.155 HD
ATOM     37  N   UNL     1      46.506  74.092  19.494  0.00  0.00    -0.214 NA
BRANCH   4   3
ATOM      1  C   UNL     1      46.028  73.565  24.373  0.00  0.00    +0.020 A 
ATOM      2  C   UNL     1      46.784  74.037  23.236  0.00  0.00    +0.013 A 
ATOM      3  C   UNL     1      46.170  74.125  21.917  0.00  0.00    +0.019 A 
ATOM     38  C   UNL     1      44.777  73.727  21.782  0.00  0.00    +0.120 A 
ATOM     39  N   UNL     1      44.074  73.275  22.895  0.00  0.00    -0.263 NA
ATOM     40  C   UNL     1      44.655  73.184  24.168  0.00  0.00    +0.111 A 
ENDBRANCH   4   3
ENDBRANCH  10   9
BRANCH  12  13
ATOM     13  N   UNL     1      50.419  73.664  13.955  0.00  0.00    -0.281 N 
ATOM     14  C   UNL     1      51.618  74.353  14.046  0.00  0.00    +0.248 C 
ATOM     30  O   UNL     1      51.711  75.550  14.275  0.00  0.00    -0.270 OA
ATOM     31  H   UNL     1      50.473  72.722  13.570  0.00  0.00    +0.155 HD
BRANCH  14  15
ATOM     15  C   UNL     1      52.897  73.608  13.839  0.00  0.00    +0.037 A 
ATOM     16  C   UNL     1      53.708  73.811  12.636  0.00  0.00    +0.013 A 
ATOM     17  C   UNL     1      54.929  73.066  12.453  0.00  0.00    +0.005 A 
ATOM     18  C   UNL     1      55.346  72.112  13.477  0.00  0.00    -0.033 A 
ATOM     28  C   UNL     1      54.525  71.934  14.663  0.00  0.00    +0.005 A 
ATOM     29  C   UNL     1      53.327  72.662  14.846  0.00  0.00    +0.013 A 
BRANCH  18  19
ATOM     19  C   UNL     1      56.623  71.259  13.355  0.00  0.00    +0.119 C 
BRANCH  19  20
ATOM     20  N   UNL     1      56.988  70.767  11.994  0.00  0.00    -0.302 NA
ATOM     21  C   UNL     1      56.399  69.383  11.706  0.00  0.00    +0.066 C 
ATOM     22  C   UNL     1      56.772  68.893  10.269  0.00  0.00    -0.064 C 
ATOM     23  N   UNL     1      58.295  68.874  10.119  0.00  0.00    +0.379 N 
ATOM     24  C   UNL     1      58.650  68.359   8.789  0.00  0.00    -0.096 C 
ATOM     25  H   UNL     1      58.700  68.165  10.877  0.00  0.00    -0.082 HD
ATOM     26  C   UNL     1      58.889  70.246  10.406  0.00  0.00    -0.064 C 
ATOM     27  C   UNL     1      58.488  70.737  11.825  0.00  0.00    +0.066 C 
ENDBRANCH  19  20
ENDBRANCH  18  19
ENDBRANCH  14  15
ENDBRANCH  12  13
TORSDOF 6
ENDMDL
MODEL 3
REMARK VINA RESULT:      -8.5      6.220     14.354
REMARK  Name = C:\Users\Docking\Desktop\test protocol\1iep_ligandH.pdb
REMARK  8 active torsions:
REMARK  status: ('A' for Active; 'I' for Inactive)
REMARK    1  A    between atoms: _5  and  _11
REMARK    2  A    between atoms: _19  and  _21
REMARK    3  A    between atoms: _22  and  _66
REMARK    4  A    between atoms: _27  and  _30
REMARK    5  A    between atoms: _32  and  _33
REMARK    6  A    between atoms: _38  and  _43
REMARK    7  A    between atoms: _43  and  _46
REMARK    8  A    between atoms: _53  and  _55
REMARK                            x       y       z     vdW  Elec       q    Type
REMARK                         _______ _______ _______ _____ _____    ______ ____
ROOT
ATOM     10  C   UNL     1      56.949  70.900  12.604  0.00  0.00    +0.038 A 
ATOM     11  C   UNL     1      58.030  71.786  12.366  0.00  0.00    +0.047 A 
ATOM     12  C   UNL     1      59.011  71.515  11.327  0.00  0.00    +0.035 A 
ATOM     32  C   UNL     1      58.857  70.333  10.545  0.00  0.00    +0.024 A 
ATOM     33  C   UNL     1      57.764  69.420  10.774  0.00  0.00    +0.007 A 
ATOM     34  C   UNL     1      56.796  69.681  11.800  0.00  0.00    -0.029 A 
ATOM     35  C   UNL     1      55.648  68.665  12.005  0.00  0.00    +0.045 C 
ENDROOT
BRANCH  10   9
ATOM      4  C   UNL     1      53.175  73.331  14.301  0.00  0.00    +0.077 A 
ATOM      5  C   UNL     1      53.024  74.067  13.079  0.00  0.00    +0.048 A 
ATOM      6  C   UNL     1      53.942  73.795  12.040  0.00  0.00    +0.116 A 
ATOM      7  N   UNL     1      54.934  72.855  12.222  0.00  0.00    -0.223 NA
ATOM      8  C   UNL     1      55.052  72.164  13.414  0.00  0.00    +0.220 A 
ATOM      9  N   UNL     1      56.037  71.209  13.615  0.00  0.00    -0.283 N 
ATOM     36  H   UNL     1      56.095  70.727  14.512  0.00  0.00    +0.155 HD
ATOM     37  N   UNL     1      54.188  72.407  14.422  0.00  0.00    -0.214 NA
BRANCH   4   3
ATOM      1  C   UNL     1      51.854  74.131  17.895  0.00  0.00    +0.020 A 
ATOM      2  C   UNL     1      52.760  73.982  16.780  0.00  0.00    +0.013 A 
ATOM      3  C   UNL     1      52.280  73.504  15.489  0.00  0.00    +0.019 A 
ATOM     38  C   UNL     1      50.866  73.185  15.359  0.00  0.00    +0.120 A 
ATOM     39  N   UNL     1      50.018  73.338  16.452  0.00  0.00    -0.263 NA
ATOM     40  C   UNL     1      50.469  73.795  17.699  0.00  0.00    +0.111 A 
ENDBRANCH   4   3
ENDBRANCH  10   9
BRANCH  12  13
ATOM     13  N   UNL     1      60.134  72.374  11.045  0.00  0.00    -0.281 N 
ATOM     14  C   UNL     1      61.351  72.428  11.705  0.00  0.00    +0.248 C 
ATOM     30  O   UNL     1      61.579  71.892  12.779  0.00  0.00    -0.270 OA
ATOM     31  H   UNL     1      60.018  73.020  10.264  0.00  0.00    +0.155 HD
BRANCH  14  15
ATOM     15  C   UNL     1      62.472  73.203  11.090  0.00  0.00    +0.037 A 
ATOM     16  C   UNL     1      63.810  73.207  11.687  0.00  0.00    +0.013 A 
ATOM     17  C   UNL     1      64.869  73.976  11.083  0.00  0.00    +0.005 A 
ATOM     18  C   UNL     1      64.593  74.748   9.874  0.00  0.00    -0.033 A 
ATOM     28  C   UNL     1      63.258  74.722   9.300  0.00  0.00    +0.005 A 
ATOM     29  C   UNL     1      62.217  73.970   9.890  0.00  0.00    +0.013 A 
BRANCH  18  19
ATOM     19  C   UNL     1      65.657  75.614   9.174  0.00  0.00    +0.119 C 
BRANCH  19  20
ATOM     20  N   UNL     1      65.384  77.079   9.067  0.00  0.00    -0.302 NA
ATOM     21  C   UNL     1      64.916  77.475   7.664  0.00  0.00    +0.066 C 
ATOM     22  C   UNL     1      64.614  79.006   7.577  0.00  0.00    -0.064 C 
ATOM     23  N   UNL     1      65.864  79.794   7.973  0.00  0.00    +0.379 N 
ATOM     24  C   UNL     1      65.600  81.234   7.836  0.00  0.00    -0.096 C 
ATOM     25  H   UNL     1      66.673  79.528   7.254  0.00  0.00    -0.082 HD
ATOM     26  C   UNL     1      66.338  79.404   9.366  0.00  0.00    -0.064 C 
ATOM     27  C   UNL     1      66.607  77.876   9.450  0.00  0.00    +0.066 C 
ENDBRANCH  19  20
ENDBRANCH  18  19
ENDBRANCH  14  15
ENDBRANCH  12  13
TORSDOF 6
ENDMDL
