MODEL 1
REMARK VINA RESULT:      -8.8      0.000      0.000
REMARK  Name = C:\Users\Docking\Desktop\test protocol\1iep_ligandH.pdb
REMARK  8 active torsions:
REMARK  status: ('A' for Active; 'I' for Inactive)
REMARK    1  A    between atoms: _5  and  _11
REMARK    2  A    between atoms: _19  and  _21
REMARK    3  A    between atoms: _22  and  _66
REMARK    4  A    between atoms: _27  and  _30
REMARK    5  A    between atoms: _32  and  _33
REMARK    6  A    between atoms: _38  and  _43
REMARK    7  A    between atoms: _43  and  _46
REMARK    8  A    between atoms: _53  and  _55
REMARK                            x       y       z     vdW  Elec       q    Type
REMARK                         _______ _______ _______ _____ _____    ______ ____
ROOT
ATOM     10  C   UNL     1     -16.818  22.329  35.164  0.00  0.00    +0.038 A 
ATOM     11  C   UNL     1     -16.659  22.217  36.569  0.00  0.00    +0.047 A 
ATOM     12  C   UNL     1     -17.085  23.283  37.462  0.00  0.00    +0.035 A 
ATOM     32  C   UNL     1     -17.672  24.449  36.890  0.00  0.00    +0.024 A 
ATOM     33  C   UNL     1     -17.841  24.580  35.464  0.00  0.00    +0.007 A 
ATOM     34  C   UNL     1     -17.420  23.532  34.578  0.00  0.00    -0.029 A 
ATOM     35  C   UNL     1     -17.619  23.729  33.057  0.00  0.00    +0.045 C 
ENDROOT
BRANCH  10   9
ATOM      4  C   UNL     1     -13.442  19.306  33.581  0.00  0.00    +0.077 A 
ATOM      5  C   UNL     1     -12.438  19.895  34.419  0.00  0.00    +0.048 A 
ATOM      6  C   UNL     1     -12.829  20.978  35.238  0.00  0.00    +0.116 A 
ATOM      7  N   UNL     1     -14.131  21.430  35.212  0.00  0.00    -0.223 NA
ATOM      8  C   UNL     1     -15.074  20.841  34.390  0.00  0.00    +0.220 A 
ATOM      9  N   UNL     1     -16.390  21.274  34.354  0.00  0.00    -0.283 N 
ATOM     36  H   UNL     1     -17.054  20.818  33.729  0.00  0.00    +0.155 HD
ATOM     37  N   UNL     1     -14.725  19.806  33.598  0.00  0.00    -0.214 NA
BRANCH   4   3
ATOM      1  C   UNL     1     -13.403  16.966  30.447  0.00  0.00    +0.020 A 
ATOM      2  C   UNL     1     -13.681  18.103  31.293  0.00  0.00    +0.013 A 
ATOM      3  C   UNL     1     -13.184  18.153  32.662  0.00  0.00    +0.019 A 
ATOM     38  C   UNL     1     -12.401  17.026  33.148  0.00  0.00    +0.120 A 
ATOM     39  N   UNL     1     -12.150  15.944  32.310  0.00  0.00    -0.263 NA
ATOM     40  C   UNL     1     -12.625  15.884  30.992  0.00  0.00    +0.111 A 
ENDBRANCH   4   3
ENDBRANCH  10   9
BRANCH  12  13
ATOM     13  N   UNL     1     -16.942  23.229  38.896  0.00  0.00    -0.281 N 
ATOM     14  C   UNL     1     -17.884  22.835  39.832  0.00  0.00    +0.248 C 
ATOM     30  O   UNL     1     -19.071  22.671  39.591  0.00  0.00    -0.270 OA
ATOM     31  H   UNL     1     -16.035  23.516  39.266  0.00  0.00    +0.155 HD
BRANCH  14  15
ATOM     15  C   UNL     1     -17.448  22.603  41.242  0.00  0.00    +0.037 A 
ATOM     16  C   UNL     1     -16.054  22.800  41.649  0.00  0.00    +0.013 A 
ATOM     17  C   UNL     1     -15.656  22.553  43.012  0.00  0.00    +0.005 A 
ATOM     18  C   UNL     1     -16.656  22.108  43.980  0.00  0.00    -0.033 A 
ATOM     28  C   UNL     1     -18.032  21.926  43.551  0.00  0.00    +0.005 A 
ATOM     29  C   UNL     1     -18.426  22.166  42.216  0.00  0.00    +0.013 A 
BRANCH  18  19
ATOM     19  C   UNL     1     -16.317  21.800  45.451  0.00  0.00    +0.119 C 
BRANCH  19  20
ATOM     20  N   UNL     1     -15.061  21.038  45.718  0.00  0.00    -0.302 NA
ATOM     21  C   UNL     1     -15.303  19.836  46.636  0.00  0.00    +0.066 C 
ATOM     22  C   UNL     1     -13.983  19.036  46.886  0.00  0.00    -0.064 C 
ATOM     23  N   UNL     1     -12.929  19.971  47.484  0.00  0.00    +0.379 N 
ATOM     24  C   UNL     1     -11.706  19.209  47.775  0.00  0.00    -0.096 C 
ATOM     25  H   UNL     1     -13.328  20.354  48.452  0.00  0.00    -0.082 HD
ATOM     26  C   UNL     1     -12.685  21.170  46.579  0.00  0.00    -0.064 C 
ATOM     27  C   UNL     1     -14.008  21.940  46.313  0.00  0.00    +0.066 C 
ENDBRANCH  19  20
ENDBRANCH  18  19
ENDBRANCH  14  15
ENDBRANCH  12  13
TORSDOF 6
ENDMDL
MODEL 2
REMARK VINA RESULT:      -8.7      5.173      6.932
REMARK  Name = C:\Users\Docking\Desktop\test protocol\1iep_ligandH.pdb
REMARK  8 active torsions:
REMARK  status: ('A' for Active; 'I' for Inactive)
REMARK    1  A    between atoms: _5  and  _11
REMARK    2  A    between atoms: _19  and  _21
REMARK    3  A    between atoms: _22  and  _66
REMARK    4  A    between atoms: _27  and  _30
REMARK    5  A    between atoms: _32  and  _33
REMARK    6  A    between atoms: _38  and  _43
REMARK    7  A    between atoms: _43  and  _46
REMARK    8  A    between atoms: _53  and  _55
REMARK                            x       y       z     vdW  Elec       q    Type
REMARK                         _______ _______ _______ _____ _____    ______ ____
ROOT
ATOM     10  C   UNL     1     -15.059  17.830  32.381  0.00  0.00    +0.038 A 
ATOM     11  C   UNL     1     -14.630  18.182  33.686  0.00  0.00    +0.047 A 
ATOM     12  C   UNL     1     -13.553  19.138  33.892  0.00  0.00    +0.035 A 
ATOM     32  C   UNL     1     -12.935  19.717  32.745  0.00  0.00    +0.024 A 
ATOM     33  C   UNL     1     -13.358  19.369  31.411  0.00  0.00    +0.007 A 
ATOM     34  C   UNL     1     -14.419  18.426  31.202  0.00  0.00    -0.029 A 
ATOM     35  C   UNL     1     -14.826  18.085  29.750  0.00  0.00    +0.045 C 
ENDROOT
BRANCH  10   9
ATOM      4  C   UNL     1     -17.050  13.541  33.204  0.00  0.00    +0.077 A 
ATOM      5  C   UNL     1     -15.912  13.090  33.953  0.00  0.00    +0.048 A 
ATOM      6  C   UNL     1     -14.832  13.990  34.097  0.00  0.00    +0.116 A 
ATOM      7  N   UNL     1     -14.897  15.245  33.530  0.00  0.00    -0.223 NA
ATOM      8  C   UNL     1     -16.008  15.647  32.813  0.00  0.00    +0.220 A 
ATOM      9  N   UNL     1     -16.098  16.907  32.242  0.00  0.00    -0.283 N 
ATOM     36  H   UNL     1     -16.932  17.163  31.714  0.00  0.00    +0.155 HD
ATOM     37  N   UNL     1     -17.052  14.806  32.660  0.00  0.00    -0.214 NA
BRANCH   4   3
ATOM      1  C   UNL     1     -20.238  11.969  31.573  0.00  0.00    +0.020 A 
ATOM      2  C   UNL     1     -19.069  12.798  31.752  0.00  0.00    +0.013 A 
ATOM      3  C   UNL     1     -18.270  12.707  32.968  0.00  0.00    +0.019 A 
ATOM     38  C   UNL     1     -18.685  11.758  33.990  0.00  0.00    +0.120 A 
ATOM     39  N   UNL     1     -19.817  10.974  33.790  0.00  0.00    -0.263 NA
ATOM     40  C   UNL     1     -20.594  11.055  32.625  0.00  0.00    +0.111 A 
ENDBRANCH   4   3
ENDBRANCH  10   9
BRANCH  12  13
ATOM     13  N   UNL     1     -13.069  19.528  35.193  0.00  0.00    -0.281 N 
ATOM     14  C   UNL     1     -13.585  20.497  36.038  0.00  0.00    +0.248 C 
ATOM     30  O   UNL     1     -14.419  21.328  35.709  0.00  0.00    -0.270 OA
ATOM     31  H   UNL     1     -12.247  19.030  35.532  0.00  0.00    +0.155 HD
BRANCH  14  15
ATOM     15  C   UNL     1     -13.094  20.562  37.448  0.00  0.00    +0.037 A 
ATOM     16  C   UNL     1     -14.003  20.862  38.556  0.00  0.00    +0.013 A 
ATOM     17  C   UNL     1     -13.500  20.936  39.905  0.00  0.00    +0.005 A 
ATOM     18  C   UNL     1     -12.078  20.706  40.153  0.00  0.00    -0.033 A 
ATOM     28  C   UNL     1     -11.200  20.405  39.035  0.00  0.00    +0.005 A 
ATOM     29  C   UNL     1     -11.689  20.333  37.711  0.00  0.00    +0.013 A 
BRANCH  18  19
ATOM     19  C   UNL     1     -11.450  20.785  41.557  0.00  0.00    +0.119 C 
BRANCH  19  20
ATOM     20  N   UNL     1      -9.998  20.458  41.676  0.00  0.00    -0.302 NA
ATOM     21  C   UNL     1      -9.724  19.467  42.810  0.00  0.00    +0.066 C 
ATOM     22  C   UNL     1      -8.204  19.117  42.906  0.00  0.00    -0.064 C 
ATOM     23  N   UNL     1      -7.399  20.403  43.104  0.00  0.00    +0.379 N 
ATOM     24  C   UNL     1      -5.974  20.073  43.253  0.00  0.00    -0.096 C 
ATOM     25  H   UNL     1      -7.739  20.871  44.057  0.00  0.00    -0.082 HD
ATOM     26  C   UNL     1      -7.668  21.395  41.982  0.00  0.00    -0.064 C 
ATOM     27  C   UNL     1      -9.186  21.713  41.876  0.00  0.00    +0.066 C 
ENDBRANCH  19  20
ENDBRANCH  18  19
ENDBRANCH  14  15
ENDBRANCH  12  13
TORSDOF 6
ENDMDL
MODEL 3
REMARK VINA RESULT:      -8.7      1.002      1.678
REMARK  Name = C:\Users\Docking\Desktop\test protocol\1iep_ligandH.pdb
REMARK  8 active torsions:
REMARK  status: ('A' for Active; 'I' for Inactive)
REMARK    1  A    between atoms: _5  and  _11
REMARK    2  A    between atoms: _19  and  _21
REMARK    3  A    between atoms: _22  and  _66
REMARK    4  A    between atoms: _27  and  _30
REMARK    5  A    between atoms: _32  and  _33
REMARK    6  A    between atoms: _38  and  _43
REMARK    7  A    between atoms: _43  and  _46
REMARK    8  A    between atoms: _53  and  _55
REMARK                            x       y       z     vdW  Elec       q    Type
REMARK                         _______ _______ _______ _____ _____    ______ ____
ROOT
ATOM     10  C   UNL     1     -16.749  22.271  35.396  0.00  0.00    +0.038 A 
ATOM     11  C   UNL     1     -16.562  22.133  36.796  0.00  0.00    +0.047 A 
ATOM     12  C   UNL     1     -16.973  23.182  37.716  0.00  0.00    +0.035 A 
ATOM     32  C   UNL     1     -17.573  24.357  37.177  0.00  0.00    +0.024 A 
ATOM     33  C   UNL     1     -17.769  24.514  35.758  0.00  0.00    +0.007 A 
ATOM     34  C   UNL     1     -17.364  23.484  34.845  0.00  0.00    -0.029 A 
ATOM     35  C   UNL     1     -17.592  23.709  33.332  0.00  0.00    +0.045 C 
ENDROOT
BRANCH  10   9
ATOM      4  C   UNL     1     -13.391  19.311  33.663  0.00  0.00    +0.077 A 
ATOM      5  C   UNL     1     -12.367  19.902  34.476  0.00  0.00    +0.048 A 
ATOM      6  C   UNL     1     -12.744  20.969  35.321  0.00  0.00    +0.116 A 
ATOM      7  N   UNL     1     -14.051  21.405  35.344  0.00  0.00    -0.223 NA
ATOM      8  C   UNL     1     -15.014  20.815  34.546  0.00  0.00    +0.220 A 
ATOM      9  N   UNL     1     -16.336  21.232  34.558  0.00  0.00    -0.283 N 
ATOM     36  H   UNL     1     -17.014  20.776  33.949  0.00  0.00    +0.155 HD
ATOM     37  N   UNL     1     -14.679  19.795  33.729  0.00  0.00    -0.214 NA
BRANCH   4   3
ATOM      1  C   UNL     1     -13.418  17.018  30.494  0.00  0.00    +0.020 A 
ATOM      2  C   UNL     1     -13.681  18.141  31.364  0.00  0.00    +0.013 A 
ATOM      3  C   UNL     1     -13.150  18.173  32.721  0.00  0.00    +0.019 A 
ATOM     38  C   UNL     1     -12.348  17.045  33.169  0.00  0.00    +0.120 A 
ATOM     39  N   UNL     1     -12.113  15.976  32.310  0.00  0.00    -0.263 NA
ATOM     40  C   UNL     1     -12.621  15.933  31.003  0.00  0.00    +0.111 A 
ENDBRANCH   4   3
ENDBRANCH  10   9
BRANCH  12  13
ATOM     13  N   UNL     1     -16.802  23.101  39.146  0.00  0.00    -0.281 N 
ATOM     14  C   UNL     1     -17.774  22.890  40.110  0.00  0.00    +0.248 C 
ATOM     30  O   UNL     1     -18.977  22.951  39.902  0.00  0.00    -0.270 OA
ATOM     31  H   UNL     1     -15.848  23.214  39.489  0.00  0.00    +0.155 HD
BRANCH  14  15
ATOM     15  C   UNL     1     -17.349  22.580  41.509  0.00  0.00    +0.037 A 
ATOM     16  C   UNL     1     -18.314  22.127  42.513  0.00  0.00    +0.013 A 
ATOM     17  C   UNL     1     -17.880  21.851  43.860  0.00  0.00    +0.005 A 
ATOM     18  C   UNL     1     -16.473  22.028  44.209  0.00  0.00    -0.033 A 
ATOM     28  C   UNL     1     -15.536  22.474  43.192  0.00  0.00    +0.005 A 
ATOM     29  C   UNL     1     -15.957  22.746  41.871  0.00  0.00    +0.013 A 
BRANCH  18  19
ATOM     19  C   UNL     1     -15.925  21.778  45.627  0.00  0.00    +0.119 C 
BRANCH  19  20
ATOM     20  N   UNL     1     -15.496  20.386  45.959  0.00  0.00    -0.302 NA
ATOM     21  C   UNL     1     -14.163  20.024  45.299  0.00  0.00    +0.066 C 
ATOM     22  C   UNL     1     -13.718  18.573  45.674  0.00  0.00    -0.064 C 
ATOM     23  N   UNL     1     -14.811  17.585  45.265  0.00  0.00    +0.379 N 
ATOM     24  C   UNL     1     -14.371  16.214  45.564  0.00  0.00    -0.096 C 
ATOM     25  H   UNL     1     -14.943  17.665  44.161  0.00  0.00    -0.082 HD
ATOM     26  C   UNL     1     -16.141  17.939  45.915  0.00  0.00    -0.064 C 
ATOM     27  C   UNL     1     -16.560  19.393  45.559  0.00  0.00    +0.066 C 
ENDBRANCH  19  20
ENDBRANCH  18  19
ENDBRANCH  14  15
ENDBRANCH  12  13
TORSDOF 6
ENDMDL
