MODEL 1
REMARK VINA RESULT:      -9.9      0.000      0.000
REMARK  Name = C:\Users\Docking\Desktop\test protocol\1iep_ligandH.pdb
REMARK  8 active torsions:
REMARK  status: ('A' for Active; 'I' for Inactive)
REMARK    1  A    between atoms: _5  and  _11
REMARK    2  A    between atoms: _19  and  _21
REMARK    3  A    between atoms: _22  and  _66
REMARK    4  A    between atoms: _27  and  _30
REMARK    5  A    between atoms: _32  and  _33
REMARK    6  A    between atoms: _38  and  _43
REMARK    7  A    between atoms: _43  and  _46
REMARK    8  A    between atoms: _53  and  _55
REMARK                            x       y       z     vdW  Elec       q    Type
REMARK                         _______ _______ _______ _____ _____    ______ ____
ROOT
ATOM     10  C   UNL     1      12.973  39.617  85.663  0.00  0.00    +0.038 A 
ATOM     11  C   UNL     1      13.637  39.552  84.412  0.00  0.00    +0.047 A 
ATOM     12  C   UNL     1      14.147  38.291  83.895  0.00  0.00    +0.035 A 
ATOM     32  C   UNL     1      13.960  37.115  84.678  0.00  0.00    +0.024 A 
ATOM     33  C   UNL     1      13.288  37.164  85.953  0.00  0.00    +0.007 A 
ATOM     34  C   UNL     1      12.785  38.405  86.469  0.00  0.00    -0.029 A 
ATOM     35  C   UNL     1      12.079  38.399  87.845  0.00  0.00    +0.045 C 
ENDROOT
BRANCH  10   9
ATOM      4  C   UNL     1      13.630  43.890  87.748  0.00  0.00    +0.077 A 
ATOM      5  C   UNL     1      15.019  43.625  87.990  0.00  0.00    +0.048 A 
ATOM      6  C   UNL     1      15.523  42.374  87.569  0.00  0.00    +0.116 A 
ATOM      7  N   UNL     1      14.692  41.464  86.953  0.00  0.00    -0.223 NA
ATOM      8  C   UNL     1      13.357  41.751  86.736  0.00  0.00    +0.220 A 
ATOM      9  N   UNL     1      12.504  40.854  86.111  0.00  0.00    -0.283 N 
ATOM     36  H   UNL     1      11.524  41.101  85.976  0.00  0.00    +0.155 HD
ATOM     37  N   UNL     1      12.850  42.938  87.130  0.00  0.00    -0.214 NA
BRANCH   4   3
ATOM      1  C   UNL     1      11.646  47.258  87.589  0.00  0.00    +0.020 A 
ATOM      2  C   UNL     1      12.288  46.035  87.165  0.00  0.00    +0.013 A 
ATOM      3  C   UNL     1      12.950  45.168  88.132  0.00  0.00    +0.019 A 
ATOM     38  C   UNL     1      12.943  45.570  89.531  0.00  0.00    +0.120 A 
ATOM     39  N   UNL     1      12.317  46.754  89.909  0.00  0.00    -0.263 NA
ATOM     40  C   UNL     1      11.679  47.597  88.987  0.00  0.00    +0.111 A 
ENDBRANCH   4   3
ENDBRANCH  10   9
BRANCH  12  13
ATOM     13  N   UNL     1      14.836  38.165  82.635  0.00  0.00    -0.281 N 
ATOM     14  C   UNL     1      14.309  38.286  81.360  0.00  0.00    +0.248 C 
ATOM     30  O   UNL     1      13.114  38.311  81.105  0.00  0.00    -0.270 OA
ATOM     31  H   UNL     1      15.834  37.961  82.690  0.00  0.00    +0.155 HD
BRANCH  14  15
ATOM     15  C   UNL     1      15.244  38.379  80.198  0.00  0.00    +0.037 A 
ATOM     16  C   UNL     1      16.572  37.761  80.239  0.00  0.00    +0.013 A 
ATOM     17  C   UNL     1      17.461  37.880  79.111  0.00  0.00    +0.005 A 
ATOM     18  C   UNL     1      17.024  38.620  77.930  0.00  0.00    -0.033 A 
ATOM     28  C   UNL     1      15.699  39.219  77.913  0.00  0.00    +0.005 A 
ATOM     29  C   UNL     1      14.825  39.105  79.017  0.00  0.00    +0.013 A 
BRANCH  18  19
ATOM     19  C   UNL     1      17.914  38.816  76.688  0.00  0.00    +0.119 C 
BRANCH  19  20
ATOM     20  N   UNL     1      18.901  39.936  76.725  0.00  0.00    -0.302 NA
ATOM     21  C   UNL     1      18.989  40.668  75.383  0.00  0.00    +0.066 C 
ATOM     22  C   UNL     1      20.010  41.850  75.445  0.00  0.00    -0.064 C 
ATOM     23  N   UNL     1      21.381  41.315  75.861  0.00  0.00    +0.379 N 
ATOM     24  C   UNL     1      22.357  42.415  75.865  0.00  0.00    -0.096 C 
ATOM     25  H   UNL     1      21.705  40.578  75.089  0.00  0.00    -0.082 HD
ATOM     26  C   UNL     1      21.302  40.583  77.193  0.00  0.00    -0.064 C 
ATOM     27  C   UNL     1      20.264  39.429  77.129  0.00  0.00    +0.066 C 
ENDBRANCH  19  20
ENDBRANCH  18  19
ENDBRANCH  14  15
ENDBRANCH  12  13
TORSDOF 6
ENDMDL
MODEL 2
REMARK VINA RESULT:      -9.7      3.580     12.083
REMARK  Name = C:\Users\Docking\Desktop\test protocol\1iep_ligandH.pdb
REMARK  8 active torsions:
REMARK  status: ('A' for Active; 'I' for Inactive)
REMARK    1  A    between atoms: _5  and  _11
REMARK    2  A    between atoms: _19  and  _21
REMARK    3  A    between atoms: _22  and  _66
REMARK    4  A    between atoms: _27  and  _30
REMARK    5  A    between atoms: _32  and  _33
REMARK    6  A    between atoms: _38  and  _43
REMARK    7  A    between atoms: _43  and  _46
REMARK    8  A    between atoms: _53  and  _55
REMARK                            x       y       z     vdW  Elec       q    Type
REMARK                         _______ _______ _______ _____ _____    ______ ____
ROOT
ATOM     10  C   UNL     1      19.339  41.488  75.739  0.00  0.00    +0.038 A 
ATOM     11  C   UNL     1      18.483  41.276  76.850  0.00  0.00    +0.047 A 
ATOM     12  C   UNL     1      18.218  39.936  77.350  0.00  0.00    +0.035 A 
ATOM     32  C   UNL     1      18.843  38.834  76.695  0.00  0.00    +0.024 A 
ATOM     33  C   UNL     1      19.714  39.032  75.564  0.00  0.00    +0.007 A 
ATOM     34  C   UNL     1      19.978  40.352  75.065  0.00  0.00    -0.029 A 
ATOM     35  C   UNL     1      20.916  40.504  73.845  0.00  0.00    +0.045 C 
ENDROOT
BRANCH  10   9
ATOM      4  C   UNL     1      22.013  45.464  75.458  0.00  0.00    +0.077 A 
ATOM      5  C   UNL     1      23.047  44.898  76.275  0.00  0.00    +0.048 A 
ATOM      6  C   UNL     1      22.849  43.583  76.753  0.00  0.00    +0.116 A 
ATOM      7  N   UNL     1      21.699  42.896  76.432  0.00  0.00    -0.223 NA
ATOM      8  C   UNL     1      20.720  43.472  75.643  0.00  0.00    +0.220 A 
ATOM      9  N   UNL     1      19.559  42.796  75.301  0.00  0.00    -0.283 N 
ATOM     36  H   UNL     1      18.858  43.259  74.723  0.00  0.00    +0.155 HD
ATOM     37  N   UNL     1      20.885  44.727  75.175  0.00  0.00    -0.214 NA
BRANCH   4   3
ATOM      1  C   UNL     1      22.415  49.335  75.060  0.00  0.00    +0.020 A 
ATOM      2  C   UNL     1      22.363  48.027  75.672  0.00  0.00    +0.013 A 
ATOM      3  C   UNL     1      22.077  46.842  74.874  0.00  0.00    +0.019 A 
ATOM     38  C   UNL     1      21.846  47.015  73.448  0.00  0.00    +0.120 A 
ATOM     39  N   UNL     1      21.900  48.287  72.886  0.00  0.00    -0.263 NA
ATOM     40  C   UNL     1      22.173  49.435  73.645  0.00  0.00    +0.111 A 
ENDBRANCH   4   3
ENDBRANCH  10   9
BRANCH  12  13
ATOM     13  N   UNL     1      17.352  39.658  78.469  0.00  0.00    -0.281 N 
ATOM     14  C   UNL     1      16.118  39.028  78.455  0.00  0.00    +0.248 C 
ATOM     30  O   UNL     1      15.472  38.796  77.444  0.00  0.00    -0.270 OA
ATOM     31  H   UNL     1      17.689  39.963  79.382  0.00  0.00    +0.155 HD
BRANCH  14  15
ATOM     15  C   UNL     1      15.508  38.606  79.753  0.00  0.00    +0.037 A 
ATOM     16  C   UNL     1      14.141  38.993  80.111  0.00  0.00    +0.013 A 
ATOM     17  C   UNL     1      13.583  38.588  81.376  0.00  0.00    +0.005 A 
ATOM     18  C   UNL     1      14.392  37.789  82.293  0.00  0.00    -0.033 A 
ATOM     28  C   UNL     1      15.744  37.415  81.910  0.00  0.00    +0.005 A 
ATOM     29  C   UNL     1      16.295  37.811  80.671  0.00  0.00    +0.013 A 
BRANCH  18  19
ATOM     19  C   UNL     1      13.886  37.330  83.673  0.00  0.00    +0.119 C 
BRANCH  19  20
ATOM     20  N   UNL     1      14.598  37.860  84.874  0.00  0.00    -0.302 NA
ATOM     21  C   UNL     1      13.954  37.385  86.180  0.00  0.00    +0.066 C 
ATOM     22  C   UNL     1      14.725  37.931  87.426  0.00  0.00    -0.064 C 
ATOM     23  N   UNL     1      14.767  39.459  87.367  0.00  0.00    +0.379 N 
ATOM     24  C   UNL     1      15.441  39.977  88.567  0.00  0.00    -0.096 C 
ATOM     25  H   UNL     1      13.715  39.827  87.384  0.00  0.00    -0.082 HD
ATOM     26  C   UNL     1      15.404  39.939  86.071  0.00  0.00    -0.064 C 
ATOM     27  C   UNL     1      14.648  39.368  84.839  0.00  0.00    +0.066 C 
ENDBRANCH  19  20
ENDBRANCH  18  19
ENDBRANCH  14  15
ENDBRANCH  12  13
TORSDOF 6
ENDMDL
MODEL 3
REMARK VINA RESULT:      -9.7      4.630     11.449
REMARK  Name = C:\Users\Docking\Desktop\test protocol\1iep_ligandH.pdb
REMARK  8 active torsions:
REMARK  status: ('A' for Active; 'I' for Inactive)
REMARK    1  A    between atoms: _5  and  _11
REMARK    2  A    between atoms: _19  and  _21
REMARK    3  A    between atoms: _22  and  _66
REMARK    4  A    between atoms: _27  and  _30
REMARK    5  A    between atoms: _32  and  _33
REMARK    6  A    between atoms: _38  and  _43
REMARK    7  A    between atoms: _43  and  _46
REMARK    8  A    between atoms: _53  and  _55
REMARK                            x       y       z     vdW  Elec       q    Type
REMARK                         _______ _______ _______ _____ _____    ______ ____
ROOT
ATOM     10  C   UNL     1      15.607  40.037  76.828  0.00  0.00    +0.038 A 
ATOM     11  C   UNL     1      15.127  40.038  78.163  0.00  0.00    +0.047 A 
ATOM     12  C   UNL     1      15.744  39.208  79.185  0.00  0.00    +0.035 A 
ATOM     32  C   UNL     1      16.851  38.390  78.814  0.00  0.00    +0.024 A 
ATOM     33  C   UNL     1      17.352  38.376  77.462  0.00  0.00    +0.007 A 
ATOM     34  C   UNL     1      16.745  39.191  76.449  0.00  0.00    -0.029 A 
ATOM     35  C   UNL     1      17.319  39.130  75.014  0.00  0.00    +0.045 C 
ENDROOT
BRANCH  10   9
ATOM      4  C   UNL     1      11.729  41.475  74.394  0.00  0.00    +0.077 A 
ATOM      5  C   UNL     1      10.894  40.499  75.032  0.00  0.00    +0.048 A 
ATOM      6  C   UNL     1      11.502  39.641  75.975  0.00  0.00    +0.116 A 
ATOM      7  N   UNL     1      12.847  39.760  76.253  0.00  0.00    -0.223 NA
ATOM      8  C   UNL     1      13.624  40.711  75.618  0.00  0.00    +0.220 A 
ATOM      9  N   UNL     1      14.977  40.853  75.887  0.00  0.00    -0.283 N 
ATOM     36  H   UNL     1      15.518  41.562  75.392  0.00  0.00    +0.155 HD
ATOM     37  N   UNL     1      13.067  41.541  74.712  0.00  0.00    -0.214 NA
BRANCH   4   3
ATOM      1  C   UNL     1      10.134  43.035  71.181  0.00  0.00    +0.020 A 
ATOM      2  C   UNL     1      10.597  42.048  72.130  0.00  0.00    +0.013 A 
ATOM      3  C   UNL     1      11.232  42.455  73.377  0.00  0.00    +0.019 A 
ATOM     38  C   UNL     1      11.384  43.878  73.636  0.00  0.00    +0.120 A 
ATOM     39  N   UNL     1      10.930  44.806  72.704  0.00  0.00    -0.263 NA
ATOM     40  C   UNL     1      10.319  44.427  71.499  0.00  0.00    +0.111 A 
ENDBRANCH   4   3
ENDBRANCH  10   9
BRANCH  12  13
ATOM     13  N   UNL     1      15.295  39.161  80.555  0.00  0.00    -0.281 N 
ATOM     14  C   UNL     1      14.030  38.849  81.026  0.00  0.00    +0.248 C 
ATOM     30  O   UNL     1      13.032  38.770  80.326  0.00  0.00    -0.270 OA
ATOM     31  H   UNL     1      15.994  39.386  81.263  0.00  0.00    +0.155 HD
BRANCH  14  15
ATOM     15  C   UNL     1      13.845  38.604  82.489  0.00  0.00    +0.037 A 
ATOM     16  C   UNL     1      14.334  37.376  83.121  0.00  0.00    +0.013 A 
ATOM     17  C   UNL     1      14.127  37.157  84.531  0.00  0.00    +0.005 A 
ATOM     18  C   UNL     1      13.428  38.170  85.318  0.00  0.00    -0.033 A 
ATOM     28  C   UNL     1      12.959  39.381  84.666  0.00  0.00    +0.005 A 
ATOM     29  C   UNL     1      13.159  39.599  83.285  0.00  0.00    +0.013 A 
BRANCH  18  19
ATOM     19  C   UNL     1      13.144  38.011  86.824  0.00  0.00    +0.119 C 
BRANCH  19  20
ATOM     20  N   UNL     1      14.307  38.122  87.754  0.00  0.00    -0.302 NA
ATOM     21  C   UNL     1      15.370  39.093  87.231  0.00  0.00    +0.066 C 
ATOM     22  C   UNL     1      16.569  39.215  88.228  0.00  0.00    -0.064 C 
ATOM     23  N   UNL     1      17.171  37.830  88.469  0.00  0.00    +0.379 N 
ATOM     24  C   UNL     1      18.334  37.949  89.360  0.00  0.00    -0.096 C 
ATOM     25  H   UNL     1      17.534  37.444  87.488  0.00  0.00    -0.082 HD
ATOM     26  C   UNL     1      16.120  36.858  88.986  0.00  0.00    -0.064 C 
ATOM     27  C   UNL     1      14.920  36.766  88.003  0.00  0.00    +0.066 C 
ENDBRANCH  19  20
ENDBRANCH  18  19
ENDBRANCH  14  15
ENDBRANCH  12  13
TORSDOF 6
ENDMDL
