MODEL 1
REMARK VINA RESULT:      -8.4      0.000      0.000
REMARK  Name = C:\Users\Docking\Desktop\test protocol\1iep_ligandH.pdb
REMARK  8 active torsions:
REMARK  status: ('A' for Active; 'I' for Inactive)
REMARK    1  A    between atoms: _5  and  _11
REMARK    2  A    between atoms: _19  and  _21
REMARK    3  A    between atoms: _22  and  _66
REMARK    4  A    between atoms: _27  and  _30
REMARK    5  A    between atoms: _32  and  _33
REMARK    6  A    between atoms: _38  and  _43
REMARK    7  A    between atoms: _43  and  _46
REMARK    8  A    between atoms: _53  and  _55
REMARK                            x       y       z     vdW  Elec       q    Type
REMARK                         _______ _______ _______ _____ _____    ______ ____
ROOT
ATOM     10  C   UNL     1      38.134  19.878  47.606  0.00  0.00    +0.038 A 
ATOM     11  C   UNL     1      39.243  20.755  47.725  0.00  0.00    +0.047 A 
ATOM     12  C   UNL     1      39.386  21.636  48.874  0.00  0.00    +0.035 A 
ATOM     32  C   UNL     1      38.382  21.595  49.885  0.00  0.00    +0.024 A 
ATOM     33  C   UNL     1      37.249  20.711  49.780  0.00  0.00    +0.007 A 
ATOM     34  C   UNL     1      37.101  19.842  48.648  0.00  0.00    -0.029 A 
ATOM     35  C   UNL     1      35.862  18.919  48.584  0.00  0.00    +0.045 C 
ENDROOT
BRANCH  10   9
ATOM      4  C   UNL     1      39.239  15.879  45.194  0.00  0.00    +0.077 A 
ATOM      5  C   UNL     1      40.082  15.402  46.252  0.00  0.00    +0.048 A 
ATOM      6  C   UNL     1      40.210  16.220  47.397  0.00  0.00    +0.116 A 
ATOM      7  N   UNL     1      39.540  17.422  47.468  0.00  0.00    -0.223 NA
ATOM      8  C   UNL     1      38.736  17.853  46.429  0.00  0.00    +0.220 A 
ATOM      9  N   UNL     1      38.047  19.055  46.482  0.00  0.00    -0.283 N 
ATOM     36  H   UNL     1      37.470  19.340  45.691  0.00  0.00    +0.155 HD
ATOM     37  N   UNL     1      38.599  17.091  45.324  0.00  0.00    -0.214 NA
BRANCH   4   3
ATOM      1  C   UNL     1      38.940  14.951  41.405  0.00  0.00    +0.020 A 
ATOM      2  C   UNL     1      39.184  15.721  42.603  0.00  0.00    +0.013 A 
ATOM      3  C   UNL     1      39.000  15.127  43.921  0.00  0.00    +0.019 A 
ATOM     38  C   UNL     1      38.565  13.740  43.993  0.00  0.00    +0.120 A 
ATOM     39  N   UNL     1      38.336  13.024  42.822  0.00  0.00    -0.263 NA
ATOM     40  C   UNL     1      38.508  13.586  41.548  0.00  0.00    +0.111 A 
ENDBRANCH   4   3
ENDBRANCH  10   9
BRANCH  12  13
ATOM     13  N   UNL     1      40.485  22.553  49.045  0.00  0.00    -0.281 N 
ATOM     14  C   UNL     1      41.530  22.802  48.171  0.00  0.00    +0.248 C 
ATOM     30  O   UNL     1      41.795  22.114  47.197  0.00  0.00    -0.270 OA
ATOM     31  H   UNL     1      40.494  23.083  49.917  0.00  0.00    +0.155 HD
BRANCH  14  15
ATOM     15  C   UNL     1      42.418  23.978  48.423  0.00  0.00    +0.037 A 
ATOM     16  C   UNL     1      42.505  25.084  47.467  0.00  0.00    +0.013 A 
ATOM     17  C   UNL     1      43.382  26.198  47.727  0.00  0.00    +0.005 A 
ATOM     18  C   UNL     1      44.180  26.211  48.951  0.00  0.00    -0.033 A 
ATOM     28  C   UNL     1      44.071  25.103  49.885  0.00  0.00    +0.005 A 
ATOM     29  C   UNL     1      43.213  24.009  49.633  0.00  0.00    +0.013 A 
BRANCH  18  19
ATOM     19  C   UNL     1      45.158  27.348  49.299  0.00  0.00    +0.119 C 
BRANCH  19  20
ATOM     20  N   UNL     1      44.650  28.748  49.181  0.00  0.00    -0.302 NA
ATOM     21  C   UNL     1      45.746  29.782  49.453  0.00  0.00    +0.066 C 
ATOM     22  C   UNL     1      45.202  31.240  49.303  0.00  0.00    -0.064 C 
ATOM     23  N   UNL     1      44.021  31.441  50.254  0.00  0.00    +0.379 N 
ATOM     24  C   UNL     1      43.544  32.829  50.157  0.00  0.00    -0.096 C 
ATOM     25  H   UNL     1      44.391  31.282  51.293  0.00  0.00    -0.082 HD
ATOM     26  C   UNL     1      42.927  30.415  49.992  0.00  0.00    -0.064 C 
ATOM     27  C   UNL     1      43.485  28.969  50.114  0.00  0.00    +0.066 C 
ENDBRANCH  19  20
ENDBRANCH  18  19
ENDBRANCH  14  15
ENDBRANCH  12  13
TORSDOF 6
ENDMDL
MODEL 2
REMARK VINA RESULT:      -8.2      6.392     13.209
REMARK  Name = C:\Users\Docking\Desktop\test protocol\1iep_ligandH.pdb
REMARK  8 active torsions:
REMARK  status: ('A' for Active; 'I' for Inactive)
REMARK    1  A    between atoms: _5  and  _11
REMARK    2  A    between atoms: _19  and  _21
REMARK    3  A    between atoms: _22  and  _66
REMARK    4  A    between atoms: _27  and  _30
REMARK    5  A    between atoms: _32  and  _33
REMARK    6  A    between atoms: _38  and  _43
REMARK    7  A    between atoms: _43  and  _46
REMARK    8  A    between atoms: _53  and  _55
REMARK                            x       y       z     vdW  Elec       q    Type
REMARK                         _______ _______ _______ _____ _____    ______ ____
ROOT
ATOM     10  C   UNL     1      36.004  19.783  49.408  0.00  0.00    +0.038 A 
ATOM     11  C   UNL     1      36.323  18.944  48.310  0.00  0.00    +0.047 A 
ATOM     12  C   UNL     1      37.478  19.214  47.468  0.00  0.00    +0.035 A 
ATOM     32  C   UNL     1      38.288  20.345  47.775  0.00  0.00    +0.024 A 
ATOM     33  C   UNL     1      37.978  21.210  48.886  0.00  0.00    +0.007 A 
ATOM     34  C   UNL     1      36.838  20.950  49.719  0.00  0.00    -0.029 A 
ATOM     35  C   UNL     1      36.549  21.914  50.893  0.00  0.00    +0.045 C 
ENDROOT
BRANCH  10   9
ATOM      4  C   UNL     1      33.935  17.820  53.269  0.00  0.00    +0.077 A 
ATOM      5  C   UNL     1      35.191  17.339  53.770  0.00  0.00    +0.048 A 
ATOM      6  C   UNL     1      36.344  17.612  53.001  0.00  0.00    +0.116 A 
ATOM      7  N   UNL     1      36.238  18.314  51.820  0.00  0.00    -0.223 NA
ATOM      8  C   UNL     1      35.012  18.762  51.364  0.00  0.00    +0.220 A 
ATOM      9  N   UNL     1      34.883  19.477  50.183  0.00  0.00    -0.283 N 
ATOM     36  H   UNL     1      33.960  19.784  49.878  0.00  0.00    +0.155 HD
ATOM     37  N   UNL     1      33.895  18.513  52.080  0.00  0.00    -0.214 NA
BRANCH   4   3
ATOM      1  C   UNL     1      30.705  16.172  54.735  0.00  0.00    +0.020 A 
ATOM      2  C   UNL     1      31.966  16.318  54.045  0.00  0.00    +0.013 A 
ATOM      3  C   UNL     1      32.629  17.613  53.969  0.00  0.00    +0.019 A 
ATOM     38  C   UNL     1      31.984  18.751  54.607  0.00  0.00    +0.120 A 
ATOM     39  N   UNL     1      30.768  18.582  55.263  0.00  0.00    -0.263 NA
ATOM     40  C   UNL     1      30.120  17.340  55.341  0.00  0.00    +0.111 A 
ENDBRANCH   4   3
ENDBRANCH  10   9
BRANCH  12  13
ATOM     13  N   UNL     1      37.847  18.402  46.335  0.00  0.00    -0.281 N 
ATOM     14  C   UNL     1      38.782  17.381  46.287  0.00  0.00    +0.248 C 
ATOM     30  O   UNL     1      39.601  17.152  47.165  0.00  0.00    -0.270 OA
ATOM     31  H   UNL     1      37.359  18.604  45.462  0.00  0.00    +0.155 HD
BRANCH  14  15
ATOM     15  C   UNL     1      38.823  16.495  45.084  0.00  0.00    +0.037 A 
ATOM     16  C   UNL     1      38.662  15.044  45.203  0.00  0.00    +0.013 A 
ATOM     17  C   UNL     1      38.723  14.210  44.028  0.00  0.00    +0.005 A 
ATOM     18  C   UNL     1      38.944  14.828  42.723  0.00  0.00    -0.033 A 
ATOM     28  C   UNL     1      39.095  16.271  42.633  0.00  0.00    +0.005 A 
ATOM     29  C   UNL     1      39.037  17.091  43.782  0.00  0.00    +0.013 A 
BRANCH  18  19
ATOM     19  C   UNL     1      39.044  14.014  41.419  0.00  0.00    +0.119 C 
BRANCH  19  20
ATOM     20  N   UNL     1      37.894  13.123  41.079  0.00  0.00    -0.302 NA
ATOM     21  C   UNL     1      38.293  11.645  41.083  0.00  0.00    +0.066 C 
ATOM     22  C   UNL     1      37.073  10.726  40.748  0.00  0.00    -0.064 C 
ATOM     23  N   UNL     1      36.494  11.127  39.390  0.00  0.00    +0.379 N 
ATOM     24  C   UNL     1      35.384  10.227  39.045  0.00  0.00    -0.096 C 
ATOM     25  H   UNL     1      37.294  10.986  38.626  0.00  0.00    -0.082 HD
ATOM     26  C   UNL     1      36.098  12.597  39.376  0.00  0.00    -0.064 C 
ATOM     27  C   UNL     1      37.310  13.499  39.740  0.00  0.00    +0.066 C 
ENDBRANCH  19  20
ENDBRANCH  18  19
ENDBRANCH  14  15
ENDBRANCH  12  13
TORSDOF 6
ENDMDL
MODEL 3
REMARK VINA RESULT:      -8.2      2.702     13.457
REMARK  Name = C:\Users\Docking\Desktop\test protocol\1iep_ligandH.pdb
REMARK  8 active torsions:
REMARK  status: ('A' for Active; 'I' for Inactive)
REMARK    1  A    between atoms: _5  and  _11
REMARK    2  A    between atoms: _19  and  _21
REMARK    3  A    between atoms: _22  and  _66
REMARK    4  A    between atoms: _27  and  _30
REMARK    5  A    between atoms: _32  and  _33
REMARK    6  A    between atoms: _38  and  _43
REMARK    7  A    between atoms: _43  and  _46
REMARK    8  A    between atoms: _53  and  _55
REMARK                            x       y       z     vdW  Elec       q    Type
REMARK                         _______ _______ _______ _____ _____    ______ ____
ROOT
ATOM     10  C   UNL     1      39.271  20.589  48.618  0.00  0.00    +0.038 A 
ATOM     11  C   UNL     1      39.398  19.659  47.555  0.00  0.00    +0.047 A 
ATOM     12  C   UNL     1      38.245  18.930  47.051  0.00  0.00    +0.035 A 
ATOM     32  C   UNL     1      36.976  19.175  47.651  0.00  0.00    +0.024 A 
ATOM     33  C   UNL     1      36.828  20.117  48.734  0.00  0.00    +0.007 A 
ATOM     34  C   UNL     1      37.963  20.837  49.237  0.00  0.00    -0.029 A 
ATOM     35  C   UNL     1      37.748  21.829  50.403  0.00  0.00    +0.045 C 
ENDROOT
BRANCH  10   9
ATOM      4  C   UNL     1      42.484  24.141  48.301  0.00  0.00    +0.077 A 
ATOM      5  C   UNL     1      41.852  24.688  47.135  0.00  0.00    +0.048 A 
ATOM      6  C   UNL     1      40.707  24.022  46.645  0.00  0.00    +0.116 A 
ATOM      7  N   UNL     1      40.237  22.893  47.281  0.00  0.00    -0.223 NA
ATOM      8  C   UNL     1      40.872  22.390  48.402  0.00  0.00    +0.220 A 
ATOM      9  N   UNL     1      40.412  21.261  49.063  0.00  0.00    -0.283 N 
ATOM     36  H   UNL     1      40.912  20.918  49.882  0.00  0.00    +0.155 HD
ATOM     37  N   UNL     1      41.968  23.008  48.889  0.00  0.00    -0.214 NA
BRANCH   4   3
ATOM      1  C   UNL     1      45.765  26.184  48.904  0.00  0.00    +0.020 A 
ATOM      2  C   UNL     1      44.604  25.638  48.240  0.00  0.00    +0.013 A 
ATOM      3  C   UNL     1      43.701  24.734  48.941  0.00  0.00    +0.019 A 
ATOM     38  C   UNL     1      44.005  24.398  50.324  0.00  0.00    +0.120 A 
ATOM     39  N   UNL     1      45.131  24.938  50.937  0.00  0.00    -0.263 NA
ATOM     40  C   UNL     1      46.008  25.808  50.272  0.00  0.00    +0.111 A 
ENDBRANCH   4   3
ENDBRANCH  10   9
BRANCH  12  13
ATOM     13  N   UNL     1      38.314  17.968  45.979  0.00  0.00    -0.281 N 
ATOM     14  C   UNL     1      39.093  16.825  45.911  0.00  0.00    +0.248 C 
ATOM     30  O   UNL     1      40.013  16.568  46.674  0.00  0.00    -0.270 OA
ATOM     31  H   UNL     1      37.717  18.152  45.173  0.00  0.00    +0.155 HD
BRANCH  14  15
ATOM     15  C   UNL     1      38.821  15.829  44.829  0.00  0.00    +0.037 A 
ATOM     16  C   UNL     1      37.921  14.694  45.050  0.00  0.00    +0.013 A 
ATOM     17  C   UNL     1      37.690  13.739  43.996  0.00  0.00    +0.005 A 
ATOM     18  C   UNL     1      38.358  13.917  42.709  0.00  0.00    -0.033 A 
ATOM     28  C   UNL     1      39.242  15.054  42.515  0.00  0.00    +0.005 A 
ATOM     29  C   UNL     1      39.472  15.992  43.547  0.00  0.00    +0.013 A 
BRANCH  18  19
ATOM     19  C   UNL     1      38.186  12.935  41.535  0.00  0.00    +0.119 C 
BRANCH  19  20
ATOM     20  N   UNL     1      36.813  12.781  40.968  0.00  0.00    -0.302 NA
ATOM     21  C   UNL     1      36.284  11.353  41.123  0.00  0.00    +0.066 C 
ATOM     22  C   UNL     1      34.838  11.215  40.545  0.00  0.00    -0.064 C 
ATOM     23  N   UNL     1      34.837  11.636  39.075  0.00  0.00    +0.379 N 
ATOM     24  C   UNL     1      33.491  11.453  38.513  0.00  0.00    -0.096 C 
ATOM     25  H   UNL     1      35.528  10.954  38.527  0.00  0.00    -0.082 HD
ATOM     26  C   UNL     1      35.364  13.055  38.911  0.00  0.00    -0.064 C 
ATOM     27  C   UNL     1      36.790  13.188  39.515  0.00  0.00    +0.066 C 
ENDBRANCH  19  20
ENDBRANCH  18  19
ENDBRANCH  14  15
ENDBRANCH  12  13
TORSDOF 6
ENDMDL
