MODEL 1
REMARK VINA RESULT:      -8.4      0.000      0.000
REMARK  Name = C:\Users\Docking\Desktop\test protocol\1iep_ligandH.pdb
REMARK  8 active torsions:
REMARK  status: ('A' for Active; 'I' for Inactive)
REMARK    1  A    between atoms: _5  and  _11
REMARK    2  A    between atoms: _19  and  _21
REMARK    3  A    between atoms: _22  and  _66
REMARK    4  A    between atoms: _27  and  _30
REMARK    5  A    between atoms: _32  and  _33
REMARK    6  A    between atoms: _38  and  _43
REMARK    7  A    between atoms: _43  and  _46
REMARK    8  A    between atoms: _53  and  _55
REMARK                            x       y       z     vdW  Elec       q    Type
REMARK                         _______ _______ _______ _____ _____    ______ ____
ROOT
ATOM     10  C   UNL     1      61.926  25.880  48.636  0.00  0.00    +0.038 A 
ATOM     11  C   UNL     1      62.257  26.238  49.968  0.00  0.00    +0.047 A 
ATOM     12  C   UNL     1      63.385  25.626  50.653  0.00  0.00    +0.035 A 
ATOM     32  C   UNL     1      64.157  24.656  49.950  0.00  0.00    +0.024 A 
ATOM     33  C   UNL     1      63.834  24.280  48.596  0.00  0.00    +0.007 A 
ATOM     34  C   UNL     1      62.721  24.878  47.917  0.00  0.00    -0.029 A 
ATOM     35  C   UNL     1      62.417  24.432  46.467  0.00  0.00    +0.045 C 
ENDROOT
BRANCH  10   9
ATOM      4  C   UNL     1      59.933  29.488  46.177  0.00  0.00    +0.077 A 
ATOM      5  C   UNL     1      61.169  30.214  46.125  0.00  0.00    +0.048 A 
ATOM      6  C   UNL     1      62.292  29.628  46.749  0.00  0.00    +0.116 A 
ATOM      7  N   UNL     1      62.177  28.406  47.376  0.00  0.00    -0.223 NA
ATOM      8  C   UNL     1      60.969  27.733  47.409  0.00  0.00    +0.220 A 
ATOM      9  N   UNL     1      60.832  26.499  48.027  0.00  0.00    -0.283 N 
ATOM     36  H   UNL     1      59.923  26.038  48.036  0.00  0.00    +0.155 HD
ATOM     37  N   UNL     1      59.881  28.272  46.822  0.00  0.00    -0.214 NA
BRANCH   4   3
ATOM      1  C   UNL     1      57.324  30.937  43.648  0.00  0.00    +0.020 A 
ATOM      2  C   UNL     1      58.580  30.479  44.195  0.00  0.00    +0.013 A 
ATOM      3  C   UNL     1      58.658  29.975  45.561  0.00  0.00    +0.019 A 
ATOM     38  C   UNL     1      57.437  29.946  46.351  0.00  0.00    +0.120 A 
ATOM     39  N   UNL     1      56.242  30.395  45.798  0.00  0.00    -0.263 NA
ATOM     40  C   UNL     1      56.155  30.884  44.486  0.00  0.00    +0.111 A 
ENDBRANCH   4   3
ENDBRANCH  10   9
BRANCH  12  13
ATOM     13  N   UNL     1      63.764  25.943  52.008  0.00  0.00    -0.281 N 
ATOM     14  C   UNL     1      64.284  27.133  52.491  0.00  0.00    +0.248 C 
ATOM     30  O   UNL     1      64.704  28.040  51.787  0.00  0.00    -0.270 OA
ATOM     31  H   UNL     1      63.633  25.200  52.694  0.00  0.00    +0.155 HD
BRANCH  14  15
ATOM     15  C   UNL     1      64.362  27.340  53.969  0.00  0.00    +0.037 A 
ATOM     16  C   UNL     1      65.072  28.488  54.539  0.00  0.00    +0.013 A 
ATOM     17  C   UNL     1      65.146  28.655  55.969  0.00  0.00    +0.005 A 
ATOM     18  C   UNL     1      64.507  27.671  56.839  0.00  0.00    -0.033 A 
ATOM     28  C   UNL     1      63.805  26.544  56.246  0.00  0.00    +0.005 A 
ATOM     29  C   UNL     1      63.731  26.377  54.845  0.00  0.00    +0.013 A 
BRANCH  18  19
ATOM     19  C   UNL     1      64.554  27.757  58.376  0.00  0.00    +0.119 C 
BRANCH  19  20
ATOM     20  N   UNL     1      63.315  28.214  59.073  0.00  0.00    -0.302 NA
ATOM     21  C   UNL     1      62.494  27.040  59.614  0.00  0.00    +0.066 C 
ATOM     22  C   UNL     1      61.213  27.537  60.360  0.00  0.00    -0.064 C 
ATOM     23  N   UNL     1      60.373  28.393  59.411  0.00  0.00    +0.379 N 
ATOM     24  C   UNL     1      59.140  28.814  60.091  0.00  0.00    -0.096 C 
ATOM     25  H   UNL     1      60.081  27.752  58.547  0.00  0.00    -0.082 HD
ATOM     26  C   UNL     1      61.183  29.561  58.866  0.00  0.00    -0.064 C 
ATOM     27  C   UNL     1      62.468  29.058  58.152  0.00  0.00    +0.066 C 
ENDBRANCH  19  20
ENDBRANCH  18  19
ENDBRANCH  14  15
ENDBRANCH  12  13
TORSDOF 6
ENDMDL
MODEL 2
REMARK VINA RESULT:      -8.1     26.781     32.409
REMARK  Name = C:\Users\Docking\Desktop\test protocol\1iep_ligandH.pdb
REMARK  8 active torsions:
REMARK  status: ('A' for Active; 'I' for Inactive)
REMARK    1  A    between atoms: _5  and  _11
REMARK    2  A    between atoms: _19  and  _21
REMARK    3  A    between atoms: _22  and  _66
REMARK    4  A    between atoms: _27  and  _30
REMARK    5  A    between atoms: _32  and  _33
REMARK    6  A    between atoms: _38  and  _43
REMARK    7  A    between atoms: _43  and  _46
REMARK    8  A    between atoms: _53  and  _55
REMARK                            x       y       z     vdW  Elec       q    Type
REMARK                         _______ _______ _______ _____ _____    ______ ____
ROOT
ATOM     10  C   UNL     1      37.487  12.364  69.144  0.00  0.00    +0.038 A 
ATOM     11  C   UNL     1      37.885  13.580  68.533  0.00  0.00    +0.047 A 
ATOM     12  C   UNL     1      37.360  14.858  68.988  0.00  0.00    +0.035 A 
ATOM     32  C   UNL     1      36.433  14.861  70.070  0.00  0.00    +0.024 A 
ATOM     33  C   UNL     1      36.016  13.634  70.703  0.00  0.00    +0.007 A 
ATOM     34  C   UNL     1      36.529  12.370  70.257  0.00  0.00    -0.029 A 
ATOM     35  C   UNL     1      36.042  11.086  70.967  0.00  0.00    +0.045 C 
ENDROOT
BRANCH  10   9
ATOM      4  C   UNL     1      40.863   8.952  69.114  0.00  0.00    +0.077 A 
ATOM      5  C   UNL     1      41.638   9.628  70.114  0.00  0.00    +0.048 A 
ATOM      6  C   UNL     1      41.137  10.854  70.605  0.00  0.00    +0.116 A 
ATOM      7  N   UNL     1      39.948  11.358  70.125  0.00  0.00    -0.223 NA
ATOM      8  C   UNL     1      39.225  10.682  69.159  0.00  0.00    +0.220 A 
ATOM      9  N   UNL     1      38.022  11.165  68.668  0.00  0.00    -0.283 N 
ATOM     36  H   UNL     1      37.523  10.640  67.950  0.00  0.00    +0.155 HD
ATOM     37  N   UNL     1      39.683   9.509  68.673  0.00  0.00    -0.214 NA
BRANCH   4   3
ATOM      1  C   UNL     1      41.035   5.148  68.218  0.00  0.00    +0.020 A 
ATOM      2  C   UNL     1      40.615   6.383  68.841  0.00  0.00    +0.013 A 
ATOM      3  C   UNL     1      41.258   7.645  68.500  0.00  0.00    +0.019 A 
ATOM     38  C   UNL     1      42.331   7.624  67.517  0.00  0.00    +0.120 A 
ATOM     39  N   UNL     1      42.715   6.420  66.935  0.00  0.00    -0.263 NA
ATOM     40  C   UNL     1      42.104   5.199  67.256  0.00  0.00    +0.111 A 
ENDBRANCH   4   3
ENDBRANCH  10   9
BRANCH  12  13
ATOM     13  N   UNL     1      37.722  16.124  68.401  0.00  0.00    -0.281 N 
ATOM     14  C   UNL     1      38.953  16.758  68.434  0.00  0.00    +0.248 C 
ATOM     30  O   UNL     1      39.880  16.430  69.161  0.00  0.00    -0.270 OA
ATOM     31  H   UNL     1      36.980  16.613  67.899  0.00  0.00    +0.155 HD
BRANCH  14  15
ATOM     15  C   UNL     1      39.185  17.935  67.542  0.00  0.00    +0.037 A 
ATOM     16  C   UNL     1      39.032  17.828  66.089  0.00  0.00    +0.013 A 
ATOM     17  C   UNL     1      39.278  18.974  65.250  0.00  0.00    +0.005 A 
ATOM     18  C   UNL     1      39.677  20.239  65.864  0.00  0.00    -0.033 A 
ATOM     28  C   UNL     1      39.816  20.318  67.308  0.00  0.00    +0.005 A 
ATOM     29  C   UNL     1      39.577  19.196  68.134  0.00  0.00    +0.013 A 
BRANCH  18  19
ATOM     19  C   UNL     1      39.980  21.507  65.044  0.00  0.00    +0.119 C 
BRANCH  19  20
ATOM     20  N   UNL     1      38.966  21.925  64.031  0.00  0.00    -0.302 NA
ATOM     21  C   UNL     1      39.148  21.190  62.700  0.00  0.00    +0.066 C 
ATOM     22  C   UNL     1      38.065  21.623  61.659  0.00  0.00    -0.064 C 
ATOM     23  N   UNL     1      38.133  23.138  61.455  0.00  0.00    +0.379 N 
ATOM     24  C   UNL     1      37.155  23.540  60.434  0.00  0.00    -0.096 C 
ATOM     25  H   UNL     1      39.149  23.381  61.065  0.00  0.00    -0.082 HD
ATOM     26  C   UNL     1      37.956  23.876  62.774  0.00  0.00    -0.064 C 
ATOM     27  C   UNL     1      39.019  23.417  63.811  0.00  0.00    +0.066 C 
ENDBRANCH  19  20
ENDBRANCH  18  19
ENDBRANCH  14  15
ENDBRANCH  12  13
TORSDOF 6
ENDMDL
MODEL 3
REMARK VINA RESULT:      -7.9     25.210     28.950
REMARK  Name = C:\Users\Docking\Desktop\test protocol\1iep_ligandH.pdb
REMARK  8 active torsions:
REMARK  status: ('A' for Active; 'I' for Inactive)
REMARK    1  A    between atoms: _5  and  _11
REMARK    2  A    between atoms: _19  and  _21
REMARK    3  A    between atoms: _22  and  _66
REMARK    4  A    between atoms: _27  and  _30
REMARK    5  A    between atoms: _32  and  _33
REMARK    6  A    between atoms: _38  and  _43
REMARK    7  A    between atoms: _43  and  _46
REMARK    8  A    between atoms: _53  and  _55
REMARK                            x       y       z     vdW  Elec       q    Type
REMARK                         _______ _______ _______ _____ _____    ______ ____
ROOT
ATOM     10  C   UNL     1      38.384  23.074  62.330  0.00  0.00    +0.038 A 
ATOM     11  C   UNL     1      38.582  22.078  63.320  0.00  0.00    +0.047 A 
ATOM     12  C   UNL     1      37.935  20.779  63.220  0.00  0.00    +0.035 A 
ATOM     32  C   UNL     1      37.095  20.527  62.097  0.00  0.00    +0.024 A 
ATOM     33  C   UNL     1      36.882  21.529  61.081  0.00  0.00    +0.007 A 
ATOM     34  C   UNL     1      37.516  22.813  61.176  0.00  0.00    -0.029 A 
ATOM     35  C   UNL     1      37.246  23.851  60.061  0.00  0.00    +0.045 C 
ENDROOT
BRANCH  10   9
ATOM      4  C   UNL     1      38.708  27.493  64.177  0.00  0.00    +0.077 A 
ATOM      5  C   UNL     1      37.471  27.349  64.890  0.00  0.00    +0.048 A 
ATOM      6  C   UNL     1      36.780  26.125  64.750  0.00  0.00    +0.116 A 
ATOM      7  N   UNL     1      37.295  25.126  63.952  0.00  0.00    -0.223 NA
ATOM      8  C   UNL     1      38.489  25.298  63.277  0.00  0.00    +0.220 A 
ATOM      9  N   UNL     1      39.030  24.304  62.476  0.00  0.00    -0.283 N 
ATOM     36  H   UNL     1      39.910  24.473  61.988  0.00  0.00    +0.155 HD
ATOM     37  N   UNL     1      39.168  26.458  63.393  0.00  0.00    -0.214 NA
BRANCH   4   3
ATOM      1  C   UNL     1      39.913  31.207  63.949  0.00  0.00    +0.020 A 
ATOM      2  C   UNL     1      39.052  30.049  63.883  0.00  0.00    +0.013 A 
ATOM      3  C   UNL     1      39.556  28.725  64.227  0.00  0.00    +0.019 A 
ATOM     38  C   UNL     1      40.947  28.607  64.637  0.00  0.00    +0.120 A 
ATOM     39  N   UNL     1      41.753  29.740  64.690  0.00  0.00    -0.263 NA
ATOM     40  C   UNL     1      41.279  31.019  64.359  0.00  0.00    +0.111 A 
ENDBRANCH   4   3
ENDBRANCH  10   9
BRANCH  12  13
ATOM     13  N   UNL     1      38.092  19.732  64.199  0.00  0.00    -0.281 N 
ATOM     14  C   UNL     1      39.162  19.516  65.051  0.00  0.00    +0.248 C 
ATOM     30  O   UNL     1      40.247  20.070  64.952  0.00  0.00    -0.270 OA
ATOM     31  H   UNL     1      37.320  19.069  64.272  0.00  0.00    +0.155 HD
BRANCH  14  15
ATOM     15  C   UNL     1      39.011  18.533  66.166  0.00  0.00    +0.037 A 
ATOM     16  C   UNL     1      38.504  18.944  67.478  0.00  0.00    +0.013 A 
ATOM     17  C   UNL     1      38.383  17.978  68.542  0.00  0.00    +0.005 A 
ATOM     18  C   UNL     1      38.769  16.591  68.297  0.00  0.00    -0.033 A 
ATOM     28  C   UNL     1      39.264  16.209  66.984  0.00  0.00    +0.005 A 
ATOM     29  C   UNL     1      39.385  17.153  65.940  0.00  0.00    +0.013 A 
BRANCH  18  19
ATOM     19  C   UNL     1      38.694  15.498  69.379  0.00  0.00    +0.119 C 
BRANCH  19  20
ATOM     20  N   UNL     1      37.841  14.306  69.090  0.00  0.00    -0.302 NA
ATOM     21  C   UNL     1      36.561  14.299  69.930  0.00  0.00    +0.066 C 
ATOM     22  C   UNL     1      35.670  13.058  69.599  0.00  0.00    -0.064 C 
ATOM     23  N   UNL     1      36.476  11.779  69.829  0.00  0.00    +0.379 N 
ATOM     24  C   UNL     1      35.623  10.609  69.574  0.00  0.00    -0.096 C 
ATOM     25  H   UNL     1      36.771  11.754  70.904  0.00  0.00    -0.082 HD
ATOM     26  C   UNL     1      37.752  11.779  69.000  0.00  0.00    -0.064 C 
ATOM     27  C   UNL     1      38.616  13.032  69.315  0.00  0.00    +0.066 C 
ENDBRANCH  19  20
ENDBRANCH  18  19
ENDBRANCH  14  15
ENDBRANCH  12  13
TORSDOF 6
ENDMDL
