MODEL 1
REMARK VINA RESULT:      -8.3      0.000      0.000
REMARK  Name = C:\Users\Docking\Desktop\test protocol\1iep_ligandH.pdb
REMARK  8 active torsions:
REMARK  status: ('A' for Active; 'I' for Inactive)
REMARK    1  A    between atoms: _5  and  _11
REMARK    2  A    between atoms: _19  and  _21
REMARK    3  A    between atoms: _22  and  _66
REMARK    4  A    between atoms: _27  and  _30
REMARK    5  A    between atoms: _32  and  _33
REMARK    6  A    between atoms: _38  and  _43
REMARK    7  A    between atoms: _43  and  _46
REMARK    8  A    between atoms: _53  and  _55
REMARK                            x       y       z     vdW  Elec       q    Type
REMARK                         _______ _______ _______ _____ _____    ______ ____
ROOT
ATOM     10  C   UNL     1      40.568   0.389  23.179  0.00  0.00    +0.038 A 
ATOM     11  C   UNL     1      40.863  -0.369  24.341  0.00  0.00    +0.047 A 
ATOM     12  C   UNL     1      41.537  -1.655  24.250  0.00  0.00    +0.035 A 
ATOM     32  C   UNL     1      41.899  -2.138  22.958  0.00  0.00    +0.024 A 
ATOM     33  C   UNL     1      41.607  -1.381  21.767  0.00  0.00    +0.007 A 
ATOM     34  C   UNL     1      40.940  -0.113  21.850  0.00  0.00    -0.029 A 
ATOM     35  C   UNL     1      40.646   0.653  20.539  0.00  0.00    +0.045 C 
ENDROOT
BRANCH  10   9
ATOM      4  C   UNL     1      36.703   3.037  24.217  0.00  0.00    +0.077 A 
ATOM      5  C   UNL     1      35.900   1.875  24.465  0.00  0.00    +0.048 A 
ATOM      6  C   UNL     1      36.517   0.614  24.307  0.00  0.00    +0.116 A 
ATOM      7  N   UNL     1      37.840   0.534  23.929  0.00  0.00    -0.223 NA
ATOM      8  C   UNL     1      38.586   1.675  23.697  0.00  0.00    +0.220 A 
ATOM      9  N   UNL     1      39.920   1.618  23.324  0.00  0.00    -0.283 N 
ATOM     36  H   UNL     1      40.434   2.482  23.155  0.00  0.00    +0.155 HD
ATOM     37  N   UNL     1      38.019   2.891  23.840  0.00  0.00    -0.214 NA
BRANCH   4   3
ATOM      1  C   UNL     1      34.920   6.443  23.492  0.00  0.00    +0.020 A 
ATOM      2  C   UNL     1      35.387   5.087  23.319  0.00  0.00    +0.013 A 
ATOM      3  C   UNL     1      36.194   4.440  24.346  0.00  0.00    +0.019 A 
ATOM     38  C   UNL     1      36.514   5.199  25.545  0.00  0.00    +0.120 A 
ATOM     39  N   UNL     1      36.052   6.504  25.684  0.00  0.00    -0.263 NA
ATOM     40  C   UNL     1      35.275   7.137  24.702  0.00  0.00    +0.111 A 
ENDBRANCH   4   3
ENDBRANCH  10   9
BRANCH  12  13
ATOM     13  N   UNL     1      41.854  -2.473  25.394  0.00  0.00    -0.281 N 
ATOM     14  C   UNL     1      42.675  -2.157  26.465  0.00  0.00    +0.248 C 
ATOM     30  O   UNL     1      43.433  -1.200  26.496  0.00  0.00    -0.270 OA
ATOM     31  H   UNL     1      41.422  -3.396  25.417  0.00  0.00    +0.155 HD
BRANCH  14  15
ATOM     15  C   UNL     1      42.661  -3.041  27.670  0.00  0.00    +0.037 A 
ATOM     16  C   UNL     1      43.698  -2.938  28.700  0.00  0.00    +0.013 A 
ATOM     17  C   UNL     1      43.670  -3.815  29.844  0.00  0.00    +0.005 A 
ATOM     18  C   UNL     1      42.600  -4.802  29.964  0.00  0.00    -0.033 A 
ATOM     28  C   UNL     1      41.581  -4.879  28.930  0.00  0.00    +0.005 A 
ATOM     29  C   UNL     1      41.606  -4.022  27.807  0.00  0.00    +0.013 A 
BRANCH  18  19
ATOM     19  C   UNL     1      42.504  -5.792  31.140  0.00  0.00    +0.119 C 
BRANCH  19  20
ATOM     20  N   UNL     1      42.594  -7.247  30.817  0.00  0.00    -0.302 NA
ATOM     21  C   UNL     1      41.218  -7.861  30.543  0.00  0.00    +0.066 C 
ATOM     22  C   UNL     1      41.333  -9.379  30.185  0.00  0.00    -0.064 C 
ATOM     23  N   UNL     1      42.037 -10.117  31.325  0.00  0.00    +0.379 N 
ATOM     24  C   UNL     1      42.095 -11.553  31.018  0.00  0.00    -0.096 C 
ATOM     25  H   UNL     1      41.417  -9.991  32.243  0.00  0.00    -0.082 HD
ATOM     26  C   UNL     1      43.405  -9.511  31.606  0.00  0.00    -0.064 C 
ATOM     27  C   UNL     1      43.283  -7.996  31.932  0.00  0.00    +0.066 C 
ENDBRANCH  19  20
ENDBRANCH  18  19
ENDBRANCH  14  15
ENDBRANCH  12  13
TORSDOF 6
ENDMDL
MODEL 2
REMARK VINA RESULT:      -7.9      1.969     12.988
REMARK  Name = C:\Users\Docking\Desktop\test protocol\1iep_ligandH.pdb
REMARK  8 active torsions:
REMARK  status: ('A' for Active; 'I' for Inactive)
REMARK    1  A    between atoms: _5  and  _11
REMARK    2  A    between atoms: _19  and  _21
REMARK    3  A    between atoms: _22  and  _66
REMARK    4  A    between atoms: _27  and  _30
REMARK    5  A    between atoms: _32  and  _33
REMARK    6  A    between atoms: _38  and  _43
REMARK    7  A    between atoms: _43  and  _46
REMARK    8  A    between atoms: _53  and  _55
REMARK                            x       y       z     vdW  Elec       q    Type
REMARK                         _______ _______ _______ _____ _____    ______ ____
ROOT
ATOM     10  C   UNL     1      42.171  -5.546  30.321  0.00  0.00    +0.038 A 
ATOM     11  C   UNL     1      41.825  -4.852  29.133  0.00  0.00    +0.047 A 
ATOM     12  C   UNL     1      42.597  -3.706  28.678  0.00  0.00    +0.035 A 
ATOM     32  C   UNL     1      43.718  -3.295  29.458  0.00  0.00    +0.024 A 
ATOM     33  C   UNL     1      44.082  -3.987  30.669  0.00  0.00    +0.007 A 
ATOM     34  C   UNL     1      43.323  -5.117  31.123  0.00  0.00    -0.029 A 
ATOM     35  C   UNL     1      43.756  -5.817  32.432  0.00  0.00    +0.045 C 
ENDROOT
BRANCH  10   9
ATOM      4  C   UNL     1      41.319 -10.263  30.551  0.00  0.00    +0.077 A 
ATOM      5  C   UNL     1      42.507 -10.574  29.810  0.00  0.00    +0.048 A 
ATOM      6  C   UNL     1      43.306  -9.491  29.381  0.00  0.00    +0.116 A 
ATOM      7  N   UNL     1      42.936  -8.197  29.678  0.00  0.00    -0.223 NA
ATOM      8  C   UNL     1      41.782  -7.932  30.394  0.00  0.00    +0.220 A 
ATOM      9  N   UNL     1      41.394  -6.639  30.710  0.00  0.00    -0.283 N 
ATOM     36  H   UNL     1      40.533  -6.485  31.234  0.00  0.00    +0.155 HD
ATOM     37  N   UNL     1      41.001  -8.949  30.813  0.00  0.00    -0.214 NA
BRANCH   4   3
ATOM      1  C   UNL     1      38.879 -12.261  32.866  0.00  0.00    +0.020 A 
ATOM      2  C   UNL     1      39.787 -11.235  32.408  0.00  0.00    +0.013 A 
ATOM      3  C   UNL     1      40.373 -11.299  31.075  0.00  0.00    +0.019 A 
ATOM     38  C   UNL     1      40.017 -12.424  30.223  0.00  0.00    +0.120 A 
ATOM     39  N   UNL     1      39.141 -13.398  30.692  0.00  0.00    -0.263 NA
ATOM     40  C   UNL     1      38.571 -13.347  31.973  0.00  0.00    +0.111 A 
ENDBRANCH   4   3
ENDBRANCH  10   9
BRANCH  12  13
ATOM     13  N   UNL     1      42.290  -2.959  27.485  0.00  0.00    -0.281 N 
ATOM     14  C   UNL     1      42.030  -3.450  26.216  0.00  0.00    +0.248 C 
ATOM     30  O   UNL     1      42.234  -4.602  25.865  0.00  0.00    -0.270 OA
ATOM     31  H   UNL     1      42.260  -1.944  27.588  0.00  0.00    +0.155 HD
BRANCH  14  15
ATOM     15  C   UNL     1      41.477  -2.522  25.182  0.00  0.00    +0.037 A 
ATOM     16  C   UNL     1      42.064  -1.199  24.956  0.00  0.00    +0.013 A 
ATOM     17  C   UNL     1      41.501  -0.318  23.964  0.00  0.00    +0.005 A 
ATOM     18  C   UNL     1      40.343  -0.758  23.190  0.00  0.00    -0.033 A 
ATOM     28  C   UNL     1      39.783  -2.078  23.431  0.00  0.00    +0.005 A 
ATOM     29  C   UNL     1      40.332  -2.944  24.403  0.00  0.00    +0.013 A 
BRANCH  18  19
ATOM     19  C   UNL     1      39.663   0.125  22.126  0.00  0.00    +0.119 C 
BRANCH  19  20
ATOM     20  N   UNL     1      38.940   1.340  22.606  0.00  0.00    -0.302 NA
ATOM     21  C   UNL     1      37.686   0.982  23.409  0.00  0.00    +0.066 C 
ATOM     22  C   UNL     1      36.954   2.264  23.923  0.00  0.00    -0.064 C 
ATOM     23  N   UNL     1      36.598   3.156  22.733  0.00  0.00    +0.379 N 
ATOM     24  C   UNL     1      35.858   4.335  23.207  0.00  0.00    -0.096 C 
ATOM     25  H   UNL     1      35.919   2.576  22.066  0.00  0.00    -0.082 HD
ATOM     26  C   UNL     1      37.839   3.515  21.927  0.00  0.00    -0.064 C 
ATOM     27  C   UNL     1      38.576   2.233  21.446  0.00  0.00    +0.066 C 
ENDBRANCH  19  20
ENDBRANCH  18  19
ENDBRANCH  14  15
ENDBRANCH  12  13
TORSDOF 6
ENDMDL
MODEL 3
REMARK VINA RESULT:      -7.9      2.246     12.437
REMARK  Name = C:\Users\Docking\Desktop\test protocol\1iep_ligandH.pdb
REMARK  8 active torsions:
REMARK  status: ('A' for Active; 'I' for Inactive)
REMARK    1  A    between atoms: _5  and  _11
REMARK    2  A    between atoms: _19  and  _21
REMARK    3  A    between atoms: _22  and  _66
REMARK    4  A    between atoms: _27  and  _30
REMARK    5  A    between atoms: _32  and  _33
REMARK    6  A    between atoms: _38  and  _43
REMARK    7  A    between atoms: _43  and  _46
REMARK    8  A    between atoms: _53  and  _55
REMARK                            x       y       z     vdW  Elec       q    Type
REMARK                         _______ _______ _______ _____ _____    ______ ____
ROOT
ATOM     10  C   UNL     1      40.357  -2.374  23.821  0.00  0.00    +0.038 A 
ATOM     11  C   UNL     1      39.592  -1.202  24.053  0.00  0.00    +0.047 A 
ATOM     12  C   UNL     1      39.385  -0.218  23.002  0.00  0.00    +0.035 A 
ATOM     32  C   UNL     1      39.968  -0.461  21.725  0.00  0.00    +0.024 A 
ATOM     33  C   UNL     1      40.749  -1.646  21.471  0.00  0.00    +0.007 A 
ATOM     34  C   UNL     1      40.959  -2.619  22.505  0.00  0.00    -0.029 A 
ATOM     35  C   UNL     1      41.810  -3.868  22.178  0.00  0.00    +0.045 C 
ENDROOT
BRANCH  10   9
ATOM      4  C   UNL     1      42.498  -3.835  27.860  0.00  0.00    +0.077 A 
ATOM      5  C   UNL     1      43.376  -2.701  27.875  0.00  0.00    +0.048 A 
ATOM      6  C   UNL     1      43.250  -1.768  26.821  0.00  0.00    +0.116 A 
ATOM      7  N   UNL     1      42.311  -1.965  25.832  0.00  0.00    -0.223 NA
ATOM      8  C   UNL     1      41.481  -3.071  25.846  0.00  0.00    +0.220 A 
ATOM      9  N   UNL     1      40.524  -3.285  24.866  0.00  0.00    -0.283 N 
ATOM     36  H   UNL     1      39.936  -4.117  24.908  0.00  0.00    +0.155 HD
ATOM     37  N   UNL     1      41.583  -3.977  26.841  0.00  0.00    -0.214 NA
BRANCH   4   3
ATOM      1  C   UNL     1      41.428  -6.228  30.764  0.00  0.00    +0.020 A 
ATOM      2  C   UNL     1      41.367  -5.181  29.769  0.00  0.00    +0.013 A 
ATOM      3  C   UNL     1      42.508  -4.906  28.906  0.00  0.00    +0.019 A 
ATOM     38  C   UNL     1      43.706  -5.715  29.076  0.00  0.00    +0.120 A 
ATOM     39  N   UNL     1      43.737  -6.714  30.043  0.00  0.00    -0.263 NA
ATOM     40  C   UNL     1      42.645  -6.987  30.880  0.00  0.00    +0.111 A 
ENDBRANCH   4   3
ENDBRANCH  10   9
BRANCH  12  13
ATOM     13  N   UNL     1      38.625   0.995  23.182  0.00  0.00    -0.281 N 
ATOM     14  C   UNL     1      37.375   1.138  23.761  0.00  0.00    +0.248 C 
ATOM     30  O   UNL     1      36.623   0.210  24.021  0.00  0.00    -0.270 OA
ATOM     31  H   UNL     1      39.062   1.851  22.842  0.00  0.00    +0.155 HD
BRANCH  14  15
ATOM     15  C   UNL     1      36.882   2.512  24.084  0.00  0.00    +0.037 A 
ATOM     16  C   UNL     1      36.422   3.422  23.032  0.00  0.00    +0.013 A 
ATOM     17  C   UNL     1      35.968   4.747  23.370  0.00  0.00    +0.005 A 
ATOM     18  C   UNL     1      35.970   5.170  24.768  0.00  0.00    -0.033 A 
ATOM     28  C   UNL     1      36.426   4.245  25.793  0.00  0.00    +0.005 A 
ATOM     29  C   UNL     1      36.873   2.946  25.465  0.00  0.00    +0.013 A 
BRANCH  18  19
ATOM     19  C   UNL     1      35.523   6.574  25.218  0.00  0.00    +0.119 C 
BRANCH  19  20
ATOM     20  N   UNL     1      36.482   7.698  25.006  0.00  0.00    -0.302 NA
ATOM     21  C   UNL     1      37.540   7.767  26.111  0.00  0.00    +0.066 C 
ATOM     22  C   UNL     1      38.549   8.935  25.861  0.00  0.00    -0.064 C 
ATOM     23  N   UNL     1      37.782  10.255  25.761  0.00  0.00    +0.379 N 
ATOM     24  C   UNL     1      38.733  11.363  25.584  0.00  0.00    -0.096 C 
ATOM     25  H   UNL     1      37.255  10.413  26.731  0.00  0.00    -0.082 HD
ATOM     26  C   UNL     1      36.726  10.194  24.667  0.00  0.00    -0.064 C 
ATOM     27  C   UNL     1      35.747   9.012  24.909  0.00  0.00    +0.066 C 
ENDBRANCH  19  20
ENDBRANCH  18  19
ENDBRANCH  14  15
ENDBRANCH  12  13
TORSDOF 6
ENDMDL
