MODEL 1
REMARK VINA RESULT:      -9.2      0.000      0.000
REMARK  Name = C:\Users\Docking\Desktop\test protocol\1iep_ligandH.pdb
REMARK  8 active torsions:
REMARK  status: ('A' for Active; 'I' for Inactive)
REMARK    1  A    between atoms: _5  and  _11
REMARK    2  A    between atoms: _19  and  _21
REMARK    3  A    between atoms: _22  and  _66
REMARK    4  A    between atoms: _27  and  _30
REMARK    5  A    between atoms: _32  and  _33
REMARK    6  A    between atoms: _38  and  _43
REMARK    7  A    between atoms: _43  and  _46
REMARK    8  A    between atoms: _53  and  _55
REMARK                            x       y       z     vdW  Elec       q    Type
REMARK                         _______ _______ _______ _____ _____    ______ ____
ROOT
ATOM     10  C   UNL     1      54.145  38.475  15.143  0.00  0.00    +0.038 A 
ATOM     11  C   UNL     1      54.212  39.788  14.610  0.00  0.00    +0.047 A 
ATOM     12  C   UNL     1      55.359  40.645  14.862  0.00  0.00    +0.035 A 
ATOM     32  C   UNL     1      56.424  40.132  15.660  0.00  0.00    +0.024 A 
ATOM     33  C   UNL     1      56.372  38.800  16.210  0.00  0.00    +0.007 A 
ATOM     34  C   UNL     1      55.241  37.951  15.967  0.00  0.00    -0.029 A 
ATOM     35  C   UNL     1      55.237  36.535  16.587  0.00  0.00    +0.045 C 
ENDROOT
BRANCH  10   9
ATOM      4  C   UNL     1      51.708  35.374  12.409  0.00  0.00    +0.077 A 
ATOM      5  C   UNL     1      52.755  35.323  11.429  0.00  0.00    +0.048 A 
ATOM      6  C   UNL     1      53.901  36.116  11.663  0.00  0.00    +0.116 A 
ATOM      7  N   UNL     1      53.983  36.897  12.796  0.00  0.00    -0.223 NA
ATOM      8  C   UNL     1      52.954  36.924  13.719  0.00  0.00    +0.220 A 
ATOM      9  N   UNL     1      53.019  37.696  14.869  0.00  0.00    -0.283 N 
ATOM     36  H   UNL     1      52.236  37.694  15.522  0.00  0.00    +0.155 HD
ATOM     37  N   UNL     1      51.849  36.177  13.518  0.00  0.00    -0.214 NA
BRANCH   4   3
ATOM      1  C   UNL     1      49.070  32.492  12.614  0.00  0.00    +0.020 A 
ATOM      2  C   UNL     1      50.322  33.203  12.735  0.00  0.00    +0.013 A 
ATOM      3  C   UNL     1      50.436  34.591  12.305  0.00  0.00    +0.019 A 
ATOM     38  C   UNL     1      49.254  35.236  11.752  0.00  0.00    +0.120 A 
ATOM     39  N   UNL     1      48.062  34.525  11.645  0.00  0.00    -0.263 NA
ATOM     40  C   UNL     1      47.942  33.189  12.055  0.00  0.00    +0.111 A 
ENDBRANCH   4   3
ENDBRANCH  10   9
BRANCH  12  13
ATOM     13  N   UNL     1      55.479  41.990  14.355  0.00  0.00    -0.281 N 
ATOM     14  C   UNL     1      55.523  42.400  13.032  0.00  0.00    +0.248 C 
ATOM     30  O   UNL     1      55.683  41.649  12.081  0.00  0.00    -0.270 OA
ATOM     31  H   UNL     1      55.538  42.729  15.055  0.00  0.00    +0.155 HD
BRANCH  14  15
ATOM     15  C   UNL     1      55.386  43.855  12.723  0.00  0.00    +0.037 A 
ATOM     16  C   UNL     1      54.093  44.537  12.834  0.00  0.00    +0.013 A 
ATOM     17  C   UNL     1      53.985  45.938  12.513  0.00  0.00    +0.005 A 
ATOM     18  C   UNL     1      55.173  46.668  12.079  0.00  0.00    -0.033 A 
ATOM     28  C   UNL     1      56.444  45.968  11.982  0.00  0.00    +0.005 A 
ATOM     29  C   UNL     1      56.554  44.595  12.295  0.00  0.00    +0.013 A 
BRANCH  18  19
ATOM     19  C   UNL     1      55.146  48.159  11.695  0.00  0.00    +0.119 C 
BRANCH  19  20
ATOM     20  N   UNL     1      54.540  48.516  10.378  0.00  0.00    -0.302 NA
ATOM     21  C   UNL     1      55.011  47.584   9.258  0.00  0.00    +0.066 C 
ATOM     22  C   UNL     1      54.350  47.957   7.891  0.00  0.00    -0.064 C 
ATOM     23  N   UNL     1      54.670  49.414   7.554  0.00  0.00    +0.379 N 
ATOM     24  C   UNL     1      54.099  49.751   6.242  0.00  0.00    -0.096 C 
ATOM     25  H   UNL     1      55.779  49.507   7.474  0.00  0.00    -0.082 HD
ATOM     26  C   UNL     1      54.208  50.347   8.664  0.00  0.00    -0.064 C 
ATOM     27  C   UNL     1      54.847  49.950  10.023  0.00  0.00    +0.066 C 
ENDBRANCH  19  20
ENDBRANCH  18  19
ENDBRANCH  14  15
ENDBRANCH  12  13
TORSDOF 6
ENDMDL
MODEL 2
REMARK VINA RESULT:      -8.1     18.151     23.160
REMARK  Name = C:\Users\Docking\Desktop\test protocol\1iep_ligandH.pdb
REMARK  8 active torsions:
REMARK  status: ('A' for Active; 'I' for Inactive)
REMARK    1  A    between atoms: _5  and  _11
REMARK    2  A    between atoms: _19  and  _21
REMARK    3  A    between atoms: _22  and  _66
REMARK    4  A    between atoms: _27  and  _30
REMARK    5  A    between atoms: _32  and  _33
REMARK    6  A    between atoms: _38  and  _43
REMARK    7  A    between atoms: _43  and  _46
REMARK    8  A    between atoms: _53  and  _55
REMARK                            x       y       z     vdW  Elec       q    Type
REMARK                         _______ _______ _______ _____ _____    ______ ____
ROOT
ATOM     10  C   UNL     1      51.689  29.660  -0.923  0.00  0.00    +0.038 A 
ATOM     11  C   UNL     1      51.517  28.377  -0.342  0.00  0.00    +0.047 A 
ATOM     12  C   UNL     1      50.197  27.890   0.027  0.00  0.00    +0.035 A 
ATOM     32  C   UNL     1      49.073  28.734  -0.212  0.00  0.00    +0.024 A 
ATOM     33  C   UNL     1      49.231  30.041  -0.801  0.00  0.00    +0.007 A 
ATOM     34  C   UNL     1      50.530  30.528  -1.164  0.00  0.00    -0.029 A 
ATOM     35  C   UNL     1      50.640  31.940  -1.786  0.00  0.00    +0.045 C 
ENDROOT
BRANCH  10   9
ATOM      4  C   UNL     1      55.611  29.487  -3.684  0.00  0.00    +0.077 A 
ATOM      5  C   UNL     1      55.053  28.458  -4.514  0.00  0.00    +0.048 A 
ATOM      6  C   UNL     1      53.758  27.996  -4.192  0.00  0.00    +0.116 A 
ATOM      7  N   UNL     1      53.079  28.530  -3.118  0.00  0.00    -0.223 NA
ATOM      8  C   UNL     1      53.646  29.520  -2.337  0.00  0.00    +0.220 A 
ATOM      9  N   UNL     1      52.979  30.078  -1.257  0.00  0.00    -0.283 N 
ATOM     36  H   UNL     1      53.435  30.801  -0.701  0.00  0.00    +0.155 HD
ATOM     37  N   UNL     1      54.883  29.978  -2.623  0.00  0.00    -0.214 NA
BRANCH   4   3
ATOM      1  C   UNL     1      58.528  32.039  -4.211  0.00  0.00    +0.020 A 
ATOM      2  C   UNL     1      57.197  31.517  -4.005  0.00  0.00    +0.013 A 
ATOM      3  C   UNL     1      56.968  30.081  -3.898  0.00  0.00    +0.019 A 
ATOM     38  C   UNL     1      58.117  29.195  -4.005  0.00  0.00    +0.120 A 
ATOM     39  N   UNL     1      59.387  29.726  -4.206  0.00  0.00    -0.263 NA
ATOM     40  C   UNL     1      59.619  31.106  -4.311  0.00  0.00    +0.111 A 
ENDBRANCH   4   3
ENDBRANCH  10   9
BRANCH  12  13
ATOM     13  N   UNL     1      49.961  26.600   0.627  0.00  0.00    -0.281 N 
ATOM     14  C   UNL     1      49.736  26.311   1.963  0.00  0.00    +0.248 C 
ATOM     30  O   UNL     1      49.917  27.097   2.880  0.00  0.00    -0.270 OA
ATOM     31  H   UNL     1      49.960  25.803  -0.010  0.00  0.00    +0.155 HD
BRANCH  14  15
ATOM     15  C   UNL     1      49.255  24.945   2.335  0.00  0.00    +0.037 A 
ATOM     16  C   UNL     1      48.571  24.701   3.607  0.00  0.00    +0.013 A 
ATOM     17  C   UNL     1      48.132  23.371   3.949  0.00  0.00    +0.005 A 
ATOM     18  C   UNL     1      48.376  22.275   3.015  0.00  0.00    -0.033 A 
ATOM     28  C   UNL     1      49.053  22.546   1.758  0.00  0.00    +0.005 A 
ATOM     29  C   UNL     1      49.485  23.848   1.420  0.00  0.00    +0.013 A 
BRANCH  18  19
ATOM     19  C   UNL     1      47.961  20.820   3.307  0.00  0.00    +0.119 C 
BRANCH  19  20
ATOM     20  N   UNL     1      49.046  19.860   3.670  0.00  0.00    -0.302 NA
ATOM     21  C   UNL     1      49.053  18.629   2.758  0.00  0.00    +0.066 C 
ATOM     22  C   UNL     1      50.207  17.646   3.137  0.00  0.00    -0.064 C 
ATOM     23  N   UNL     1      50.061  17.233   4.603  0.00  0.00    +0.379 N 
ATOM     24  C   UNL     1      51.111  16.264   4.947  0.00  0.00    -0.096 C 
ATOM     25  H   UNL     1      49.078  16.720   4.713  0.00  0.00    -0.082 HD
ATOM     26  C   UNL     1      50.051  18.451   5.516  0.00  0.00    -0.064 C 
ATOM     27  C   UNL     1      48.918  19.436   5.112  0.00  0.00    +0.066 C 
ENDBRANCH  19  20
ENDBRANCH  18  19
ENDBRANCH  14  15
ENDBRANCH  12  13
TORSDOF 6
ENDMDL
MODEL 3
REMARK VINA RESULT:      -7.9     11.435     17.770
REMARK  Name = C:\Users\Docking\Desktop\test protocol\1iep_ligandH.pdb
REMARK  8 active torsions:
REMARK  status: ('A' for Active; 'I' for Inactive)
REMARK    1  A    between atoms: _5  and  _11
REMARK    2  A    between atoms: _19  and  _21
REMARK    3  A    between atoms: _22  and  _66
REMARK    4  A    between atoms: _27  and  _30
REMARK    5  A    between atoms: _32  and  _33
REMARK    6  A    between atoms: _38  and  _43
REMARK    7  A    between atoms: _43  and  _46
REMARK    8  A    between atoms: _53  and  _55
REMARK                            x       y       z     vdW  Elec       q    Type
REMARK                         _______ _______ _______ _____ _____    ______ ____
ROOT
ATOM     10  C   UNL     1      57.636  43.482  -4.392  0.00  0.00    +0.038 A 
ATOM     11  C   UNL     1      57.189  43.910  -3.116  0.00  0.00    +0.047 A 
ATOM     12  C   UNL     1      55.788  44.218  -2.874  0.00  0.00    +0.035 A 
ATOM     32  C   UNL     1      54.869  44.076  -3.954  0.00  0.00    +0.024 A 
ATOM     33  C   UNL     1      55.306  43.643  -5.258  0.00  0.00    +0.007 A 
ATOM     34  C   UNL     1      56.688  43.340  -5.503  0.00  0.00    -0.029 A 
ATOM     35  C   UNL     1      57.101  42.887  -6.922  0.00  0.00    +0.045 C 
ENDROOT
BRANCH  10   9
ATOM      4  C   UNL     1      62.249  44.800  -4.543  0.00  0.00    +0.077 A 
ATOM      5  C   UNL     1      61.927  46.172  -4.275  0.00  0.00    +0.048 A 
ATOM      6  C   UNL     1      60.562  46.498  -4.112  0.00  0.00    +0.116 A 
ATOM      7  N   UNL     1      59.599  45.517  -4.211  0.00  0.00    -0.223 NA
ATOM      8  C   UNL     1      59.944  44.204  -4.472  0.00  0.00    +0.220 A 
ATOM      9  N   UNL     1      58.993  43.200  -4.568  0.00  0.00    -0.283 N 
ATOM     36  H   UNL     1      59.287  42.244  -4.769  0.00  0.00    +0.155 HD
ATOM     37  N   UNL     1      61.240  43.867  -4.633  0.00  0.00    -0.214 NA
BRANCH   4   3
ATOM      1  C   UNL     1      66.136  44.410  -4.348  0.00  0.00    +0.020 A 
ATOM      2  C   UNL     1      64.808  44.935  -4.129  0.00  0.00    +0.013 A 
ATOM      3  C   UNL     1      63.646  44.298  -4.737  0.00  0.00    +0.019 A 
ATOM     38  C   UNL     1      63.864  43.122  -5.566  0.00  0.00    +0.120 A 
ATOM     39  N   UNL     1      65.155  42.640  -5.759  0.00  0.00    -0.263 NA
ATOM     40  C   UNL     1      66.281  43.246  -5.181  0.00  0.00    +0.111 A 
ENDBRANCH   4   3
ENDBRANCH  10   9
BRANCH  12  13
ATOM     13  N   UNL     1      55.276  44.665  -1.602  0.00  0.00    -0.281 N 
ATOM     14  C   UNL     1      55.329  45.940  -1.063  0.00  0.00    +0.248 C 
ATOM     30  O   UNL     1      56.016  46.849  -1.504  0.00  0.00    -0.270 OA
ATOM     31  H   UNL     1      54.820  43.955  -1.029  0.00  0.00    +0.155 HD
BRANCH  14  15
ATOM     15  C   UNL     1      54.510  46.246   0.149  0.00  0.00    +0.037 A 
ATOM     16  C   UNL     1      54.236  45.221   1.160  0.00  0.00    +0.013 A 
ATOM     17  C   UNL     1      53.429  45.538   2.311  0.00  0.00    +0.005 A 
ATOM     18  C   UNL     1      52.891  46.888   2.459  0.00  0.00    -0.033 A 
ATOM     28  C   UNL     1      53.182  47.887   1.444  0.00  0.00    +0.005 A 
ATOM     29  C   UNL     1      53.972  47.580   0.313  0.00  0.00    +0.013 A 
BRANCH  18  19
ATOM     19  C   UNL     1      52.002  47.310   3.644  0.00  0.00    +0.119 C 
BRANCH  19  20
ATOM     20  N   UNL     1      52.679  47.550   4.954  0.00  0.00    -0.302 NA
ATOM     21  C   UNL     1      51.710  47.420   6.133  0.00  0.00    +0.066 C 
ATOM     22  C   UNL     1      52.439  47.652   7.496  0.00  0.00    -0.064 C 
ATOM     23  N   UNL     1      53.102  49.030   7.489  0.00  0.00    +0.379 N 
ATOM     24  C   UNL     1      53.739  49.275   8.791  0.00  0.00    -0.096 C 
ATOM     25  H   UNL     1      52.298  49.791   7.357  0.00  0.00    -0.082 HD
ATOM     26  C   UNL     1      54.065  49.168   6.319  0.00  0.00    -0.064 C 
ATOM     27  C   UNL     1      53.337  48.907   4.970  0.00  0.00    +0.066 C 
ENDBRANCH  19  20
ENDBRANCH  18  19
ENDBRANCH  14  15
ENDBRANCH  12  13
TORSDOF 6
ENDMDL
