MODEL 1
REMARK VINA RESULT:     -11.1      0.000      0.000
REMARK  Name = C:\Users\Docking\Desktop\test protocol\1iep_ligandH.pdb
REMARK  8 active torsions:
REMARK  status: ('A' for Active; 'I' for Inactive)
REMARK    1  A    between atoms: _5  and  _11
REMARK    2  A    between atoms: _19  and  _21
REMARK    3  A    between atoms: _22  and  _66
REMARK    4  A    between atoms: _27  and  _30
REMARK    5  A    between atoms: _32  and  _33
REMARK    6  A    between atoms: _38  and  _43
REMARK    7  A    between atoms: _43  and  _46
REMARK    8  A    between atoms: _53  and  _55
REMARK                            x       y       z     vdW  Elec       q    Type
REMARK                         _______ _______ _______ _____ _____    ______ ____
ROOT
ATOM     10  C   UNL     1     -25.365   9.481  -2.240  0.00  0.00    +0.038 A 
ATOM     11  C   UNL     1     -25.813  10.778  -2.599  0.00  0.00    +0.047 A 
ATOM     12  C   UNL     1     -25.659  11.905  -1.692  0.00  0.00    +0.035 A 
ATOM     32  C   UNL     1     -25.041  11.676  -0.428  0.00  0.00    +0.024 A 
ATOM     33  C   UNL     1     -24.581  10.364  -0.047  0.00  0.00    +0.007 A 
ATOM     34  C   UNL     1     -24.732   9.248  -0.936  0.00  0.00    -0.029 A 
ATOM     35  C   UNL     1     -24.226   7.862  -0.473  0.00  0.00    +0.045 C 
ENDROOT
BRANCH  10   9
ATOM      4  C   UNL     1     -24.238   7.163  -6.289  0.00  0.00    +0.077 A 
ATOM      5  C   UNL     1     -23.239   8.132  -6.636  0.00  0.00    +0.048 A 
ATOM      6  C   UNL     1     -23.051   9.216  -5.749  0.00  0.00    +0.116 A 
ATOM      7  N   UNL     1     -23.811   9.313  -4.604  0.00  0.00    -0.223 NA
ATOM      8  C   UNL     1     -24.768   8.362  -4.300  0.00  0.00    +0.220 A 
ATOM      9  N   UNL     1     -25.538   8.435  -3.150  0.00  0.00    -0.283 N 
ATOM     36  H   UNL     1     -26.239   7.718  -2.965  0.00  0.00    +0.155 HD
ATOM     37  N   UNL     1     -24.968   7.318  -5.132  0.00  0.00    -0.214 NA
BRANCH   4   3
ATOM      1  C   UNL     1     -25.279   3.561  -7.403  0.00  0.00    +0.020 A 
ATOM      2  C   UNL     1     -24.988   4.692  -6.553  0.00  0.00    +0.013 A 
ATOM      3  C   UNL     1     -24.552   5.960  -7.124  0.00  0.00    +0.019 A 
ATOM     38  C   UNL     1     -24.421   6.051  -8.570  0.00  0.00    +0.120 A 
ATOM     39  N   UNL     1     -24.706   4.945  -9.363  0.00  0.00    -0.263 NA
ATOM     40  C   UNL     1     -25.125   3.719  -8.825  0.00  0.00    +0.111 A 
ENDBRANCH   4   3
ENDBRANCH  10   9
BRANCH  12  13
ATOM     13  N   UNL     1     -26.102  13.243  -1.998  0.00  0.00    -0.281 N 
ATOM     14  C   UNL     1     -25.376  14.268  -2.582  0.00  0.00    +0.248 C 
ATOM     30  O   UNL     1     -24.163  14.255  -2.736  0.00  0.00    -0.270 OA
ATOM     31  H   UNL     1     -27.068  13.460  -1.755  0.00  0.00    +0.155 HD
BRANCH  14  15
ATOM     15  C   UNL     1     -26.099  15.489  -3.050  0.00  0.00    +0.037 A 
ATOM     16  C   UNL     1     -25.653  16.230  -4.233  0.00  0.00    +0.013 A 
ATOM     17  C   UNL     1     -26.358  17.415  -4.653  0.00  0.00    +0.005 A 
ATOM     18  C   UNL     1     -27.519  17.866  -3.888  0.00  0.00    -0.033 A 
ATOM     28  C   UNL     1     -27.942  17.110  -2.722  0.00  0.00    +0.005 A 
ATOM     29  C   UNL     1     -27.253  15.948  -2.307  0.00  0.00    +0.013 A 
BRANCH  18  19
ATOM     19  C   UNL     1     -28.318  19.131  -4.251  0.00  0.00    +0.119 C 
BRANCH  19  20
ATOM     20  N   UNL     1     -29.807  19.046  -4.170  0.00  0.00    -0.302 NA
ATOM     21  C   UNL     1     -30.391  18.145  -5.261  0.00  0.00    +0.066 C 
ATOM     22  C   UNL     1     -31.948  18.049  -5.147  0.00  0.00    -0.064 C 
ATOM     23  N   UNL     1     -32.550  19.453  -5.225  0.00  0.00    +0.379 N 
ATOM     24  C   UNL     1     -34.016  19.362  -5.176  0.00  0.00    -0.096 C 
ATOM     25  H   UNL     1     -32.270  19.886  -6.213  0.00  0.00    -0.082 HD
ATOM     26  C   UNL     1     -31.972  20.357  -4.144  0.00  0.00    -0.064 C 
ATOM     27  C   UNL     1     -30.422  20.421  -4.248  0.00  0.00    +0.066 C 
ENDBRANCH  19  20
ENDBRANCH  18  19
ENDBRANCH  14  15
ENDBRANCH  12  13
TORSDOF 6
ENDMDL
MODEL 2
REMARK VINA RESULT:     -10.7      4.145     13.086
REMARK  Name = C:\Users\Docking\Desktop\test protocol\1iep_ligandH.pdb
REMARK  8 active torsions:
REMARK  status: ('A' for Active; 'I' for Inactive)
REMARK    1  A    between atoms: _5  and  _11
REMARK    2  A    between atoms: _19  and  _21
REMARK    3  A    between atoms: _22  and  _66
REMARK    4  A    between atoms: _27  and  _30
REMARK    5  A    between atoms: _32  and  _33
REMARK    6  A    between atoms: _38  and  _43
REMARK    7  A    between atoms: _43  and  _46
REMARK    8  A    between atoms: _53  and  _55
REMARK                            x       y       z     vdW  Elec       q    Type
REMARK                         _______ _______ _______ _____ _____    ______ ____
ROOT
ATOM     10  C   UNL     1     -25.098  14.302  -1.006  0.00  0.00    +0.038 A 
ATOM     11  C   UNL     1     -25.324  12.915  -0.817  0.00  0.00    +0.047 A 
ATOM     12  C   UNL     1     -24.220  11.999  -0.577  0.00  0.00    +0.035 A 
ATOM     32  C   UNL     1     -22.898  12.531  -0.533  0.00  0.00    +0.024 A 
ATOM     33  C   UNL     1     -22.651  13.938  -0.725  0.00  0.00    +0.007 A 
ATOM     34  C   UNL     1     -23.735  14.846  -0.964  0.00  0.00    -0.029 A 
ATOM     35  C   UNL     1     -23.411  16.344  -1.169  0.00  0.00    +0.045 C 
ENDROOT
BRANCH  10   9
ATOM      4  C   UNL     1     -27.737  17.152  -3.827  0.00  0.00    +0.077 A 
ATOM      5  C   UNL     1     -26.840  16.986  -4.934  0.00  0.00    +0.048 A 
ATOM      6  C   UNL     1     -25.708  16.165  -4.734  0.00  0.00    +0.116 A 
ATOM      7  N   UNL     1     -25.498  15.559  -3.514  0.00  0.00    -0.223 NA
ATOM      8  C   UNL     1     -26.382  15.742  -2.466  0.00  0.00    +0.220 A 
ATOM      9  N   UNL     1     -26.195  15.137  -1.233  0.00  0.00    -0.283 N 
ATOM     36  H   UNL     1     -26.866  15.302  -0.483  0.00  0.00    +0.155 HD
ATOM     37  N   UNL     1     -27.470  16.522  -2.631  0.00  0.00    -0.214 NA
BRANCH   4   3
ATOM      1  C   UNL     1     -30.240  20.080  -4.505  0.00  0.00    +0.020 A 
ATOM      2  C   UNL     1     -29.014  19.316  -4.476  0.00  0.00    +0.013 A 
ATOM      3  C   UNL     1     -28.979  17.986  -3.883  0.00  0.00    +0.019 A 
ATOM     38  C   UNL     1     -30.213  17.452  -3.324  0.00  0.00    +0.120 A 
ATOM     39  N   UNL     1     -31.378  18.211  -3.366  0.00  0.00    -0.263 NA
ATOM     40  C   UNL     1     -31.423  19.494  -3.932  0.00  0.00    +0.111 A 
ENDBRANCH   4   3
ENDBRANCH  10   9
BRANCH  12  13
ATOM     13  N   UNL     1     -24.387  10.580  -0.385  0.00  0.00    -0.281 N 
ATOM     14  C   UNL     1     -23.874   9.550  -1.157  0.00  0.00    +0.248 C 
ATOM     30  O   UNL     1     -23.367   9.699  -2.259  0.00  0.00    -0.270 OA
ATOM     31  H   UNL     1     -24.953  10.300   0.416  0.00  0.00    +0.155 HD
BRANCH  14  15
ATOM     15  C   UNL     1     -23.948   8.151  -0.636  0.00  0.00    +0.037 A 
ATOM     16  C   UNL     1     -25.183   7.622  -0.051  0.00  0.00    +0.013 A 
ATOM     17  C   UNL     1     -25.222   6.275   0.460  0.00  0.00    +0.005 A 
ATOM     18  C   UNL     1     -24.022   5.446   0.386  0.00  0.00    -0.033 A 
ATOM     28  C   UNL     1     -22.812   5.994  -0.205  0.00  0.00    +0.005 A 
ATOM     29  C   UNL     1     -22.769   7.314  -0.705  0.00  0.00    +0.013 A 
BRANCH  18  19
ATOM     19  C   UNL     1     -23.966   4.004   0.925  0.00  0.00    +0.119 C 
BRANCH  19  20
ATOM     20  N   UNL     1     -22.722   3.222   0.659  0.00  0.00    -0.302 NA
ATOM     21  C   UNL     1     -22.840   2.370  -0.608  0.00  0.00    +0.066 C 
ATOM     22  C   UNL     1     -21.522   1.575  -0.883  0.00  0.00    -0.064 C 
ATOM     23  N   UNL     1     -21.193   0.702   0.329  0.00  0.00    +0.379 N 
ATOM     24  C   UNL     1     -19.986  -0.090   0.050  0.00  0.00    -0.096 C 
ATOM     25  H   UNL     1     -22.039  -0.010   0.472  0.00  0.00    -0.082 HD
ATOM     26  C   UNL     1     -21.077   1.541   1.593  0.00  0.00    -0.064 C 
ATOM     27  C   UNL     1     -22.382   2.349   1.842  0.00  0.00    +0.066 C 
ENDBRANCH  19  20
ENDBRANCH  18  19
ENDBRANCH  14  15
ENDBRANCH  12  13
TORSDOF 6
ENDMDL
MODEL 3
REMARK VINA RESULT:     -10.6      1.235      2.081
REMARK  Name = C:\Users\Docking\Desktop\test protocol\1iep_ligandH.pdb
REMARK  8 active torsions:
REMARK  status: ('A' for Active; 'I' for Inactive)
REMARK    1  A    between atoms: _5  and  _11
REMARK    2  A    between atoms: _19  and  _21
REMARK    3  A    between atoms: _22  and  _66
REMARK    4  A    between atoms: _27  and  _30
REMARK    5  A    between atoms: _32  and  _33
REMARK    6  A    between atoms: _38  and  _43
REMARK    7  A    between atoms: _43  and  _46
REMARK    8  A    between atoms: _53  and  _55
REMARK                            x       y       z     vdW  Elec       q    Type
REMARK                         _______ _______ _______ _____ _____    ______ ____
ROOT
ATOM     10  C   UNL     1     -24.904  10.506  -2.799  0.00  0.00    +0.038 A 
ATOM     11  C   UNL     1     -25.400  11.799  -3.106  0.00  0.00    +0.047 A 
ATOM     12  C   UNL     1     -25.781  12.728  -2.053  0.00  0.00    +0.035 A 
ATOM     32  C   UNL     1     -25.642  12.308  -0.698  0.00  0.00    +0.024 A 
ATOM     33  C   UNL     1     -25.140  10.997  -0.369  0.00  0.00    +0.007 A 
ATOM     34  C   UNL     1     -24.765  10.076  -1.402  0.00  0.00    -0.029 A 
ATOM     35  C   UNL     1     -24.240   8.681  -0.991  0.00  0.00    +0.045 C 
ENDROOT
BRANCH  10   9
ATOM      4  C   UNL     1     -26.016   7.371  -6.258  0.00  0.00    +0.077 A 
ATOM      5  C   UNL     1     -27.412   7.411  -5.928  0.00  0.00    +0.048 A 
ATOM      6  C   UNL     1     -27.801   8.247  -4.857  0.00  0.00    +0.116 A 
ATOM      7  N   UNL     1     -26.857   8.982  -4.174  0.00  0.00    -0.223 NA
ATOM      8  C   UNL     1     -25.519   8.918  -4.517  0.00  0.00    +0.220 A 
ATOM      9  N   UNL     1     -24.553   9.655  -3.849  0.00  0.00    -0.283 N 
ATOM     36  H   UNL     1     -23.575   9.575  -4.128  0.00  0.00    +0.155 HD
ATOM     37  N   UNL     1     -25.121   8.127  -5.535  0.00  0.00    -0.214 NA
BRANCH   4   3
ATOM      1  C   UNL     1     -25.207   5.924  -9.801  0.00  0.00    +0.020 A 
ATOM      2  C   UNL     1     -25.782   6.756  -8.769  0.00  0.00    +0.013 A 
ATOM      3  C   UNL     1     -25.450   6.539  -7.367  0.00  0.00    +0.019 A 
ATOM     38  C   UNL     1     -24.525   5.464  -7.039  0.00  0.00    +0.120 A 
ATOM     39  N   UNL     1     -23.988   4.678  -8.054  0.00  0.00    -0.263 NA
ATOM     40  C   UNL     1     -24.301   4.877  -9.407  0.00  0.00    +0.111 A 
ENDBRANCH   4   3
ENDBRANCH  10   9
BRANCH  12  13
ATOM     13  N   UNL     1     -26.298  14.051  -2.304  0.00  0.00    -0.281 N 
ATOM     14  C   UNL     1     -25.631  15.138  -2.844  0.00  0.00    +0.248 C 
ATOM     30  O   UNL     1     -24.420  15.199  -2.997  0.00  0.00    -0.270 OA
ATOM     31  H   UNL     1     -27.275  14.204  -2.054  0.00  0.00    +0.155 HD
BRANCH  14  15
ATOM     15  C   UNL     1     -26.421  16.336  -3.262  0.00  0.00    +0.037 A 
ATOM     16  C   UNL     1     -27.679  16.686  -2.597  0.00  0.00    +0.013 A 
ATOM     17  C   UNL     1     -28.430  17.837  -3.031  0.00  0.00    +0.005 A 
ATOM     18  C   UNL     1     -27.924  18.648  -4.136  0.00  0.00    -0.033 A 
ATOM     28  C   UNL     1     -26.671  18.280  -4.775  0.00  0.00    +0.005 A 
ATOM     29  C   UNL     1     -25.933  17.152  -4.353  0.00  0.00    +0.013 A 
BRANCH  18  19
ATOM     19  C   UNL     1     -28.671  19.881  -4.679  0.00  0.00    +0.119 C 
BRANCH  19  20
ATOM     20  N   UNL     1     -30.127  19.725  -4.969  0.00  0.00    -0.302 NA
ATOM     21  C   UNL     1     -30.998  20.469  -3.953  0.00  0.00    +0.066 C 
ATOM     22  C   UNL     1     -32.518  20.314  -4.285  0.00  0.00    -0.064 C 
ATOM     23  N   UNL     1     -32.880  18.828  -4.324  0.00  0.00    +0.379 N 
ATOM     24  C   UNL     1     -34.321  18.681  -4.579  0.00  0.00    -0.096 C 
ATOM     25  H   UNL     1     -32.669  18.402  -3.316  0.00  0.00    -0.082 HD
ATOM     26  C   UNL     1     -32.017  18.081  -5.331  0.00  0.00    -0.064 C 
ATOM     27  C   UNL     1     -30.508  18.265  -5.009  0.00  0.00    +0.066 C 
ENDBRANCH  19  20
ENDBRANCH  18  19
ENDBRANCH  14  15
ENDBRANCH  12  13
TORSDOF 6
ENDMDL
