MODEL 1
REMARK VINA RESULT:      -8.6      0.000      0.000
REMARK  Name = C:\Users\Docking\Desktop\test protocol\1iep_ligandH.pdb
REMARK  8 active torsions:
REMARK  status: ('A' for Active; 'I' for Inactive)
REMARK    1  A    between atoms: _5  and  _11
REMARK    2  A    between atoms: _19  and  _21
REMARK    3  A    between atoms: _22  and  _66
REMARK    4  A    between atoms: _27  and  _30
REMARK    5  A    between atoms: _32  and  _33
REMARK    6  A    between atoms: _38  and  _43
REMARK    7  A    between atoms: _43  and  _46
REMARK    8  A    between atoms: _53  and  _55
REMARK                            x       y       z     vdW  Elec       q    Type
REMARK                         _______ _______ _______ _____ _____    ______ ____
ROOT
ATOM     10  C   UNL     1     -48.527 -56.425  19.632  0.00  0.00    +0.038 A 
ATOM     11  C   UNL     1     -49.793 -55.910  19.254  0.00  0.00    +0.047 A 
ATOM     12  C   UNL     1     -50.925 -55.950  20.168  0.00  0.00    +0.035 A 
ATOM     32  C   UNL     1     -50.730 -56.519  21.460  0.00  0.00    +0.024 A 
ATOM     33  C   UNL     1     -49.449 -57.048  21.860  0.00  0.00    +0.007 A 
ATOM     34  C   UNL     1     -48.331 -57.013  20.962  0.00  0.00    -0.029 A 
ATOM     35  C   UNL     1     -46.983 -57.601  21.442  0.00  0.00    +0.045 C 
ENDROOT
BRANCH  10   9
ATOM      4  C   UNL     1     -44.742 -54.210  17.681  0.00  0.00    +0.077 A 
ATOM      5  C   UNL     1     -44.888 -53.073  18.543  0.00  0.00    +0.048 A 
ATOM      6  C   UNL     1     -45.954 -53.094  19.470  0.00  0.00    +0.116 A 
ATOM      7  N   UNL     1     -46.805 -54.177  19.522  0.00  0.00    -0.223 NA
ATOM      8  C   UNL     1     -46.637 -55.257  18.675  0.00  0.00    +0.220 A 
ATOM      9  N   UNL     1     -47.475 -56.360  18.715  0.00  0.00    -0.283 N 
ATOM     36  H   UNL     1     -47.323 -57.134  18.068  0.00  0.00    +0.155 HD
ATOM     37  N   UNL     1     -45.627 -55.260  17.780  0.00  0.00    -0.214 NA
BRANCH   4   3
ATOM      1  C   UNL     1     -42.793 -55.083  14.404  0.00  0.00    +0.020 A 
ATOM      2  C   UNL     1     -43.869 -54.986  15.363  0.00  0.00    +0.013 A 
ATOM      3  C   UNL     1     -43.662 -54.338  16.651  0.00  0.00    +0.019 A 
ATOM     38  C   UNL     1     -42.345 -53.791  16.940  0.00  0.00    +0.120 A 
ATOM     39  N   UNL     1     -41.327 -53.900  15.998  0.00  0.00    -0.263 NA
ATOM     40  C   UNL     1     -41.514 -54.524  14.755  0.00  0.00    +0.111 A 
ENDBRANCH   4   3
ENDBRANCH  10   9
BRANCH  12  13
ATOM     13  N   UNL     1     -52.236 -55.450  19.837  0.00  0.00    -0.281 N 
ATOM     14  C   UNL     1     -53.225 -56.077  19.097  0.00  0.00    +0.248 C 
ATOM     30  O   UNL     1     -53.052 -57.082  18.423  0.00  0.00    -0.270 OA
ATOM     31  H   UNL     1     -52.463 -54.521  20.192  0.00  0.00    +0.155 HD
BRANCH  14  15
ATOM     15  C   UNL     1     -54.602 -55.497  19.094  0.00  0.00    +0.037 A 
ATOM     16  C   UNL     1     -54.839 -54.104  18.704  0.00  0.00    +0.013 A 
ATOM     17  C   UNL     1     -56.175 -53.564  18.726  0.00  0.00    +0.005 A 
ATOM     18  C   UNL     1     -57.286 -54.419  19.138  0.00  0.00    -0.033 A 
ATOM     28  C   UNL     1     -57.024 -55.798  19.515  0.00  0.00    +0.005 A 
ATOM     29  C   UNL     1     -55.715 -56.330  19.496  0.00  0.00    +0.013 A 
BRANCH  18  19
ATOM     19  C   UNL     1     -58.742 -53.921  19.212  0.00  0.00    +0.119 C 
BRANCH  19  20
ATOM     20  N   UNL     1     -59.365 -53.828  20.566  0.00  0.00    -0.302 NA
ATOM     21  C   UNL     1     -60.589 -52.907  20.573  0.00  0.00    +0.066 C 
ATOM     22  C   UNL     1     -61.242 -52.840  21.992  0.00  0.00    -0.064 C 
ATOM     23  N   UNL     1     -60.200 -52.366  23.008  0.00  0.00    +0.379 N 
ATOM     24  C   UNL     1     -60.827 -52.246  24.333  0.00  0.00    -0.096 C 
ATOM     25  H   UNL     1     -59.865 -51.349  22.698  0.00  0.00    -0.082 HD
ATOM     26  C   UNL     1     -58.980 -53.275  23.005  0.00  0.00    -0.064 C 
ATOM     27  C   UNL     1     -58.356 -53.358  21.584  0.00  0.00    +0.066 C 
ENDBRANCH  19  20
ENDBRANCH  18  19
ENDBRANCH  14  15
ENDBRANCH  12  13
TORSDOF 6
ENDMDL
MODEL 2
REMARK VINA RESULT:      -8.5     20.935     26.605
REMARK  Name = C:\Users\Docking\Desktop\test protocol\1iep_ligandH.pdb
REMARK  8 active torsions:
REMARK  status: ('A' for Active; 'I' for Inactive)
REMARK    1  A    between atoms: _5  and  _11
REMARK    2  A    between atoms: _19  and  _21
REMARK    3  A    between atoms: _22  and  _66
REMARK    4  A    between atoms: _27  and  _30
REMARK    5  A    between atoms: _32  and  _33
REMARK    6  A    between atoms: _38  and  _43
REMARK    7  A    between atoms: _43  and  _46
REMARK    8  A    between atoms: _53  and  _55
REMARK                            x       y       z     vdW  Elec       q    Type
REMARK                         _______ _______ _______ _____ _____    ______ ____
ROOT
ATOM     10  C   UNL     1     -34.612 -50.427  36.202  0.00  0.00    +0.038 A 
ATOM     11  C   UNL     1     -33.842 -50.039  35.075  0.00  0.00    +0.047 A 
ATOM     12  C   UNL     1     -33.208 -48.731  35.011  0.00  0.00    +0.035 A 
ATOM     32  C   UNL     1     -33.377 -47.844  36.114  0.00  0.00    +0.024 A 
ATOM     33  C   UNL     1     -34.157 -48.222  37.266  0.00  0.00    +0.007 A 
ATOM     34  C   UNL     1     -34.787 -49.509  37.334  0.00  0.00    -0.029 A 
ATOM     35  C   UNL     1     -35.617 -49.858  38.591  0.00  0.00    +0.045 C 
ENDROOT
BRANCH  10   9
ATOM      4  C   UNL     1     -38.224 -53.427  35.206  0.00  0.00    +0.077 A 
ATOM      5  C   UNL     1     -39.022 -52.375  34.646  0.00  0.00    +0.048 A 
ATOM      6  C   UNL     1     -38.469 -51.075  34.639  0.00  0.00    +0.116 A 
ATOM      7  N   UNL     1     -37.211 -50.855  35.157  0.00  0.00    -0.223 NA
ATOM      8  C   UNL     1     -36.468 -51.892  35.692  0.00  0.00    +0.220 A 
ATOM      9  N   UNL     1     -35.198 -51.695  36.210  0.00  0.00    -0.283 N 
ATOM     36  H   UNL     1     -34.686 -52.484  36.603  0.00  0.00    +0.155 HD
ATOM     37  N   UNL     1     -36.975 -53.142  35.711  0.00  0.00    -0.214 NA
BRANCH   4   3
ATOM      1  C   UNL     1     -39.844 -56.773  36.424  0.00  0.00    +0.020 A 
ATOM      2  C   UNL     1     -39.439 -55.386  36.399  0.00  0.00    +0.013 A 
ATOM      3  C   UNL     1     -38.668 -54.855  35.282  0.00  0.00    +0.019 A 
ATOM     38  C   UNL     1     -38.321 -55.760  34.197  0.00  0.00    +0.120 A 
ATOM     39  N   UNL     1     -38.724 -57.091  34.249  0.00  0.00    -0.263 NA
ATOM     40  C   UNL     1     -39.464 -57.614  35.319  0.00  0.00    +0.111 A 
ENDBRANCH   4   3
ENDBRANCH  10   9
BRANCH  12  13
ATOM     13  N   UNL     1     -32.422 -48.279  33.891  0.00  0.00    -0.281 N 
ATOM     14  C   UNL     1     -31.042 -48.246  33.777  0.00  0.00    +0.248 C 
ATOM     30  O   UNL     1     -30.268 -48.402  34.709  0.00  0.00    -0.270 OA
ATOM     31  H   UNL     1     -32.947 -47.943  33.083  0.00  0.00    +0.155 HD
BRANCH  14  15
ATOM     15  C   UNL     1     -30.434 -47.988  32.436  0.00  0.00    +0.037 A 
ATOM     16  C   UNL     1     -31.004 -46.996  31.521  0.00  0.00    +0.013 A 
ATOM     17  C   UNL     1     -30.408 -46.779  30.227  0.00  0.00    +0.005 A 
ATOM     18  C   UNL     1     -29.233 -47.556  29.840  0.00  0.00    -0.033 A 
ATOM     28  C   UNL     1     -28.685 -48.530  30.769  0.00  0.00    +0.005 A 
ATOM     29  C   UNL     1     -29.267 -48.746  32.038  0.00  0.00    +0.013 A 
BRANCH  18  19
ATOM     19  C   UNL     1     -28.544 -47.405  28.471  0.00  0.00    +0.119 C 
BRANCH  19  20
ATOM     20  N   UNL     1     -27.077 -47.676  28.410  0.00  0.00    -0.302 NA
ATOM     21  C   UNL     1     -26.266 -46.400  28.168  0.00  0.00    +0.066 C 
ATOM     22  C   UNL     1     -24.732 -46.699  28.130  0.00  0.00    -0.064 C 
ATOM     23  N   UNL     1     -24.445 -47.736  27.043  0.00  0.00    +0.379 N 
ATOM     24  C   UNL     1     -22.996 -47.977  26.965  0.00  0.00    -0.096 C 
ATOM     25  H   UNL     1     -24.769 -47.304  26.068  0.00  0.00    -0.082 HD
ATOM     26  C   UNL     1     -25.249 -49.008  27.274  0.00  0.00    -0.064 C 
ATOM     27  C   UNL     1     -26.770 -48.696  27.340  0.00  0.00    +0.066 C 
ENDBRANCH  19  20
ENDBRANCH  18  19
ENDBRANCH  14  15
ENDBRANCH  12  13
TORSDOF 6
ENDMDL
MODEL 3
REMARK VINA RESULT:      -8.4     24.650     25.849
REMARK  Name = C:\Users\Docking\Desktop\test protocol\1iep_ligandH.pdb
REMARK  8 active torsions:
REMARK  status: ('A' for Active; 'I' for Inactive)
REMARK    1  A    between atoms: _5  and  _11
REMARK    2  A    between atoms: _19  and  _21
REMARK    3  A    between atoms: _22  and  _66
REMARK    4  A    between atoms: _27  and  _30
REMARK    5  A    between atoms: _32  and  _33
REMARK    6  A    between atoms: _38  and  _43
REMARK    7  A    between atoms: _43  and  _46
REMARK    8  A    between atoms: _53  and  _55
REMARK                            x       y       z     vdW  Elec       q    Type
REMARK                         _______ _______ _______ _____ _____    ______ ____
ROOT
ATOM     10  C   UNL     1     -31.178 -46.980  30.817  0.00  0.00    +0.038 A 
ATOM     11  C   UNL     1     -31.564 -47.898  31.826  0.00  0.00    +0.047 A 
ATOM     12  C   UNL     1     -32.587 -47.557  32.803  0.00  0.00    +0.035 A 
ATOM     32  C   UNL     1     -33.197 -46.272  32.721  0.00  0.00    +0.024 A 
ATOM     33  C   UNL     1     -32.816 -45.325  31.702  0.00  0.00    +0.007 A 
ATOM     34  C   UNL     1     -31.806 -45.655  30.738  0.00  0.00    -0.029 A 
ATOM     35  C   UNL     1     -31.433 -44.599  29.672  0.00  0.00    +0.045 C 
ENDROOT
BRANCH  10   9
ATOM      4  C   UNL     1     -26.625 -47.070  29.300  0.00  0.00    +0.077 A 
ATOM      5  C   UNL     1     -26.180 -46.269  30.404  0.00  0.00    +0.048 A 
ATOM      6  C   UNL     1     -27.155 -45.849  31.336  0.00  0.00    +0.116 A 
ATOM      7  N   UNL     1     -28.474 -46.209  31.167  0.00  0.00    -0.223 NA
ATOM      8  C   UNL     1     -28.871 -46.980  30.090  0.00  0.00    +0.220 A 
ATOM      9  N   UNL     1     -30.191 -47.360  29.905  0.00  0.00    -0.283 N 
ATOM     36  H   UNL     1     -30.445 -47.923  29.093  0.00  0.00    +0.155 HD
ATOM     37  N   UNL     1     -27.959 -47.393  29.185  0.00  0.00    -0.214 NA
BRANCH   4   3
ATOM      1  C   UNL     1     -25.104 -49.245  26.427  0.00  0.00    +0.020 A 
ATOM      2  C   UNL     1     -26.018 -48.781  27.445  0.00  0.00    +0.013 A 
ATOM      3  C   UNL     1     -25.714 -47.593  28.233  0.00  0.00    +0.019 A 
ATOM     38  C   UNL     1     -24.469 -46.891  27.963  0.00  0.00    +0.120 A 
ATOM     39  N   UNL     1     -23.607 -47.362  26.977  0.00  0.00    -0.263 NA
ATOM     40  C   UNL     1     -23.888 -48.505  26.213  0.00  0.00    +0.111 A 
ENDBRANCH   4   3
ENDBRANCH  10   9
BRANCH  12  13
ATOM     13  N   UNL     1     -33.014 -48.446  33.855  0.00  0.00    -0.281 N 
ATOM     14  C   UNL     1     -33.157 -48.163  35.203  0.00  0.00    +0.248 C 
ATOM     30  O   UNL     1     -32.731 -47.154  35.747  0.00  0.00    -0.270 OA
ATOM     31  H   UNL     1     -33.239 -49.400  33.571  0.00  0.00    +0.155 HD
BRANCH  14  15
ATOM     15  C   UNL     1     -33.862 -49.149  36.078  0.00  0.00    +0.037 A 
ATOM     16  C   UNL     1     -34.043 -50.542  35.659  0.00  0.00    +0.013 A 
ATOM     17  C   UNL     1     -34.742 -51.468  36.514  0.00  0.00    +0.005 A 
ATOM     18  C   UNL     1     -35.263 -51.005  37.798  0.00  0.00    -0.033 A 
ATOM     28  C   UNL     1     -35.064 -49.620  38.190  0.00  0.00    +0.005 A 
ATOM     29  C   UNL     1     -34.381 -48.708  37.355  0.00  0.00    +0.013 A 
BRANCH  18  19
ATOM     19  C   UNL     1     -36.039 -51.919  38.765  0.00  0.00    +0.119 C 
BRANCH  19  20
ATOM     20  N   UNL     1     -35.345 -53.150  39.248  0.00  0.00    -0.302 NA
ATOM     21  C   UNL     1     -35.873 -54.414  38.562  0.00  0.00    +0.066 C 
ATOM     22  C   UNL     1     -35.120 -55.689  39.063  0.00  0.00    -0.064 C 
ATOM     23  N   UNL     1     -35.261 -55.798  40.582  0.00  0.00    +0.379 N 
ATOM     24  C   UNL     1     -34.604 -57.027  41.049  0.00  0.00    -0.096 C 
ATOM     25  H   UNL     1     -36.348 -55.886  40.815  0.00  0.00    -0.082 HD
ATOM     26  C   UNL     1     -34.742 -54.544  41.271  0.00  0.00    -0.064 C 
ATOM     27  C   UNL     1     -35.476 -53.279  40.745  0.00  0.00    +0.066 C 
ENDBRANCH  19  20
ENDBRANCH  18  19
ENDBRANCH  14  15
ENDBRANCH  12  13
TORSDOF 6
ENDMDL
