MODEL 1
REMARK VINA RESULT:      -8.9      0.000      0.000
REMARK  Name = C:\Users\Docking\Desktop\test protocol\1iep_ligandH.pdb
REMARK  8 active torsions:
REMARK  status: ('A' for Active; 'I' for Inactive)
REMARK    1  A    between atoms: _5  and  _11
REMARK    2  A    between atoms: _19  and  _21
REMARK    3  A    between atoms: _22  and  _66
REMARK    4  A    between atoms: _27  and  _30
REMARK    5  A    between atoms: _32  and  _33
REMARK    6  A    between atoms: _38  and  _43
REMARK    7  A    between atoms: _43  and  _46
REMARK    8  A    between atoms: _53  and  _55
REMARK                            x       y       z     vdW  Elec       q    Type
REMARK                         _______ _______ _______ _____ _____    ______ ____
ROOT
ATOM     10  C   UNL     1     -30.821 -46.538  30.332  0.00  0.00    +0.038 A 
ATOM     11  C   UNL     1     -31.202 -47.441  31.357  0.00  0.00    +0.047 A 
ATOM     12  C   UNL     1     -32.227 -47.088  32.328  0.00  0.00    +0.035 A 
ATOM     32  C   UNL     1     -32.845 -45.808  32.223  0.00  0.00    +0.024 A 
ATOM     33  C   UNL     1     -32.469 -44.878  31.187  0.00  0.00    +0.007 A 
ATOM     34  C   UNL     1     -31.457 -45.219  30.229  0.00  0.00    -0.029 A 
ATOM     35  C   UNL     1     -31.090 -44.180  29.144  0.00  0.00    +0.045 C 
ENDROOT
BRANCH  10   9
ATOM      4  C   UNL     1     -26.276 -46.588  28.790  0.00  0.00    +0.077 A 
ATOM      5  C   UNL     1     -25.840 -45.742  29.865  0.00  0.00    +0.048 A 
ATOM      6  C   UNL     1     -26.819 -45.311  30.788  0.00  0.00    +0.116 A 
ATOM      7  N   UNL     1     -28.132 -45.702  30.639  0.00  0.00    -0.223 NA
ATOM      8  C   UNL     1     -28.518 -46.516  29.591  0.00  0.00    +0.220 A 
ATOM      9  N   UNL     1     -29.832 -46.928  29.426  0.00  0.00    -0.283 N 
ATOM     36  H   UNL     1     -30.078 -47.523  28.636  0.00  0.00    +0.155 HD
ATOM     37  N   UNL     1     -27.604 -46.941  28.695  0.00  0.00    -0.214 NA
BRANCH   4   3
ATOM      1  C   UNL     1     -23.214 -47.101  26.411  0.00  0.00    +0.020 A 
ATOM      2  C   UNL     1     -24.061 -46.540  27.438  0.00  0.00    +0.013 A 
ATOM      3  C   UNL     1     -25.361 -47.128  27.736  0.00  0.00    +0.019 A 
ATOM     38  C   UNL     1     -25.777 -48.293  26.970  0.00  0.00    +0.120 A 
ATOM     39  N   UNL     1     -24.942 -48.811  25.985  0.00  0.00    -0.263 NA
ATOM     40  C   UNL     1     -23.690 -48.252  25.689  0.00  0.00    +0.111 A 
ENDBRANCH   4   3
ENDBRANCH  10   9
BRANCH  12  13
ATOM     13  N   UNL     1     -32.649 -47.961  33.395  0.00  0.00    -0.281 N 
ATOM     14  C   UNL     1     -32.957 -47.620  34.702  0.00  0.00    +0.248 C 
ATOM     30  O   UNL     1     -32.708 -46.537  35.211  0.00  0.00    -0.270 OA
ATOM     31  H   UNL     1     -32.732 -48.950  33.159  0.00  0.00    +0.155 HD
BRANCH  14  15
ATOM     15  C   UNL     1     -33.624 -48.633  35.575  0.00  0.00    +0.037 A 
ATOM     16  C   UNL     1     -33.884 -49.994  35.097  0.00  0.00    +0.013 A 
ATOM     17  C   UNL     1     -34.545 -50.947  35.953  0.00  0.00    +0.005 A 
ATOM     18  C   UNL     1     -34.949 -50.542  37.298  0.00  0.00    -0.033 A 
ATOM     28  C   UNL     1     -34.674 -49.188  37.748  0.00  0.00    +0.005 A 
ATOM     29  C   UNL     1     -34.027 -48.251  36.911  0.00  0.00    +0.013 A 
BRANCH  18  19
ATOM     19  C   UNL     1     -35.678 -51.487  38.272  0.00  0.00    +0.119 C 
BRANCH  19  20
ATOM     20  N   UNL     1     -34.979 -52.752  38.649  0.00  0.00    -0.302 NA
ATOM     21  C   UNL     1     -35.595 -53.975  37.963  0.00  0.00    +0.066 C 
ATOM     22  C   UNL     1     -34.838 -55.286  38.352  0.00  0.00    -0.064 C 
ATOM     23  N   UNL     1     -34.857 -55.452  39.872  0.00  0.00    +0.379 N 
ATOM     24  C   UNL     1     -34.197 -56.713  40.237  0.00  0.00    -0.096 C 
ATOM     25  H   UNL     1     -35.923 -55.523  40.191  0.00  0.00    -0.082 HD
ATOM     26  C   UNL     1     -34.249 -54.239  40.562  0.00  0.00    -0.064 C 
ATOM     27  C   UNL     1     -34.990 -52.937  40.147  0.00  0.00    +0.066 C 
ENDBRANCH  19  20
ENDBRANCH  18  19
ENDBRANCH  14  15
ENDBRANCH  12  13
TORSDOF 6
ENDMDL
MODEL 2
REMARK VINA RESULT:      -8.7     21.963     25.720
REMARK  Name = C:\Users\Docking\Desktop\test protocol\1iep_ligandH.pdb
REMARK  8 active torsions:
REMARK  status: ('A' for Active; 'I' for Inactive)
REMARK    1  A    between atoms: _5  and  _11
REMARK    2  A    between atoms: _19  and  _21
REMARK    3  A    between atoms: _22  and  _66
REMARK    4  A    between atoms: _27  and  _30
REMARK    5  A    between atoms: _32  and  _33
REMARK    6  A    between atoms: _38  and  _43
REMARK    7  A    between atoms: _43  and  _46
REMARK    8  A    between atoms: _53  and  _55
REMARK                            x       y       z     vdW  Elec       q    Type
REMARK                         _______ _______ _______ _____ _____    ______ ____
ROOT
ATOM     10  C   UNL     1     -45.355 -54.840  13.867  0.00  0.00    +0.038 A 
ATOM     11  C   UNL     1     -44.043 -55.356  13.715  0.00  0.00    +0.047 A 
ATOM     12  C   UNL     1     -43.257 -55.075  12.524  0.00  0.00    +0.035 A 
ATOM     32  C   UNL     1     -43.838 -54.261  11.508  0.00  0.00    +0.024 A 
ATOM     33  C   UNL     1     -45.171 -53.729  11.645  0.00  0.00    +0.007 A 
ATOM     34  C   UNL     1     -45.952 -54.005  12.817  0.00  0.00    -0.029 A 
ATOM     35  C   UNL     1     -47.378 -53.414  12.909  0.00  0.00    +0.045 C 
ENDROOT
BRANCH  10   9
ATOM      4  C   UNL     1     -45.920 -54.714  18.632  0.00  0.00    +0.077 A 
ATOM      5  C   UNL     1     -44.683 -54.012  18.819  0.00  0.00    +0.048 A 
ATOM      6  C   UNL     1     -43.928 -53.708  17.664  0.00  0.00    +0.116 A 
ATOM      7  N   UNL     1     -44.386 -54.083  16.420  0.00  0.00    -0.223 NA
ATOM      8  C   UNL     1     -45.582 -54.761  16.274  0.00  0.00    +0.220 A 
ATOM      9  N   UNL     1     -46.065 -55.141  15.032  0.00  0.00    -0.283 N 
ATOM     36  H   UNL     1     -46.948 -55.647  14.967  0.00  0.00    +0.155 HD
ATOM     37  N   UNL     1     -46.321 -55.064  17.362  0.00  0.00    -0.214 NA
BRANCH   4   3
ATOM      1  C   UNL     1     -47.740 -56.763  21.423  0.00  0.00    +0.020 A 
ATOM      2  C   UNL     1     -46.841 -56.438  20.340  0.00  0.00    +0.013 A 
ATOM      3  C   UNL     1     -46.831 -55.104  19.754  0.00  0.00    +0.019 A 
ATOM     38  C   UNL     1     -47.751 -54.113  20.292  0.00  0.00    +0.120 A 
ATOM     39  N   UNL     1     -48.607 -54.454  21.334  0.00  0.00    -0.263 NA
ATOM     40  C   UNL     1     -48.626 -55.736  21.905  0.00  0.00    +0.111 A 
ENDBRANCH   4   3
ENDBRANCH  10   9
BRANCH  12  13
ATOM     13  N   UNL     1     -41.923 -55.578  12.310  0.00  0.00    -0.281 N 
ATOM     14  C   UNL     1     -41.541 -56.704  11.599  0.00  0.00    +0.248 C 
ATOM     30  O   UNL     1     -42.310 -57.573  11.216  0.00  0.00    -0.270 OA
ATOM     31  H   UNL     1     -41.168 -55.039  12.734  0.00  0.00    +0.155 HD
BRANCH  14  15
ATOM     15  C   UNL     1     -40.094 -56.900  11.280  0.00  0.00    +0.037 A 
ATOM     16  C   UNL     1     -39.258 -55.786  10.827  0.00  0.00    +0.013 A 
ATOM     17  C   UNL     1     -37.869 -56.006  10.510  0.00  0.00    +0.005 A 
ATOM     18  C   UNL     1     -37.308 -57.348  10.646  0.00  0.00    -0.033 A 
ATOM     28  C   UNL     1     -38.159 -58.434  11.102  0.00  0.00    +0.005 A 
ATOM     29  C   UNL     1     -39.521 -58.222  11.413  0.00  0.00    +0.013 A 
BRANCH  18  19
ATOM     19  C   UNL     1     -35.842 -57.679  10.309  0.00  0.00    +0.119 C 
BRANCH  19  20
ATOM     20  N   UNL     1     -35.090 -58.524  11.285  0.00  0.00    -0.302 NA
ATOM     21  C   UNL     1     -34.017 -57.726  12.029  0.00  0.00    +0.066 C 
ATOM     22  C   UNL     1     -33.256 -58.620  13.062  0.00  0.00    -0.064 C 
ATOM     23  N   UNL     1     -32.636 -59.816  12.337  0.00  0.00    +0.379 N 
ATOM     24  C   UNL     1     -31.871 -60.627  13.295  0.00  0.00    -0.096 C 
ATOM     25  H   UNL     1     -31.919 -59.419  11.581  0.00  0.00    -0.082 HD
ATOM     26  C   UNL     1     -33.696 -60.614  11.592  0.00  0.00    -0.064 C 
ATOM     27  C   UNL     1     -34.466 -59.709  10.589  0.00  0.00    +0.066 C 
ENDBRANCH  19  20
ENDBRANCH  18  19
ENDBRANCH  14  15
ENDBRANCH  12  13
TORSDOF 6
ENDMDL
MODEL 3
REMARK VINA RESULT:      -8.7      3.131     12.756
REMARK  Name = C:\Users\Docking\Desktop\test protocol\1iep_ligandH.pdb
REMARK  8 active torsions:
REMARK  status: ('A' for Active; 'I' for Inactive)
REMARK    1  A    between atoms: _5  and  _11
REMARK    2  A    between atoms: _19  and  _21
REMARK    3  A    between atoms: _22  and  _66
REMARK    4  A    between atoms: _27  and  _30
REMARK    5  A    between atoms: _32  and  _33
REMARK    6  A    between atoms: _38  and  _43
REMARK    7  A    between atoms: _43  and  _46
REMARK    8  A    between atoms: _53  and  _55
REMARK                            x       y       z     vdW  Elec       q    Type
REMARK                         _______ _______ _______ _____ _____    ______ ____
ROOT
ATOM     10  C   UNL     1     -34.158 -49.949  35.476  0.00  0.00    +0.038 A 
ATOM     11  C   UNL     1     -33.318 -49.406  34.471  0.00  0.00    +0.047 A 
ATOM     12  C   UNL     1     -32.749 -48.074  34.603  0.00  0.00    +0.035 A 
ATOM     32  C   UNL     1     -33.055 -47.323  35.776  0.00  0.00    +0.024 A 
ATOM     33  C   UNL     1     -33.908 -47.858  36.807  0.00  0.00    +0.007 A 
ATOM     34  C   UNL     1     -34.474 -49.171  36.680  0.00  0.00    -0.029 A 
ATOM     35  C   UNL     1     -35.387 -49.692  37.815  0.00  0.00    +0.045 C 
ENDROOT
BRANCH  10   9
ATOM      4  C   UNL     1     -37.677 -52.952  34.199  0.00  0.00    +0.077 A 
ATOM      5  C   UNL     1     -38.567 -51.871  33.887  0.00  0.00    +0.048 A 
ATOM      6  C   UNL     1     -38.083 -50.557  34.076  0.00  0.00    +0.116 A 
ATOM      7  N   UNL     1     -36.803 -50.351  34.542  0.00  0.00    -0.223 NA
ATOM      8  C   UNL     1     -35.971 -51.417  34.835  0.00  0.00    +0.220 A 
ATOM      9  N   UNL     1     -34.677 -51.233  35.297  0.00  0.00    -0.283 N 
ATOM     36  H   UNL     1     -34.097 -52.045  35.509  0.00  0.00    +0.155 HD
ATOM     37  N   UNL     1     -36.410 -52.681  34.664  0.00  0.00    -0.214 NA
BRANCH   4   3
ATOM      1  C   UNL     1     -39.521 -56.389  34.505  0.00  0.00    +0.020 A 
ATOM      2  C   UNL     1     -39.213 -54.988  34.683  0.00  0.00    +0.013 A 
ATOM      3  C   UNL     1     -38.042 -54.396  34.048  0.00  0.00    +0.019 A 
ATOM     38  C   UNL     1     -37.197 -55.255  33.233  0.00  0.00    +0.120 A 
ATOM     39  N   UNL     1     -37.517 -56.601  33.080  0.00  0.00    -0.263 NA
ATOM     40  C   UNL     1     -38.640 -57.182  33.688  0.00  0.00    +0.111 A 
ENDBRANCH   4   3
ENDBRANCH  10   9
BRANCH  12  13
ATOM     13  N   UNL     1     -31.896 -47.467  33.612  0.00  0.00    -0.281 N 
ATOM     14  C   UNL     1     -30.525 -47.279  33.668  0.00  0.00    +0.248 C 
ATOM     30  O   UNL     1     -29.850 -47.412  34.678  0.00  0.00    -0.270 OA
ATOM     31  H   UNL     1     -32.360 -47.136  32.765  0.00  0.00    +0.155 HD
BRANCH  14  15
ATOM     15  C   UNL     1     -29.801 -46.870  32.426  0.00  0.00    +0.037 A 
ATOM     16  C   UNL     1     -29.033 -45.623  32.370  0.00  0.00    +0.013 A 
ATOM     17  C   UNL     1     -28.358 -45.243  31.154  0.00  0.00    +0.005 A 
ATOM     18  C   UNL     1     -28.447 -46.113  29.984  0.00  0.00    -0.033 A 
ATOM     28  C   UNL     1     -29.211 -47.347  30.069  0.00  0.00    +0.005 A 
ATOM     29  C   UNL     1     -29.875 -47.722  31.259  0.00  0.00    +0.013 A 
BRANCH  18  19
ATOM     19  C   UNL     1     -27.776 -45.777  28.639  0.00  0.00    +0.119 C 
BRANCH  19  20
ATOM     20  N   UNL     1     -26.378 -46.260  28.432  0.00  0.00    -0.302 NA
ATOM     21  C   UNL     1     -25.467 -45.162  27.878  0.00  0.00    +0.066 C 
ATOM     22  C   UNL     1     -24.003 -45.678  27.689  0.00  0.00    -0.064 C 
ATOM     23  N   UNL     1     -24.011 -46.896  26.762  0.00  0.00    +0.379 N 
ATOM     24  C   UNL     1     -22.630 -47.348  26.536  0.00  0.00    -0.096 C 
ATOM     25  H   UNL     1     -24.425 -46.570  25.780  0.00  0.00    -0.082 HD
ATOM     26  C   UNL     1     -24.917 -47.992  27.305  0.00  0.00    -0.064 C 
ATOM     27  C   UNL     1     -26.362 -47.460  27.517  0.00  0.00    +0.066 C 
ENDBRANCH  19  20
ENDBRANCH  18  19
ENDBRANCH  14  15
ENDBRANCH  12  13
TORSDOF 6
ENDMDL
