MODEL 1
REMARK VINA RESULT:      -8.7      0.000      0.000
REMARK  Name = C:\Users\Docking\Desktop\test protocol\1iep_ligandH.pdb
REMARK  8 active torsions:
REMARK  status: ('A' for Active; 'I' for Inactive)
REMARK    1  A    between atoms: _5  and  _11
REMARK    2  A    between atoms: _19  and  _21
REMARK    3  A    between atoms: _22  and  _66
REMARK    4  A    between atoms: _27  and  _30
REMARK    5  A    between atoms: _32  and  _33
REMARK    6  A    between atoms: _38  and  _43
REMARK    7  A    between atoms: _43  and  _46
REMARK    8  A    between atoms: _53  and  _55
REMARK                            x       y       z     vdW  Elec       q    Type
REMARK                         _______ _______ _______ _____ _____    ______ ____
ROOT
ATOM     10  C   UNL     1     -34.397 -50.355  35.971  0.00  0.00    +0.038 A 
ATOM     11  C   UNL     1     -33.626 -49.946  34.852  0.00  0.00    +0.047 A 
ATOM     12  C   UNL     1     -32.969 -48.649  34.825  0.00  0.00    +0.035 A 
ATOM     32  C   UNL     1     -33.114 -47.794  35.956  0.00  0.00    +0.024 A 
ATOM     33  C   UNL     1     -33.894 -48.193  37.101  0.00  0.00    +0.007 A 
ATOM     34  C   UNL     1     -34.547 -49.470  37.133  0.00  0.00    -0.029 A 
ATOM     35  C   UNL     1     -35.376 -49.842  38.384  0.00  0.00    +0.045 C 
ENDROOT
BRANCH  10   9
ATOM      4  C   UNL     1     -38.073 -53.253  34.911  0.00  0.00    +0.077 A 
ATOM      5  C   UNL     1     -38.855 -52.169  34.392  0.00  0.00    +0.048 A 
ATOM      6  C   UNL     1     -38.278 -50.879  34.422  0.00  0.00    +0.116 A 
ATOM      7  N   UNL     1     -37.011 -50.700  34.936  0.00  0.00    -0.223 NA
ATOM      8  C   UNL     1     -36.285 -51.767  35.430  0.00  0.00    +0.220 A 
ATOM      9  N   UNL     1     -35.006 -51.611  35.944  0.00  0.00    -0.283 N 
ATOM     36  H   UNL     1     -34.506 -52.422  36.306  0.00  0.00    +0.155 HD
ATOM     37  N   UNL     1     -36.814 -53.008  35.414  0.00  0.00    -0.214 NA
BRANCH   4   3
ATOM      1  C   UNL     1     -39.894 -56.559  35.939  0.00  0.00    +0.020 A 
ATOM      2  C   UNL     1     -39.471 -55.178  35.951  0.00  0.00    +0.013 A 
ATOM      3  C   UNL     1     -38.543 -54.674  34.945  0.00  0.00    +0.019 A 
ATOM     38  C   UNL     1     -38.060 -55.601  33.933  0.00  0.00    +0.120 A 
ATOM     39  N   UNL     1     -38.485 -56.926  33.947  0.00  0.00    -0.263 NA
ATOM     40  C   UNL     1     -39.375 -57.422  34.911  0.00  0.00    +0.111 A 
ENDBRANCH   4   3
ENDBRANCH  10   9
BRANCH  12  13
ATOM     13  N   UNL     1     -32.181 -48.177  33.714  0.00  0.00    -0.281 N 
ATOM     14  C   UNL     1     -30.801 -48.089  33.624  0.00  0.00    +0.248 C 
ATOM     30  O   UNL     1     -30.038 -48.205  34.572  0.00  0.00    -0.270 OA
ATOM     31  H   UNL     1     -32.703 -47.870  32.893  0.00  0.00    +0.155 HD
BRANCH  14  15
ATOM     15  C   UNL     1     -30.180 -47.820  32.292  0.00  0.00    +0.037 A 
ATOM     16  C   UNL     1     -30.711 -46.786  31.400  0.00  0.00    +0.013 A 
ATOM     17  C   UNL     1     -30.103 -46.559  30.113  0.00  0.00    +0.005 A 
ATOM     18  C   UNL     1     -28.955 -47.367  29.710  0.00  0.00    -0.033 A 
ATOM     28  C   UNL     1     -28.445 -48.383  30.617  0.00  0.00    +0.005 A 
ATOM     29  C   UNL     1     -29.038 -48.609  31.879  0.00  0.00    +0.013 A 
BRANCH  18  19
ATOM     19  C   UNL     1     -28.256 -47.208  28.347  0.00  0.00    +0.119 C 
BRANCH  19  20
ATOM     20  N   UNL     1     -26.803 -47.546  28.279  0.00  0.00    -0.302 NA
ATOM     21  C   UNL     1     -25.933 -46.300  28.090  0.00  0.00    +0.066 C 
ATOM     22  C   UNL     1     -24.414 -46.669  28.044  0.00  0.00    -0.064 C 
ATOM     23  N   UNL     1     -24.171 -47.677  26.919  0.00  0.00    +0.379 N 
ATOM     24  C   UNL     1     -22.735 -47.981  26.835  0.00  0.00    -0.096 C 
ATOM     25  H   UNL     1     -24.470 -47.192  25.960  0.00  0.00    -0.082 HD
ATOM     26  C   UNL     1     -25.035 -48.917  27.098  0.00  0.00    -0.064 C 
ATOM     27  C   UNL     1     -26.540 -48.536  27.172  0.00  0.00    +0.066 C 
ENDBRANCH  19  20
ENDBRANCH  18  19
ENDBRANCH  14  15
ENDBRANCH  12  13
TORSDOF 6
ENDMDL
MODEL 2
REMARK VINA RESULT:      -8.5      2.909     12.932
REMARK  Name = C:\Users\Docking\Desktop\test protocol\1iep_ligandH.pdb
REMARK  8 active torsions:
REMARK  status: ('A' for Active; 'I' for Inactive)
REMARK    1  A    between atoms: _5  and  _11
REMARK    2  A    between atoms: _19  and  _21
REMARK    3  A    between atoms: _22  and  _66
REMARK    4  A    between atoms: _27  and  _30
REMARK    5  A    between atoms: _32  and  _33
REMARK    6  A    between atoms: _38  and  _43
REMARK    7  A    between atoms: _43  and  _46
REMARK    8  A    between atoms: _53  and  _55
REMARK                            x       y       z     vdW  Elec       q    Type
REMARK                         _______ _______ _______ _____ _____    ______ ____
ROOT
ATOM     10  C   UNL     1     -30.641 -46.530  30.482  0.00  0.00    +0.038 A 
ATOM     11  C   UNL     1     -31.163 -47.460  31.417  0.00  0.00    +0.047 A 
ATOM     12  C   UNL     1     -32.176 -47.066  32.385  0.00  0.00    +0.035 A 
ATOM     32  C   UNL     1     -32.636 -45.717  32.369  0.00  0.00    +0.024 A 
ATOM     33  C   UNL     1     -32.115 -44.759  31.426  0.00  0.00    +0.007 A 
ATOM     34  C   UNL     1     -31.115 -45.141  30.471  0.00  0.00    -0.029 A 
ATOM     35  C   UNL     1     -30.588 -44.070  29.488  0.00  0.00    +0.045 C 
ENDROOT
BRANCH  10   9
ATOM      4  C   UNL     1     -26.081 -46.954  29.045  0.00  0.00    +0.077 A 
ATOM      5  C   UNL     1     -25.593 -46.229  30.182  0.00  0.00    +0.048 A 
ATOM      6  C   UNL     1     -26.549 -45.758  31.110  0.00  0.00    +0.116 A 
ATOM      7  N   UNL     1     -27.890 -46.000  30.906  0.00  0.00    -0.223 NA
ATOM      8  C   UNL     1     -28.327 -46.701  29.797  0.00  0.00    +0.220 A 
ATOM      9  N   UNL     1     -29.671 -46.963  29.575  0.00  0.00    -0.283 N 
ATOM     36  H   UNL     1     -29.953 -47.477  28.741  0.00  0.00    +0.155 HD
ATOM     37  N   UNL     1     -27.435 -47.160  28.895  0.00  0.00    -0.214 NA
BRANCH   4   3
ATOM      1  C   UNL     1     -23.041 -47.591  26.668  0.00  0.00    +0.020 A 
ATOM      2  C   UNL     1     -23.856 -47.010  27.709  0.00  0.00    +0.013 A 
ATOM      3  C   UNL     1     -25.195 -47.519  27.978  0.00  0.00    +0.019 A 
ATOM     38  C   UNL     1     -25.683 -48.625  27.169  0.00  0.00    +0.120 A 
ATOM     39  N   UNL     1     -24.876 -49.164  26.172  0.00  0.00    -0.263 NA
ATOM     40  C   UNL     1     -23.586 -48.681  25.903  0.00  0.00    +0.111 A 
ENDBRANCH   4   3
ENDBRANCH  10   9
BRANCH  12  13
ATOM     13  N   UNL     1     -32.737 -47.963  33.364  0.00  0.00    -0.281 N 
ATOM     14  C   UNL     1     -32.544 -47.955  34.736  0.00  0.00    +0.248 C 
ATOM     30  O   UNL     1     -31.686 -47.302  35.309  0.00  0.00    -0.270 OA
ATOM     31  H   UNL     1     -33.350 -48.693  33.002  0.00  0.00    +0.155 HD
BRANCH  14  15
ATOM     15  C   UNL     1     -33.423 -48.807  35.593  0.00  0.00    +0.037 A 
ATOM     16  C   UNL     1     -33.981 -48.301  36.850  0.00  0.00    +0.013 A 
ATOM     17  C   UNL     1     -34.812 -49.149  37.666  0.00  0.00    +0.005 A 
ATOM     18  C   UNL     1     -35.092 -50.514  37.227  0.00  0.00    -0.033 A 
ATOM     28  C   UNL     1     -34.531 -50.989  35.973  0.00  0.00    +0.005 A 
ATOM     29  C   UNL     1     -33.715 -50.161  35.171  0.00  0.00    +0.013 A 
BRANCH  18  19
ATOM     19  C   UNL     1     -35.951 -51.496  38.045  0.00  0.00    +0.119 C 
BRANCH  19  20
ATOM     20  N   UNL     1     -35.258 -52.675  38.645  0.00  0.00    -0.302 NA
ATOM     21  C   UNL     1     -35.842 -54.000  38.147  0.00  0.00    +0.066 C 
ATOM     22  C   UNL     1     -35.090 -55.223  38.768  0.00  0.00    -0.064 C 
ATOM     23  N   UNL     1     -35.160 -55.140  40.293  0.00  0.00    +0.379 N 
ATOM     24  C   UNL     1     -34.504 -56.318  40.879  0.00  0.00    -0.096 C 
ATOM     25  H   UNL     1     -36.236 -55.171  40.584  0.00  0.00    -0.082 HD
ATOM     26  C   UNL     1     -34.584 -53.824  40.797  0.00  0.00    -0.064 C 
ATOM     27  C   UNL     1     -35.319 -52.616  40.152  0.00  0.00    +0.066 C 
ENDBRANCH  19  20
ENDBRANCH  18  19
ENDBRANCH  14  15
ENDBRANCH  12  13
TORSDOF 6
ENDMDL
MODEL 3
REMARK VINA RESULT:      -8.5     20.319     22.321
REMARK  Name = C:\Users\Docking\Desktop\test protocol\1iep_ligandH.pdb
REMARK  8 active torsions:
REMARK  status: ('A' for Active; 'I' for Inactive)
REMARK    1  A    between atoms: _5  and  _11
REMARK    2  A    between atoms: _19  and  _21
REMARK    3  A    between atoms: _22  and  _66
REMARK    4  A    between atoms: _27  and  _30
REMARK    5  A    between atoms: _32  and  _33
REMARK    6  A    between atoms: _38  and  _43
REMARK    7  A    between atoms: _43  and  _46
REMARK    8  A    between atoms: _53  and  _55
REMARK                            x       y       z     vdW  Elec       q    Type
REMARK                         _______ _______ _______ _____ _____    ______ ____
ROOT
ATOM     10  C   UNL     1     -45.301 -55.365  14.160  0.00  0.00    +0.038 A 
ATOM     11  C   UNL     1     -43.985 -55.869  13.995  0.00  0.00    +0.047 A 
ATOM     12  C   UNL     1     -43.202 -55.556  12.810  0.00  0.00    +0.035 A 
ATOM     32  C   UNL     1     -43.789 -54.723  11.813  0.00  0.00    +0.024 A 
ATOM     33  C   UNL     1     -45.125 -54.203  11.964  0.00  0.00    +0.007 A 
ATOM     34  C   UNL     1     -45.904 -54.511  13.129  0.00  0.00    -0.029 A 
ATOM     35  C   UNL     1     -47.333 -53.931  13.235  0.00  0.00    +0.045 C 
ENDROOT
BRANCH  10   9
ATOM      4  C   UNL     1     -46.013 -55.126  18.900  0.00  0.00    +0.077 A 
ATOM      5  C   UNL     1     -44.864 -54.288  19.090  0.00  0.00    +0.048 A 
ATOM      6  C   UNL     1     -44.112 -53.948  17.943  0.00  0.00    +0.116 A 
ATOM      7  N   UNL     1     -44.491 -54.416  16.704  0.00  0.00    -0.223 NA
ATOM      8  C   UNL     1     -45.604 -55.223  16.556  0.00  0.00    +0.220 A 
ATOM      9  N   UNL     1     -46.008 -55.698  15.317  0.00  0.00    -0.283 N 
ATOM     36  H   UNL     1     -46.830 -56.297  15.251  0.00  0.00    +0.155 HD
ATOM     37  N   UNL     1     -46.337 -55.563  17.636  0.00  0.00    -0.214 NA
BRANCH   4   3
ATOM      1  C   UNL     1     -47.749 -57.287  21.660  0.00  0.00    +0.020 A 
ATOM      2  C   UNL     1     -46.861 -56.909  20.584  0.00  0.00    +0.013 A 
ATOM      3  C   UNL     1     -46.910 -55.569  20.014  0.00  0.00    +0.019 A 
ATOM     38  C   UNL     1     -47.875 -54.627  20.560  0.00  0.00    +0.120 A 
ATOM     39  N   UNL     1     -48.718 -55.019  21.594  0.00  0.00    -0.263 NA
ATOM     40  C   UNL     1     -48.682 -56.307  22.150  0.00  0.00    +0.111 A 
ENDBRANCH   4   3
ENDBRANCH  10   9
BRANCH  12  13
ATOM     13  N   UNL     1     -41.865 -56.045  12.584  0.00  0.00    -0.281 N 
ATOM     14  C   UNL     1     -41.472 -57.119  11.803  0.00  0.00    +0.248 C 
ATOM     30  O   UNL     1     -42.234 -57.958  11.346  0.00  0.00    -0.270 OA
ATOM     31  H   UNL     1     -41.117 -55.538  13.058  0.00  0.00    +0.155 HD
BRANCH  14  15
ATOM     15  C   UNL     1     -40.019 -57.295  11.496  0.00  0.00    +0.037 A 
ATOM     16  C   UNL     1     -39.267 -56.270  10.769  0.00  0.00    +0.013 A 
ATOM     17  C   UNL     1     -37.871 -56.473  10.470  0.00  0.00    +0.005 A 
ATOM     18  C   UNL     1     -37.219 -57.707  10.901  0.00  0.00    -0.033 A 
ATOM     28  C   UNL     1     -37.988 -58.705  11.625  0.00  0.00    +0.005 A 
ATOM     29  C   UNL     1     -39.356 -58.510  11.918  0.00  0.00    +0.013 A 
BRANCH  18  19
ATOM     19  C   UNL     1     -35.739 -58.017  10.608  0.00  0.00    +0.119 C 
BRANCH  19  20
ATOM     20  N   UNL     1     -35.013 -58.877  11.589  0.00  0.00    -0.302 NA
ATOM     21  C   UNL     1     -33.834 -58.143  12.234  0.00  0.00    +0.066 C 
ATOM     22  C   UNL     1     -33.099 -59.051  13.274  0.00  0.00    -0.064 C 
ATOM     23  N   UNL     1     -32.628 -60.333  12.586  0.00  0.00    +0.379 N 
ATOM     24  C   UNL     1     -31.887 -61.162  13.547  0.00  0.00    -0.096 C 
ATOM     25  H   UNL     1     -31.921 -60.041  11.775  0.00  0.00    -0.082 HD
ATOM     26  C   UNL     1     -33.794 -61.067  11.939  0.00  0.00    -0.064 C 
ATOM     27  C   UNL     1     -34.535 -60.147  10.929  0.00  0.00    +0.066 C 
ENDBRANCH  19  20
ENDBRANCH  18  19
ENDBRANCH  14  15
ENDBRANCH  12  13
TORSDOF 6
ENDMDL
