MODEL 1
REMARK VINA RESULT:      -8.8      0.000      0.000
REMARK  Name = C:\Users\Docking\Desktop\test protocol\1iep_ligandH.pdb
REMARK  8 active torsions:
REMARK  status: ('A' for Active; 'I' for Inactive)
REMARK    1  A    between atoms: _5  and  _11
REMARK    2  A    between atoms: _19  and  _21
REMARK    3  A    between atoms: _22  and  _66
REMARK    4  A    between atoms: _27  and  _30
REMARK    5  A    between atoms: _32  and  _33
REMARK    6  A    between atoms: _38  and  _43
REMARK    7  A    between atoms: _43  and  _46
REMARK    8  A    between atoms: _53  and  _55
REMARK                            x       y       z     vdW  Elec       q    Type
REMARK                         _______ _______ _______ _____ _____    ______ ____
ROOT
ATOM     10  C   UNL     1      23.481   6.383  25.349  0.00  0.00    +0.038 A 
ATOM     11  C   UNL     1      22.551   5.379  25.720  0.00  0.00    +0.047 A 
ATOM     12  C   UNL     1      21.849   5.438  26.993  0.00  0.00    +0.035 A 
ATOM     32  C   UNL     1      22.118   6.535  27.863  0.00  0.00    +0.024 A 
ATOM     33  C   UNL     1      23.061   7.563  27.502  0.00  0.00    +0.007 A 
ATOM     34  C   UNL     1      23.758   7.509  26.248  0.00  0.00    -0.029 A 
ATOM     35  C   UNL     1      24.764   8.636  25.916  0.00  0.00    +0.045 C 
ENDROOT
BRANCH  10   9
ATOM      4  C   UNL     1      23.429   6.018  20.563  0.00  0.00    +0.077 A 
ATOM      5  C   UNL     1      21.995   6.010  20.520  0.00  0.00    +0.048 A 
ATOM      6  C   UNL     1      21.308   6.095  21.753  0.00  0.00    +0.116 A 
ATOM      7  N   UNL     1      22.014   6.181  22.933  0.00  0.00    -0.223 NA
ATOM      8  C   UNL     1      23.396   6.184  22.939  0.00  0.00    +0.220 A 
ATOM      9  N   UNL     1      24.126   6.277  24.115  0.00  0.00    -0.283 N 
ATOM     36  H   UNL     1      25.145   6.269  24.077  0.00  0.00    +0.155 HD
ATOM     37  N   UNL     1      24.075   6.102  21.776  0.00  0.00    -0.214 NA
BRANCH   4   3
ATOM      1  C   UNL     1      26.529   6.060  18.178  0.00  0.00    +0.020 A 
ATOM      2  C   UNL     1      25.737   6.149  19.384  0.00  0.00    +0.013 A 
ATOM      3  C   UNL     1      24.296   5.938  19.345  0.00  0.00    +0.019 A 
ATOM     38  C   UNL     1      23.681   5.636  18.061  0.00  0.00    +0.120 A 
ATOM     39  N   UNL     1      24.469   5.558  16.917  0.00  0.00    -0.263 NA
ATOM     40  C   UNL     1      25.857   5.761  16.941  0.00  0.00    +0.111 A 
ENDBRANCH   4   3
ENDBRANCH  10   9
BRANCH  12  13
ATOM     13  N   UNL     1      20.899   4.443  27.428  0.00  0.00    -0.281 N 
ATOM     14  C   UNL     1      19.524   4.451  27.265  0.00  0.00    +0.248 C 
ATOM     30  O   UNL     1      18.876   5.423  26.905  0.00  0.00    -0.270 OA
ATOM     31  H   UNL     1      21.289   3.636  27.915  0.00  0.00    +0.155 HD
BRANCH  14  15
ATOM     15  C   UNL     1      18.755   3.202  27.556  0.00  0.00    +0.037 A 
ATOM     16  C   UNL     1      18.402   2.831  28.929  0.00  0.00    +0.013 A 
ATOM     17  C   UNL     1      17.675   1.612  29.183  0.00  0.00    +0.005 A 
ATOM     18  C   UNL     1      17.295   0.757  28.062  0.00  0.00    -0.033 A 
ATOM     28  C   UNL     1      17.655   1.152  26.710  0.00  0.00    +0.005 A 
ATOM     29  C   UNL     1      18.368   2.345  26.456  0.00  0.00    +0.013 A 
BRANCH  18  19
ATOM     19  C   UNL     1      16.537  -0.572  28.242  0.00  0.00    +0.119 C 
BRANCH  19  20
ATOM     20  N   UNL     1      15.177  -0.671  27.633  0.00  0.00    -0.302 NA
ATOM     21  C   UNL     1      14.220   0.386  28.190  0.00  0.00    +0.066 C 
ATOM     22  C   UNL     1      12.808   0.282  27.526  0.00  0.00    -0.064 C 
ATOM     23  N   UNL     1      12.248  -1.125  27.743  0.00  0.00    +0.379 N 
ATOM     24  C   UNL     1      10.897  -1.208  27.170  0.00  0.00    -0.096 C 
ATOM     25  H   UNL     1      12.160  -1.287  28.842  0.00  0.00    -0.082 HD
ATOM     26  C   UNL     1      13.195  -2.182  27.194  0.00  0.00    -0.064 C 
ATOM     27  C   UNL     1      14.603  -2.051  27.839  0.00  0.00    +0.066 C 
ENDBRANCH  19  20
ENDBRANCH  18  19
ENDBRANCH  14  15
ENDBRANCH  12  13
TORSDOF 6
ENDMDL
MODEL 2
REMARK VINA RESULT:      -8.8      3.010     13.057
REMARK  Name = C:\Users\Docking\Desktop\test protocol\1iep_ligandH.pdb
REMARK  8 active torsions:
REMARK  status: ('A' for Active; 'I' for Inactive)
REMARK    1  A    between atoms: _5  and  _11
REMARK    2  A    between atoms: _19  and  _21
REMARK    3  A    between atoms: _22  and  _66
REMARK    4  A    between atoms: _27  and  _30
REMARK    5  A    between atoms: _32  and  _33
REMARK    6  A    between atoms: _38  and  _43
REMARK    7  A    between atoms: _43  and  _46
REMARK    8  A    between atoms: _53  and  _55
REMARK                            x       y       z     vdW  Elec       q    Type
REMARK                         _______ _______ _______ _____ _____    ______ ____
ROOT
ATOM     10  C   UNL     1      23.273   6.867  26.186  0.00  0.00    +0.038 A 
ATOM     11  C   UNL     1      23.713   6.491  24.891  0.00  0.00    +0.047 A 
ATOM     12  C   UNL     1      24.656   7.313  24.149  0.00  0.00    +0.035 A 
ATOM     32  C   UNL     1      25.134   8.510  24.757  0.00  0.00    +0.024 A 
ATOM     33  C   UNL     1      24.697   8.907  26.073  0.00  0.00    +0.007 A 
ATOM     34  C   UNL     1      23.765   8.102  26.809  0.00  0.00    -0.029 A 
ATOM     35  C   UNL     1      23.326   8.580  28.212  0.00  0.00    +0.045 C 
ENDROOT
BRANCH  10   9
ATOM      4  C   UNL     1      19.561   3.825  26.234  0.00  0.00    +0.077 A 
ATOM      5  C   UNL     1      19.397   3.909  24.811  0.00  0.00    +0.048 A 
ATOM      6  C   UNL     1      20.284   4.753  24.105  0.00  0.00    +0.116 A 
ATOM      7  N   UNL     1      21.259   5.454  24.781  0.00  0.00    -0.223 NA
ATOM      8  C   UNL     1      21.389   5.351  26.154  0.00  0.00    +0.220 A 
ATOM      9  N   UNL     1      22.367   6.040  26.854  0.00  0.00    -0.283 N 
ATOM     36  H   UNL     1      22.425   5.943  27.867  0.00  0.00    +0.155 HD
ATOM     37  N   UNL     1      20.553   4.553  26.852  0.00  0.00    -0.214 NA
BRANCH   4   3
ATOM      1  C   UNL     1      17.779   2.313  29.371  0.00  0.00    +0.020 A 
ATOM      2  C   UNL     1      18.623   3.162  28.562  0.00  0.00    +0.013 A 
ATOM      3  C   UNL     1      18.704   2.974  27.119  0.00  0.00    +0.019 A 
ATOM     38  C   UNL     1      17.911   1.910  26.521  0.00  0.00    +0.120 A 
ATOM     39  N   UNL     1      17.109   1.107  27.325  0.00  0.00    -0.263 NA
ATOM     40  C   UNL     1      17.024   1.277  28.715  0.00  0.00    +0.111 A 
ENDBRANCH   4   3
ENDBRANCH  10   9
BRANCH  12  13
ATOM     13  N   UNL     1      25.132   6.986  22.827  0.00  0.00    -0.281 N 
ATOM     14  C   UNL     1      24.407   6.945  21.648  0.00  0.00    +0.248 C 
ATOM     30  O   UNL     1      23.187   6.974  21.585  0.00  0.00    -0.270 OA
ATOM     31  H   UNL     1      26.123   6.758  22.753  0.00  0.00    +0.155 HD
BRANCH  14  15
ATOM     15  C   UNL     1      25.143   6.840  20.351  0.00  0.00    +0.037 A 
ATOM     16  C   UNL     1      24.609   6.055  19.235  0.00  0.00    +0.013 A 
ATOM     17  C   UNL     1      25.348   5.957  18.001  0.00  0.00    +0.005 A 
ATOM     18  C   UNL     1      26.629   6.649  17.877  0.00  0.00    -0.033 A 
ATOM     28  C   UNL     1      27.133   7.425  18.998  0.00  0.00    +0.005 A 
ATOM     29  C   UNL     1      26.412   7.522  20.209  0.00  0.00    +0.013 A 
BRANCH  18  19
ATOM     19  C   UNL     1      27.495   6.582  16.605  0.00  0.00    +0.119 C 
BRANCH  19  20
ATOM     20  N   UNL     1      28.660   7.514  16.521  0.00  0.00    -0.302 NA
ATOM     21  C   UNL     1      28.316   8.796  15.757  0.00  0.00    +0.066 C 
ATOM     22  C   UNL     1      29.539   9.768  15.699  0.00  0.00    -0.064 C 
ATOM     23  N   UNL     1      30.725   9.053  15.050  0.00  0.00    +0.379 N 
ATOM     24  C   UNL     1      31.859   9.983  14.941  0.00  0.00    -0.096 C 
ATOM     25  H   UNL     1      30.423   8.765  14.017  0.00  0.00    -0.082 HD
ATOM     26  C   UNL     1      31.072   7.776  15.802  0.00  0.00    -0.064 C 
ATOM     27  C   UNL     1      29.842   6.829  15.880  0.00  0.00    +0.066 C 
ENDBRANCH  19  20
ENDBRANCH  18  19
ENDBRANCH  14  15
ENDBRANCH  12  13
TORSDOF 6
ENDMDL
MODEL 3
REMARK VINA RESULT:      -8.7      1.954      2.997
REMARK  Name = C:\Users\Docking\Desktop\test protocol\1iep_ligandH.pdb
REMARK  8 active torsions:
REMARK  status: ('A' for Active; 'I' for Inactive)
REMARK    1  A    between atoms: _5  and  _11
REMARK    2  A    between atoms: _19  and  _21
REMARK    3  A    between atoms: _22  and  _66
REMARK    4  A    between atoms: _27  and  _30
REMARK    5  A    between atoms: _32  and  _33
REMARK    6  A    between atoms: _38  and  _43
REMARK    7  A    between atoms: _43  and  _46
REMARK    8  A    between atoms: _53  and  _55
REMARK                            x       y       z     vdW  Elec       q    Type
REMARK                         _______ _______ _______ _____ _____    ______ ____
ROOT
ATOM     10  C   UNL     1      23.273   7.221  25.202  0.00  0.00    +0.038 A 
ATOM     11  C   UNL     1      22.325   6.178  25.365  0.00  0.00    +0.047 A 
ATOM     12  C   UNL     1      21.850   5.794  26.685  0.00  0.00    +0.035 A 
ATOM     32  C   UNL     1      22.358   6.495  27.817  0.00  0.00    +0.024 A 
ATOM     33  C   UNL     1      23.322   7.557  27.669  0.00  0.00    +0.007 A 
ATOM     34  C   UNL     1      23.797   7.938  26.370  0.00  0.00    -0.029 A 
ATOM     35  C   UNL     1      24.836   9.079  26.272  0.00  0.00    +0.045 C 
ENDROOT
BRANCH  10   9
ATOM      4  C   UNL     1      24.866   6.019  20.836  0.00  0.00    +0.077 A 
ATOM      5  C   UNL     1      24.884   4.622  21.163  0.00  0.00    +0.048 A 
ATOM      6  C   UNL     1      24.483   4.255  22.467  0.00  0.00    +0.116 A 
ATOM      7  N   UNL     1      24.094   5.222  23.369  0.00  0.00    -0.223 NA
ATOM      8  C   UNL     1      24.090   6.560  23.023  0.00  0.00    +0.220 A 
ATOM      9  N   UNL     1      23.695   7.548  23.911  0.00  0.00    -0.283 N 
ATOM     36  H   UNL     1      23.713   8.525  23.620  0.00  0.00    +0.155 HD
ATOM     37  N   UNL     1      24.470   6.937  21.784  0.00  0.00    -0.214 NA
BRANCH   4   3
ATOM      1  C   UNL     1      26.531   8.166  18.022  0.00  0.00    +0.020 A 
ATOM      2  C   UNL     1      26.184   7.678  19.337  0.00  0.00    +0.013 A 
ATOM      3  C   UNL     1      25.259   6.563  19.498  0.00  0.00    +0.019 A 
ATOM     38  C   UNL     1      24.699   5.959  18.299  0.00  0.00    +0.120 A 
ATOM     39  N   UNL     1      25.051   6.450  17.046  0.00  0.00    -0.263 NA
ATOM     40  C   UNL     1      25.938   7.524  16.878  0.00  0.00    +0.111 A 
ENDBRANCH   4   3
ENDBRANCH  10   9
BRANCH  12  13
ATOM     13  N   UNL     1      20.895   4.738  26.913  0.00  0.00    -0.281 N 
ATOM     14  C   UNL     1      19.515   4.839  26.990  0.00  0.00    +0.248 C 
ATOM     30  O   UNL     1      18.904   5.893  27.087  0.00  0.00    -0.270 OA
ATOM     31  H   UNL     1      21.283   3.802  27.032  0.00  0.00    +0.155 HD
BRANCH  14  15
ATOM     15  C   UNL     1      18.697   3.588  26.971  0.00  0.00    +0.037 A 
ATOM     16  C   UNL     1      18.561   2.788  25.751  0.00  0.00    +0.013 A 
ATOM     17  C   UNL     1      17.752   1.595  25.755  0.00  0.00    +0.005 A 
ATOM     18  C   UNL     1      17.074   1.194  26.986  0.00  0.00    -0.033 A 
ATOM     28  C   UNL     1      17.231   2.003  28.183  0.00  0.00    +0.005 A 
ATOM     29  C   UNL     1      18.022   3.174  28.182  0.00  0.00    +0.013 A 
BRANCH  18  19
ATOM     19  C   UNL     1      16.174  -0.052  27.076  0.00  0.00    +0.119 C 
BRANCH  19  20
ATOM     20  N   UNL     1      16.850  -1.383  27.114  0.00  0.00    -0.302 NA
ATOM     21  C   UNL     1      18.112  -1.362  27.982  0.00  0.00    +0.066 C 
ATOM     22  C   UNL     1      18.794  -2.767  28.029  0.00  0.00    -0.064 C 
ATOM     23  N   UNL     1      19.124  -3.219  26.605  0.00  0.00    +0.379 N 
ATOM     24  C   UNL     1      19.818  -4.514  26.649  0.00  0.00    -0.096 C 
ATOM     25  H   UNL     1      19.827  -2.472  26.168  0.00  0.00    -0.082 HD
ATOM     26  C   UNL     1      17.875  -3.240  25.734  0.00  0.00    -0.064 C 
ATOM     27  C   UNL     1      17.188  -1.846  25.719  0.00  0.00    +0.066 C 
ENDBRANCH  19  20
ENDBRANCH  18  19
ENDBRANCH  14  15
ENDBRANCH  12  13
TORSDOF 6
ENDMDL
