MODEL 1
REMARK VINA RESULT:      -8.6      0.000      0.000
REMARK  Name = C:\Users\Docking\Desktop\test protocol\1iep_ligandH.pdb
REMARK  8 active torsions:
REMARK  status: ('A' for Active; 'I' for Inactive)
REMARK    1  A    between atoms: _5  and  _11
REMARK    2  A    between atoms: _19  and  _21
REMARK    3  A    between atoms: _22  and  _66
REMARK    4  A    between atoms: _27  and  _30
REMARK    5  A    between atoms: _32  and  _33
REMARK    6  A    between atoms: _38  and  _43
REMARK    7  A    between atoms: _43  and  _46
REMARK    8  A    between atoms: _53  and  _55
REMARK                            x       y       z     vdW  Elec       q    Type
REMARK                         _______ _______ _______ _____ _____    ______ ____
ROOT
ATOM     10  C   UNL     1       7.239   5.175  20.311  0.00  0.00    +0.038 A 
ATOM     11  C   UNL     1       7.917   5.025  21.547  0.00  0.00    +0.047 A 
ATOM     12  C   UNL     1       7.699   3.859  22.389  0.00  0.00    +0.035 A 
ATOM     32  C   UNL     1       6.784   2.863  21.939  0.00  0.00    +0.024 A 
ATOM     33  C   UNL     1       6.086   2.999  20.685  0.00  0.00    +0.007 A 
ATOM     34  C   UNL     1       6.295   4.148  19.852  0.00  0.00    -0.029 A 
ATOM     35  C   UNL     1       5.515   4.245  18.520  0.00  0.00    +0.045 C 
ENDROOT
BRANCH  10   9
ATOM      4  C   UNL     1       9.638   7.531  16.886  0.00  0.00    +0.077 A 
ATOM      5  C   UNL     1      10.487   6.405  16.623  0.00  0.00    +0.048 A 
ATOM      6  C   UNL     1      10.279   5.241  17.396  0.00  0.00    +0.116 A 
ATOM      7  N   UNL     1       9.292   5.216  18.357  0.00  0.00    -0.223 NA
ATOM      8  C   UNL     1       8.491   6.320  18.586  0.00  0.00    +0.220 A 
ATOM      9  N   UNL     1       7.487   6.314  19.542  0.00  0.00    -0.283 N 
ATOM     36  H   UNL     1       6.923   7.152  19.686  0.00  0.00    +0.155 HD
ATOM     37  N   UNL     1       8.671   7.444  17.862  0.00  0.00    -0.214 NA
BRANCH   4   3
ATOM      1  C   UNL     1      11.012  10.836  15.309  0.00  0.00    +0.020 A 
ATOM      2  C   UNL     1      10.975   9.586  16.031  0.00  0.00    +0.013 A 
ATOM      3  C   UNL     1       9.733   8.831  16.150  0.00  0.00    +0.019 A 
ATOM     38  C   UNL     1       8.539   9.374  15.520  0.00  0.00    +0.120 A 
ATOM     39  N   UNL     1       8.605  10.581  14.832  0.00  0.00    -0.263 NA
ATOM     40  C   UNL     1       9.794  11.317  14.713  0.00  0.00    +0.111 A 
ENDBRANCH   4   3
ENDBRANCH  10   9
BRANCH  12  13
ATOM     13  N   UNL     1       8.352   3.657  23.659  0.00  0.00    -0.281 N 
ATOM     14  C   UNL     1       9.668   3.933  23.993  0.00  0.00    +0.248 C 
ATOM     30  O   UNL     1      10.545   4.199  23.184  0.00  0.00    -0.270 OA
ATOM     31  H   UNL     1       7.774   3.262  24.401  0.00  0.00    +0.155 HD
BRANCH  14  15
ATOM     15  C   UNL     1      10.071   3.894  25.431  0.00  0.00    +0.037 A 
ATOM     16  C   UNL     1      11.225   4.654  25.918  0.00  0.00    +0.013 A 
ATOM     17  C   UNL     1      11.602   4.586  27.308  0.00  0.00    +0.005 A 
ATOM     18  C   UNL     1      10.823   3.753  28.221  0.00  0.00    -0.033 A 
ATOM     28  C   UNL     1       9.680   3.013  27.712  0.00  0.00    +0.005 A 
ATOM     29  C   UNL     1       9.308   3.077  26.351  0.00  0.00    +0.013 A 
BRANCH  18  19
ATOM     19  C   UNL     1      11.166   3.603  29.715  0.00  0.00    +0.119 C 
BRANCH  19  20
ATOM     20  N   UNL     1      11.846   2.342  30.137  0.00  0.00    -0.302 NA
ATOM     21  C   UNL     1      12.527   1.635  28.962  0.00  0.00    +0.066 C 
ATOM     22  C   UNL     1      13.252   0.330  29.426  0.00  0.00    -0.064 C 
ATOM     23  N   UNL     1      12.242  -0.597  30.105  0.00  0.00    +0.379 N 
ATOM     24  C   UNL     1      12.908  -1.850  30.491  0.00  0.00    -0.096 C 
ATOM     25  H   UNL     1      11.457  -0.849  29.355  0.00  0.00    -0.082 HD
ATOM     26  C   UNL     1      11.559   0.099  31.273  0.00  0.00    -0.064 C 
ATOM     27  C   UNL     1      10.866   1.410  30.807  0.00  0.00    +0.066 C 
ENDBRANCH  19  20
ENDBRANCH  18  19
ENDBRANCH  14  15
ENDBRANCH  12  13
TORSDOF 6
ENDMDL
MODEL 2
REMARK VINA RESULT:      -8.4      1.696     13.228
REMARK  Name = C:\Users\Docking\Desktop\test protocol\1iep_ligandH.pdb
REMARK  8 active torsions:
REMARK  status: ('A' for Active; 'I' for Inactive)
REMARK    1  A    between atoms: _5  and  _11
REMARK    2  A    between atoms: _19  and  _21
REMARK    3  A    between atoms: _22  and  _66
REMARK    4  A    between atoms: _27  and  _30
REMARK    5  A    between atoms: _32  and  _33
REMARK    6  A    between atoms: _38  and  _43
REMARK    7  A    between atoms: _43  and  _46
REMARK    8  A    between atoms: _53  and  _55
REMARK                            x       y       z     vdW  Elec       q    Type
REMARK                         _______ _______ _______ _____ _____    ______ ____
ROOT
ATOM     10  C   UNL     1      10.889   3.412  27.873  0.00  0.00    +0.038 A 
ATOM     11  C   UNL     1      10.606   3.375  26.483  0.00  0.00    +0.047 A 
ATOM     12  C   UNL     1      10.267   4.586  25.752  0.00  0.00    +0.035 A 
ATOM     32  C   UNL     1      10.227   5.819  26.468  0.00  0.00    +0.024 A 
ATOM     33  C   UNL     1      10.511   5.874  27.880  0.00  0.00    +0.007 A 
ATOM     34  C   UNL     1      10.844   4.682  28.607  0.00  0.00    -0.029 A 
ATOM     35  C   UNL     1      11.132   4.800  30.122  0.00  0.00    +0.045 C 
ENDROOT
BRANCH  10   9
ATOM      4  C   UNL     1      14.035   0.078  29.296  0.00  0.00    +0.077 A 
ATOM      5  C   UNL     1      15.130   0.757  28.664  0.00  0.00    +0.048 A 
ATOM      6  C   UNL     1      14.839   1.957  27.977  0.00  0.00    +0.116 A 
ATOM      7  N   UNL     1      13.547   2.434  27.932  0.00  0.00    -0.223 NA
ATOM      8  C   UNL     1      12.514   1.754  28.550  0.00  0.00    +0.220 A 
ATOM      9  N   UNL     1      11.209   2.219  28.525  0.00  0.00    -0.283 N 
ATOM     36  H   UNL     1      10.474   1.684  28.987  0.00  0.00    +0.155 HD
ATOM     37  N   UNL     1      12.765   0.605  29.212  0.00  0.00    -0.214 NA
BRANCH   4   3
ATOM      1  C   UNL     1      15.542  -2.894  31.343  0.00  0.00    +0.020 A 
ATOM      2  C   UNL     1      15.455  -1.653  30.610  0.00  0.00    +0.013 A 
ATOM      3  C   UNL     1      14.182  -1.199  30.062  0.00  0.00    +0.019 A 
ATOM     38  C   UNL     1      13.008  -2.032  30.277  0.00  0.00    +0.120 A 
ATOM     39  N   UNL     1      13.123  -3.224  30.986  0.00  0.00    -0.263 NA
ATOM     40  C   UNL     1      14.343  -3.671  31.516  0.00  0.00    +0.111 A 
ENDBRANCH   4   3
ENDBRANCH  10   9
BRANCH  12  13
ATOM     13  N   UNL     1       9.962   4.609  24.343  0.00  0.00    -0.281 N 
ATOM     14  C   UNL     1       8.806   4.176  23.714  0.00  0.00    +0.248 C 
ATOM     30  O   UNL     1       7.939   3.502  24.250  0.00  0.00    -0.270 OA
ATOM     31  H   UNL     1      10.687   4.992  23.735  0.00  0.00    +0.155 HD
BRANCH  14  15
ATOM     15  C   UNL     1       8.589   4.530  22.279  0.00  0.00    +0.037 A 
ATOM     16  C   UNL     1       7.322   4.234  21.606  0.00  0.00    +0.013 A 
ATOM     17  C   UNL     1       7.144   4.571  20.216  0.00  0.00    +0.005 A 
ATOM     18  C   UNL     1       8.239   5.210  19.489  0.00  0.00    -0.033 A 
ATOM     28  C   UNL     1       9.483   5.497  20.182  0.00  0.00    +0.005 A 
ATOM     29  C   UNL     1       9.661   5.167  21.544  0.00  0.00    +0.013 A 
BRANCH  18  19
ATOM     19  C   UNL     1       8.145   5.585  17.998  0.00  0.00    +0.119 C 
BRANCH  19  20
ATOM     20  N   UNL     1       8.748   6.886  17.581  0.00  0.00    -0.302 NA
ATOM     21  C   UNL     1       7.764   7.746  16.782  0.00  0.00    +0.066 C 
ATOM     22  C   UNL     1       8.404   9.113  16.374  0.00  0.00    -0.064 C 
ATOM     23  N   UNL     1       9.678   8.856  15.567  0.00  0.00    +0.379 N 
ATOM     24  C   UNL     1      10.250  10.138  15.133  0.00  0.00    -0.096 C 
ATOM     25  H   UNL     1       9.390   8.286  14.653  0.00  0.00    -0.082 HD
ATOM     26  C   UNL     1      10.660   8.000  16.354  0.00  0.00    -0.064 C 
ATOM     27  C   UNL     1      10.005   6.656  16.780  0.00  0.00    +0.066 C 
ENDBRANCH  19  20
ENDBRANCH  18  19
ENDBRANCH  14  15
ENDBRANCH  12  13
TORSDOF 6
ENDMDL
MODEL 3
REMARK VINA RESULT:      -8.3      6.032     14.810
REMARK  Name = C:\Users\Docking\Desktop\test protocol\1iep_ligandH.pdb
REMARK  8 active torsions:
REMARK  status: ('A' for Active; 'I' for Inactive)
REMARK    1  A    between atoms: _5  and  _11
REMARK    2  A    between atoms: _19  and  _21
REMARK    3  A    between atoms: _22  and  _66
REMARK    4  A    between atoms: _27  and  _30
REMARK    5  A    between atoms: _32  and  _33
REMARK    6  A    between atoms: _38  and  _43
REMARK    7  A    between atoms: _43  and  _46
REMARK    8  A    between atoms: _53  and  _55
REMARK                            x       y       z     vdW  Elec       q    Type
REMARK                         _______ _______ _______ _____ _____    ______ ____
ROOT
ATOM     10  C   UNL     1      13.610   7.344  19.417  0.00  0.00    +0.038 A 
ATOM     11  C   UNL     1      13.810   7.756  18.074  0.00  0.00    +0.047 A 
ATOM     12  C   UNL     1      14.829   8.736  17.732  0.00  0.00    +0.035 A 
ATOM     32  C   UNL     1      15.628   9.275  18.782  0.00  0.00    +0.024 A 
ATOM     33  C   UNL     1      15.438   8.868  20.152  0.00  0.00    +0.007 A 
ATOM     34  C   UNL     1      14.433   7.903  20.496  0.00  0.00    -0.029 A 
ATOM     35  C   UNL     1      14.268   7.509  21.982  0.00  0.00    +0.045 C 
ENDROOT
BRANCH  10   9
ATOM      4  C   UNL     1       9.109   6.148  20.576  0.00  0.00    +0.077 A 
ATOM      5  C   UNL     1       8.706   7.522  20.675  0.00  0.00    +0.048 A 
ATOM      6  C   UNL     1       9.690   8.505  20.427  0.00  0.00    +0.116 A 
ATOM      7  N   UNL     1      10.977   8.132  20.104  0.00  0.00    -0.223 NA
ATOM      8  C   UNL     1      11.332   6.798  20.019  0.00  0.00    +0.220 A 
ATOM      9  N   UNL     1      12.618   6.399  19.689  0.00  0.00    -0.283 N 
ATOM     36  H   UNL     1      12.842   5.406  19.643  0.00  0.00    +0.155 HD
ATOM     37  N   UNL     1      10.411   5.840  20.253  0.00  0.00    -0.214 NA
BRANCH   4   3
ATOM      1  C   UNL     1       7.445   2.938  22.068  0.00  0.00    +0.020 A 
ATOM      2  C   UNL     1       8.368   4.035  21.889  0.00  0.00    +0.013 A 
ATOM      3  C   UNL     1       8.183   4.994  20.807  0.00  0.00    +0.019 A 
ATOM     38  C   UNL     1       7.046   4.814  19.918  0.00  0.00    +0.120 A 
ATOM     39  N   UNL     1       6.174   3.747  20.114  0.00  0.00    -0.263 NA
ATOM     40  C   UNL     1       6.342   2.817  21.150  0.00  0.00    +0.111 A 
ENDBRANCH   4   3
ENDBRANCH  10   9
BRANCH  12  13
ATOM     13  N   UNL     1      15.072   9.199  16.388  0.00  0.00    -0.281 N 
ATOM     14  C   UNL     1      14.801  10.448  15.855  0.00  0.00    +0.248 C 
ATOM     30  O   UNL     1      14.108  11.296  16.398  0.00  0.00    -0.270 OA
ATOM     31  H   UNL     1      15.496   8.523  15.752  0.00  0.00    +0.155 HD
BRANCH  14  15
ATOM     15  C   UNL     1      15.371  10.803  14.519  0.00  0.00    +0.037 A 
ATOM     16  C   UNL     1      16.453  10.017  13.922  0.00  0.00    +0.013 A 
ATOM     17  C   UNL     1      16.996  10.390  12.640  0.00  0.00    +0.005 A 
ATOM     18  C   UNL     1      16.455  11.556  11.946  0.00  0.00    -0.033 A 
ATOM     28  C   UNL     1      15.377  12.315  12.559  0.00  0.00    +0.005 A 
ATOM     29  C   UNL     1      14.844  11.952  13.816  0.00  0.00    +0.013 A 
BRANCH  18  19
ATOM     19  C   UNL     1      16.987  12.040  10.584  0.00  0.00    +0.119 C 
BRANCH  19  20
ATOM     20  N   UNL     1      16.791  11.135   9.412  0.00  0.00    -0.302 NA
ATOM     21  C   UNL     1      17.481  11.668   8.153  0.00  0.00    +0.066 C 
ATOM     22  C   UNL     1      17.285  10.698   6.943  0.00  0.00    -0.064 C 
ATOM     23  N   UNL     1      15.790  10.493   6.695  0.00  0.00    +0.379 N 
ATOM     24  C   UNL     1      15.601   9.627   5.521  0.00  0.00    -0.096 C 
ATOM     25  H   UNL     1      15.347  11.487   6.456  0.00  0.00    -0.082 HD
ATOM     26  C   UNL     1      15.095   9.966   7.942  0.00  0.00    -0.064 C 
ATOM     27  C   UNL     1      15.321  10.922   9.146  0.00  0.00    +0.066 C 
ENDBRANCH  19  20
ENDBRANCH  18  19
ENDBRANCH  14  15
ENDBRANCH  12  13
TORSDOF 6
ENDMDL
MODEL 4
REMARK VINA RESULT:      -8.2      5.951     15.366
REMARK  Name = C:\Users\Docking\Desktop\test protocol\1iep_ligandH.pdb
REMARK  8 active torsions:
REMARK  status: ('A' for Active; 'I' for Inactive)
REMARK    1  A    between atoms: _5  and  _11
REMARK    2  A    between atoms: _19  and  _21
REMARK    3  A    between atoms: _22  and  _66
REMARK    4  A    between atoms: _27  and  _30
REMARK    5  A    between atoms: _32  and  _33
REMARK    6  A    between atoms: _38  and  _43
REMARK    7  A    between atoms: _43  and  _46
REMARK    8  A    between atoms: _53  and  _55
REMARK                            x       y       z     vdW  Elec       q    Type
REMARK                         _______ _______ _______ _____ _____    ______ ____
ROOT
ATOM     10  C   UNL     1      12.533   7.020  17.574  0.00  0.00    +0.038 A 
ATOM     11  C   UNL     1      12.269   7.432  16.243  0.00  0.00    +0.047 A 
ATOM     12  C   UNL     1      13.135   8.383  15.564  0.00  0.00    +0.035 A 
ATOM     32  C   UNL     1      14.263   8.893  16.270  0.00  0.00    +0.024 A 
ATOM     33  C   UNL     1      14.546   8.486  17.624  0.00  0.00    +0.007 A 
ATOM     34  C   UNL     1      13.694   7.550  18.300  0.00  0.00    -0.029 A 
ATOM     35  C   UNL     1      14.041   7.155  19.754  0.00  0.00    +0.045 C 
ENDROOT
BRANCH  10   9
ATOM      4  C   UNL     1       8.606   5.950  20.119  0.00  0.00    +0.077 A 
ATOM      5  C   UNL     1       8.263   7.334  20.282  0.00  0.00    +0.048 A 
ATOM      6  C   UNL     1       9.127   8.290  19.702  0.00  0.00    +0.116 A 
ATOM      7  N   UNL     1      10.247   7.881  19.012  0.00  0.00    -0.223 NA
ATOM      8  C   UNL     1      10.550   6.539  18.875  0.00  0.00    +0.220 A 
ATOM      9  N   UNL     1      11.668   6.105  18.178  0.00  0.00    -0.283 N 
ATOM     36  H   UNL     1      11.861   5.106  18.106  0.00  0.00    +0.155 HD
ATOM     37  N   UNL     1       9.742   5.607  19.421  0.00  0.00    -0.214 NA
BRANCH   4   3
ATOM      1  C   UNL     1       7.261   3.103  22.439  0.00  0.00    +0.020 A 
ATOM      2  C   UNL     1       8.080   4.189  21.951  0.00  0.00    +0.013 A 
ATOM      3  C   UNL     1       7.791   4.823  20.671  0.00  0.00    +0.019 A 
ATOM     38  C   UNL     1       6.656   4.331  19.903  0.00  0.00    +0.120 A 
ATOM     39  N   UNL     1       5.886   3.283  20.398  0.00  0.00    -0.263 NA
ATOM     40  C   UNL     1       6.156   2.664  21.628  0.00  0.00    +0.111 A 
ENDBRANCH   4   3
ENDBRANCH  10   9
BRANCH  12  13
ATOM     13  N   UNL     1      12.913   8.844  14.216  0.00  0.00    -0.281 N 
ATOM     14  C   UNL     1      13.442   9.967  13.602  0.00  0.00    +0.248 C 
ATOM     30  O   UNL     1      14.023  10.867  14.190  0.00  0.00    -0.270 OA
ATOM     31  H   UNL     1      12.289   8.273  13.645  0.00  0.00    +0.155 HD
BRANCH  14  15
ATOM     15  C   UNL     1      13.293  10.119  12.122  0.00  0.00    +0.037 A 
ATOM     16  C   UNL     1      13.094  11.435  11.510  0.00  0.00    +0.013 A 
ATOM     17  C   UNL     1      12.935  11.552  10.082  0.00  0.00    +0.005 A 
ATOM     18  C   UNL     1      12.977  10.348   9.256  0.00  0.00    -0.033 A 
ATOM     28  C   UNL     1      13.181   9.055   9.889  0.00  0.00    +0.005 A 
ATOM     29  C   UNL     1      13.336   8.937  11.288  0.00  0.00    +0.013 A 
BRANCH  18  19
ATOM     19  C   UNL     1      12.796  10.376   7.727  0.00  0.00    +0.119 C 
BRANCH  19  20
ATOM     20  N   UNL     1      14.034  10.379   6.891  0.00  0.00    -0.302 NA
ATOM     21  C   UNL     1      14.147   9.121   6.026  0.00  0.00    +0.066 C 
ATOM     22  C   UNL     1      15.436   9.152   5.142  0.00  0.00    -0.064 C 
ATOM     23  N   UNL     1      16.664   9.303   6.041  0.00  0.00    +0.379 N 
ATOM     24  C   UNL     1      17.882   9.274   5.218  0.00  0.00    -0.096 C 
ATOM     25  H   UNL     1      16.695   8.420   6.722  0.00  0.00    -0.082 HD
ATOM     26  C   UNL     1      16.559  10.550   6.908  0.00  0.00    -0.064 C 
ATOM     27  C   UNL     1      15.259  10.523   7.760  0.00  0.00    +0.066 C 
ENDBRANCH  19  20
ENDBRANCH  18  19
ENDBRANCH  14  15
ENDBRANCH  12  13
TORSDOF 6
ENDMDL
MODEL 5
REMARK VINA RESULT:      -8.1      3.282     12.917
REMARK  Name = C:\Users\Docking\Desktop\test protocol\1iep_ligandH.pdb
REMARK  8 active torsions:
REMARK  status: ('A' for Active; 'I' for Inactive)
REMARK    1  A    between atoms: _5  and  _11
REMARK    2  A    between atoms: _19  and  _21
REMARK    3  A    between atoms: _22  and  _66
REMARK    4  A    between atoms: _27  and  _30
REMARK    5  A    between atoms: _32  and  _33
REMARK    6  A    between atoms: _38  and  _43
REMARK    7  A    between atoms: _43  and  _46
REMARK    8  A    between atoms: _53  and  _55
REMARK                            x       y       z     vdW  Elec       q    Type
REMARK                         _______ _______ _______ _____ _____    ______ ____
ROOT
ATOM     10  C   UNL     1      13.740   4.819  26.591  0.00  0.00    +0.038 A 
ATOM     11  C   UNL     1      12.738   4.464  25.652  0.00  0.00    +0.047 A 
ATOM     12  C   UNL     1      11.942   5.479  24.981  0.00  0.00    +0.035 A 
ATOM     32  C   UNL     1      12.195   6.848  25.288  0.00  0.00    +0.024 A 
ATOM     33  C   UNL     1      13.209   7.227  26.240  0.00  0.00    +0.007 A 
ATOM     34  C   UNL     1      13.995   6.229  26.907  0.00  0.00    -0.029 A 
ATOM     35  C   UNL     1      15.064   6.693  27.924  0.00  0.00    +0.045 C 
ENDROOT
BRANCH  10   9
ATOM      4  C   UNL     1      14.097   1.027  29.511  0.00  0.00    +0.077 A 
ATOM      5  C   UNL     1      12.708   1.092  29.863  0.00  0.00    +0.048 A 
ATOM      6  C   UNL     1      11.938   2.121  29.275  0.00  0.00    +0.116 A 
ATOM      7  N   UNL     1      12.524   3.012  28.403  0.00  0.00    -0.223 NA
ATOM      8  C   UNL     1      13.867   2.922  28.087  0.00  0.00    +0.220 A 
ATOM      9  N   UNL     1      14.475   3.803  27.206  0.00  0.00    -0.283 N 
ATOM     36  H   UNL     1      15.470   3.708  27.004  0.00  0.00    +0.155 HD
ATOM     37  N   UNL     1      14.624   1.950  28.635  0.00  0.00    -0.214 NA
BRANCH   4   3
ATOM      1  C   UNL     1      15.598  -2.344  30.809  0.00  0.00    +0.020 A 
ATOM      2  C   UNL     1      14.648  -1.387  30.291  0.00  0.00    +0.013 A 
ATOM      3  C   UNL     1      15.041  -0.005  30.047  0.00  0.00    +0.019 A 
ATOM     38  C   UNL     1      16.414   0.379  30.337  0.00  0.00    +0.120 A 
ATOM     39  N   UNL     1      17.307  -0.565  30.836  0.00  0.00    -0.263 NA
ATOM     40  C   UNL     1      16.940  -1.897  31.077  0.00  0.00    +0.111 A 
ENDBRANCH   4   3
ENDBRANCH  10   9
BRANCH  12  13
ATOM     13  N   UNL     1      10.905   5.178  24.025  0.00  0.00    -0.281 N 
ATOM     14  C   UNL     1       9.769   4.409  24.214  0.00  0.00    +0.248 C 
ATOM     30  O   UNL     1       9.578   3.684  25.179  0.00  0.00    -0.270 OA
ATOM     31  H   UNL     1      11.024   5.581  23.095  0.00  0.00    +0.155 HD
BRANCH  14  15
ATOM     15  C   UNL     1       8.695   4.439  23.175  0.00  0.00    +0.037 A 
ATOM     16  C   UNL     1       7.802   3.296  22.972  0.00  0.00    +0.013 A 
ATOM     17  C   UNL     1       6.785   3.345  21.951  0.00  0.00    +0.005 A 
ATOM     18  C   UNL     1       6.656   4.543  21.126  0.00  0.00    -0.033 A 
ATOM     28  C   UNL     1       7.551   5.665  21.353  0.00  0.00    +0.005 A 
ATOM     29  C   UNL     1       8.550   5.621  22.352  0.00  0.00    +0.013 A 
BRANCH  18  19
ATOM     19  C   UNL     1       5.613   4.675  20.000  0.00  0.00    +0.119 C 
BRANCH  19  20
ATOM     20  N   UNL     1       6.118   4.653  18.595  0.00  0.00    -0.302 NA
ATOM     21  C   UNL     1       5.584   5.830  17.774  0.00  0.00    +0.066 C 
ATOM     22  C   UNL     1       6.140   5.804  16.313  0.00  0.00    -0.064 C 
ATOM     23  N   UNL     1       5.774   4.473  15.654  0.00  0.00    +0.379 N 
ATOM     24  C   UNL     1       6.245   4.468  14.261  0.00  0.00    -0.096 C 
ATOM     25  H   UNL     1       4.661   4.400  15.635  0.00  0.00    -0.082 HD
ATOM     26  C   UNL     1       6.299   3.297  16.466  0.00  0.00    -0.064 C 
ATOM     27  C   UNL     1       5.764   3.349  17.924  0.00  0.00    +0.066 C 
ENDBRANCH  19  20
ENDBRANCH  18  19
ENDBRANCH  14  15
ENDBRANCH  12  13
TORSDOF 6
ENDMDL
