MODEL 1
REMARK VINA RESULT:     -11.0      0.000      0.000
REMARK  Name = C:\Users\Docking\Desktop\test protocol\1iep_ligandH.pdb
REMARK  8 active torsions:
REMARK  status: ('A' for Active; 'I' for Inactive)
REMARK    1  A    between atoms: _5  and  _11
REMARK    2  A    between atoms: _19  and  _21
REMARK    3  A    between atoms: _22  and  _66
REMARK    4  A    between atoms: _27  and  _30
REMARK    5  A    between atoms: _32  and  _33
REMARK    6  A    between atoms: _38  and  _43
REMARK    7  A    between atoms: _43  and  _46
REMARK    8  A    between atoms: _53  and  _55
REMARK                            x       y       z     vdW  Elec       q    Type
REMARK                         _______ _______ _______ _____ _____    ______ ____
ROOT
ATOM     10  C   UNL     1      69.687  36.575  86.818  0.00  0.00    +0.038 A 
ATOM     11  C   UNL     1      68.750  36.640  87.880  0.00  0.00    +0.047 A 
ATOM     12  C   UNL     1      67.391  36.149  87.715  0.00  0.00    +0.035 A 
ATOM     32  C   UNL     1      67.021  35.594  86.456  0.00  0.00    +0.024 A 
ATOM     33  C   UNL     1      67.961  35.520  85.365  0.00  0.00    +0.007 A 
ATOM     34  C   UNL     1      69.302  36.006  85.521  0.00  0.00    -0.029 A 
ATOM     35  C   UNL     1      70.265  35.907  84.315  0.00  0.00    +0.045 C 
ENDROOT
BRANCH  10   9
ATOM      4  C   UNL     1      74.330  35.943  87.859  0.00  0.00    +0.077 A 
ATOM      5  C   UNL     1      74.163  34.527  88.018  0.00  0.00    +0.048 A 
ATOM      6  C   UNL     1      72.864  34.002  87.830  0.00  0.00    +0.116 A 
ATOM      7  N   UNL     1      71.819  34.840  87.507  0.00  0.00    -0.223 NA
ATOM      8  C   UNL     1      72.014  36.201  87.363  0.00  0.00    +0.220 A 
ATOM      9  N   UNL     1      70.979  37.061  87.031  0.00  0.00    -0.283 N 
ATOM     36  H   UNL     1      71.162  38.060  86.941  0.00  0.00    +0.155 HD
ATOM     37  N   UNL     1      73.244  36.727  87.539  0.00  0.00    -0.214 NA
BRANCH   4   3
ATOM      1  C   UNL     1      77.560  37.506  89.416  0.00  0.00    +0.020 A 
ATOM      2  C   UNL     1      76.293  36.818  89.314  0.00  0.00    +0.013 A 
ATOM      3  C   UNL     1      75.641  36.647  88.022  0.00  0.00    +0.019 A 
ATOM     38  C   UNL     1      76.303  37.187  86.843  0.00  0.00    +0.120 A 
ATOM     39  N   UNL     1      77.522  37.845  86.972  0.00  0.00    -0.263 NA
ATOM     40  C   UNL     1      78.158  38.018  88.211  0.00  0.00    +0.111 A 
ENDBRANCH   4   3
ENDBRANCH  10   9
BRANCH  12  13
ATOM     13  N   UNL     1      66.393  36.196  88.755  0.00  0.00    -0.281 N 
ATOM     14  C   UNL     1      65.563  37.254  89.092  0.00  0.00    +0.248 C 
ATOM     30  O   UNL     1      65.702  38.398  88.685  0.00  0.00    -0.270 OA
ATOM     31  H   UNL     1      66.285  35.348  89.311  0.00  0.00    +0.155 HD
BRANCH  14  15
ATOM     15  C   UNL     1      64.423  37.007  90.026  0.00  0.00    +0.037 A 
ATOM     16  C   UNL     1      64.525  37.330  91.451  0.00  0.00    +0.013 A 
ATOM     17  C   UNL     1      63.415  37.067  92.334  0.00  0.00    +0.005 A 
ATOM     18  C   UNL     1      62.193  36.478  91.791  0.00  0.00    -0.033 A 
ATOM     28  C   UNL     1      62.117  36.173  90.372  0.00  0.00    +0.005 A 
ATOM     29  C   UNL     1      63.203  36.429  89.505  0.00  0.00    +0.013 A 
BRANCH  18  19
ATOM     19  C   UNL     1      60.968  36.144  92.663  0.00  0.00    +0.119 C 
BRANCH  19  20
ATOM     20  N   UNL     1      60.156  34.953  92.273  0.00  0.00    -0.302 NA
ATOM     21  C   UNL     1      58.672  35.137  92.599  0.00  0.00    +0.066 C 
ATOM     22  C   UNL     1      57.834  33.891  92.164  0.00  0.00    -0.064 C 
ATOM     23  N   UNL     1      58.388  32.642  92.851  0.00  0.00    +0.379 N 
ATOM     24  C   UNL     1      57.567  31.477  92.490  0.00  0.00    -0.096 C 
ATOM     25  H   UNL     1      58.296  32.792  93.952  0.00  0.00    -0.082 HD
ATOM     26  C   UNL     1      59.865  32.452  92.534  0.00  0.00    -0.064 C 
ATOM     27  C   UNL     1      60.684  33.708  92.943  0.00  0.00    +0.066 C 
ENDBRANCH  19  20
ENDBRANCH  18  19
ENDBRANCH  14  15
ENDBRANCH  12  13
TORSDOF 6
ENDMDL
MODEL 2
REMARK VINA RESULT:     -11.0      2.461      4.593
REMARK  Name = C:\Users\Docking\Desktop\test protocol\1iep_ligandH.pdb
REMARK  8 active torsions:
REMARK  status: ('A' for Active; 'I' for Inactive)
REMARK    1  A    between atoms: _5  and  _11
REMARK    2  A    between atoms: _19  and  _21
REMARK    3  A    between atoms: _22  and  _66
REMARK    4  A    between atoms: _27  and  _30
REMARK    5  A    between atoms: _32  and  _33
REMARK    6  A    between atoms: _38  and  _43
REMARK    7  A    between atoms: _43  and  _46
REMARK    8  A    between atoms: _53  and  _55
REMARK                            x       y       z     vdW  Elec       q    Type
REMARK                         _______ _______ _______ _____ _____    ______ ____
ROOT
ATOM     10  C   UNL     1      69.996  36.989  88.231  0.00  0.00    +0.038 A 
ATOM     11  C   UNL     1      68.653  37.161  88.651  0.00  0.00    +0.047 A 
ATOM     12  C   UNL     1      68.226  36.776  89.987  0.00  0.00    +0.035 A 
ATOM     32  C   UNL     1      69.196  36.221  90.872  0.00  0.00    +0.024 A 
ATOM     33  C   UNL     1      70.566  36.038  90.462  0.00  0.00    +0.007 A 
ATOM     34  C   UNL     1      70.992  36.413  89.144  0.00  0.00    -0.029 A 
ATOM     35  C   UNL     1      72.472  36.188  88.757  0.00  0.00    +0.045 C 
ENDROOT
BRANCH  10   9
ATOM      4  C   UNL     1      70.233  36.221  83.499  0.00  0.00    +0.077 A 
ATOM      5  C   UNL     1      69.623  34.928  83.619  0.00  0.00    +0.048 A 
ATOM      6  C   UNL     1      69.269  34.495  84.916  0.00  0.00    +0.116 A 
ATOM      7  N   UNL     1      69.513  35.303  86.006  0.00  0.00    -0.223 NA
ATOM      8  C   UNL     1      70.104  36.543  85.856  0.00  0.00    +0.220 A 
ATOM      9  N   UNL     1      70.351  37.376  86.937  0.00  0.00    -0.283 N 
ATOM     36  H   UNL     1      70.796  38.280  86.786  0.00  0.00    +0.155 HD
ATOM     37  N   UNL     1      70.453  36.979  84.628  0.00  0.00    -0.214 NA
BRANCH   4   3
ATOM      1  C   UNL     1      72.162  38.281  80.791  0.00  0.00    +0.020 A 
ATOM      2  C   UNL     1      71.791  37.730  82.074  0.00  0.00    +0.013 A 
ATOM      3  C   UNL     1      70.660  36.820  82.195  0.00  0.00    +0.019 A 
ATOM     38  C   UNL     1      69.919  36.483  80.989  0.00  0.00    +0.120 A 
ATOM     39  N   UNL     1      70.299  37.029  79.767  0.00  0.00    -0.263 NA
ATOM     40  C   UNL     1      71.385  37.908  79.638  0.00  0.00    +0.111 A 
ENDBRANCH   4   3
ENDBRANCH  10   9
BRANCH  12  13
ATOM     13  N   UNL     1      66.874  36.920  90.466  0.00  0.00    -0.281 N 
ATOM     14  C   UNL     1      65.703  36.919  89.725  0.00  0.00    +0.248 C 
ATOM     30  O   UNL     1      65.656  37.009  88.507  0.00  0.00    -0.270 OA
ATOM     31  H   UNL     1      66.766  37.036  91.474  0.00  0.00    +0.155 HD
BRANCH  14  15
ATOM     15  C   UNL     1      64.395  36.819  90.441  0.00  0.00    +0.037 A 
ATOM     16  C   UNL     1      64.236  37.324  91.807  0.00  0.00    +0.013 A 
ATOM     17  C   UNL     1      62.968  37.199  92.481  0.00  0.00    +0.005 A 
ATOM     18  C   UNL     1      61.848  36.566  91.788  0.00  0.00    -0.033 A 
ATOM     28  C   UNL     1      62.032  36.078  90.432  0.00  0.00    +0.005 A 
ATOM     29  C   UNL     1      63.274  36.198  89.768  0.00  0.00    +0.013 A 
BRANCH  18  19
ATOM     19  C   UNL     1      60.465  36.371  92.438  0.00  0.00    +0.119 C 
BRANCH  19  20
ATOM     20  N   UNL     1      59.768  35.075  92.187  0.00  0.00    -0.302 NA
ATOM     21  C   UNL     1      58.322  35.093  92.691  0.00  0.00    +0.066 C 
ATOM     22  C   UNL     1      57.601  33.736  92.400  0.00  0.00    -0.064 C 
ATOM     23  N   UNL     1      58.387  32.595  93.048  0.00  0.00    +0.379 N 
ATOM     24  C   UNL     1      57.680  31.325  92.825  0.00  0.00    -0.096 C 
ATOM     25  H   UNL     1      58.409  32.781  94.147  0.00  0.00    -0.082 HD
ATOM     26  C   UNL     1      59.826  32.572  92.554  0.00  0.00    -0.064 C 
ATOM     27  C   UNL     1      60.525  33.934  92.822  0.00  0.00    +0.066 C 
ENDBRANCH  19  20
ENDBRANCH  18  19
ENDBRANCH  14  15
ENDBRANCH  12  13
TORSDOF 6
ENDMDL
MODEL 3
REMARK VINA RESULT:     -10.5      6.670      8.257
REMARK  Name = C:\Users\Docking\Desktop\test protocol\1iep_ligandH.pdb
REMARK  8 active torsions:
REMARK  status: ('A' for Active; 'I' for Inactive)
REMARK    1  A    between atoms: _5  and  _11
REMARK    2  A    between atoms: _19  and  _21
REMARK    3  A    between atoms: _22  and  _66
REMARK    4  A    between atoms: _27  and  _30
REMARK    5  A    between atoms: _32  and  _33
REMARK    6  A    between atoms: _38  and  _43
REMARK    7  A    between atoms: _43  and  _46
REMARK    8  A    between atoms: _53  and  _55
REMARK                            x       y       z     vdW  Elec       q    Type
REMARK                         _______ _______ _______ _____ _____    ______ ____
ROOT
ATOM     10  C   UNL     1      73.859  33.991  93.138  0.00  0.00    +0.038 A 
ATOM     11  C   UNL     1      72.594  34.601  92.939  0.00  0.00    +0.047 A 
ATOM     12  C   UNL     1      72.029  34.746  91.607  0.00  0.00    +0.035 A 
ATOM     32  C   UNL     1      72.780  34.256  90.498  0.00  0.00    +0.024 A 
ATOM     33  C   UNL     1      74.068  33.634  90.682  0.00  0.00    +0.007 A 
ATOM     34  C   UNL     1      74.630  33.490  91.994  0.00  0.00    -0.029 A 
ATOM     35  C   UNL     1      76.018  32.821  92.131  0.00  0.00    +0.045 C 
ENDROOT
BRANCH  10   9
ATOM      4  C   UNL     1      74.317  31.649  97.302  0.00  0.00    +0.077 A 
ATOM      5  C   UNL     1      73.479  30.573  96.857  0.00  0.00    +0.048 A 
ATOM      6  C   UNL     1      72.944  30.664  95.553  0.00  0.00    +0.116 A 
ATOM      7  N   UNL     1      73.233  31.754  94.761  0.00  0.00    -0.223 NA
ATOM      8  C   UNL     1      74.043  32.775  95.221  0.00  0.00    +0.220 A 
ATOM      9  N   UNL     1      74.353  33.877  94.439  0.00  0.00    -0.283 N 
ATOM     36  H   UNL     1      74.948  34.613  94.819  0.00  0.00    +0.155 HD
ATOM     37  N   UNL     1      74.565  32.713  96.464  0.00  0.00    -0.214 NA
BRANCH   4   3
ATOM      1  C   UNL     1      76.503  30.785 100.429  0.00  0.00    +0.020 A 
ATOM      2  C   UNL     1      75.911  30.693  99.114  0.00  0.00    +0.013 A 
ATOM      3  C   UNL     1      74.959  31.696  98.654  0.00  0.00    +0.019 A 
ATOM     38  C   UNL     1      74.624  32.788  99.556  0.00  0.00    +0.120 A 
ATOM     39  N   UNL     1      75.209  32.850 100.817  0.00  0.00    -0.263 NA
ATOM     40  C   UNL     1      76.125  31.890 101.271  0.00  0.00    +0.111 A 
ENDBRANCH   4   3
ENDBRANCH  10   9
BRANCH  12  13
ATOM     13  N   UNL     1      70.754  35.364  91.343  0.00  0.00    -0.281 N 
ATOM     14  C   UNL     1      70.441  36.283  90.354  0.00  0.00    +0.248 C 
ATOM     30  O   UNL     1      71.266  36.877  89.677  0.00  0.00    -0.270 OA
ATOM     31  H   UNL     1      69.988  35.091  91.959  0.00  0.00    +0.155 HD
BRANCH  14  15
ATOM     15  C   UNL     1      69.004  36.597  90.090  0.00  0.00    +0.037 A 
ATOM     16  C   UNL     1      68.524  36.878  88.734  0.00  0.00    +0.013 A 
ATOM     17  C   UNL     1      67.136  37.195  88.509  0.00  0.00    +0.005 A 
ATOM     18  C   UNL     1      66.217  37.232  89.644  0.00  0.00    -0.033 A 
ATOM     28  C   UNL     1      66.718  36.945  90.978  0.00  0.00    +0.005 A 
ATOM     29  C   UNL     1      68.078  36.634  91.202  0.00  0.00    +0.013 A 
BRANCH  18  19
ATOM     19  C   UNL     1      64.724  37.583  89.500  0.00  0.00    +0.119 C 
BRANCH  19  20
ATOM     20  N   UNL     1      63.774  36.931  90.450  0.00  0.00    -0.302 NA
ATOM     21  C   UNL     1      62.560  36.335  89.731  0.00  0.00    +0.066 C 
ATOM     22  C   UNL     1      61.588  35.638  90.738  0.00  0.00    -0.064 C 
ATOM     23  N   UNL     1      61.147  36.647  91.799  0.00  0.00    +0.379 N 
ATOM     24  C   UNL     1      60.188  36.011  92.713  0.00  0.00    -0.096 C 
ATOM     25  H   UNL     1      60.617  37.477  91.277  0.00  0.00    -0.082 HD
ATOM     26  C   UNL     1      62.348  37.247  92.517  0.00  0.00    -0.064 C 
ATOM     27  C   UNL     1      63.323  37.911  91.505  0.00  0.00    +0.066 C 
ENDBRANCH  19  20
ENDBRANCH  18  19
ENDBRANCH  14  15
ENDBRANCH  12  13
TORSDOF 6
ENDMDL
