MODEL 1
REMARK VINA RESULT:     -12.0      0.000      0.000
REMARK  Name = C:\Users\Docking\Desktop\test protocol\1iep_ligandH.pdb
REMARK  8 active torsions:
REMARK  status: ('A' for Active; 'I' for Inactive)
REMARK    1  A    between atoms: _5  and  _11
REMARK    2  A    between atoms: _19  and  _21
REMARK    3  A    between atoms: _22  and  _66
REMARK    4  A    between atoms: _27  and  _30
REMARK    5  A    between atoms: _32  and  _33
REMARK    6  A    between atoms: _38  and  _43
REMARK    7  A    between atoms: _43  and  _46
REMARK    8  A    between atoms: _53  and  _55
REMARK                            x       y       z     vdW  Elec       q    Type
REMARK                         _______ _______ _______ _____ _____    ______ ____
ROOT
ATOM     10  C   UNL     1      62.283  35.620  93.104  0.00  0.00    +0.038 A 
ATOM     11  C   UNL     1      63.530  35.844  92.467  0.00  0.00    +0.047 A 
ATOM     12  C   UNL     1      63.865  37.143  91.904  0.00  0.00    +0.035 A 
ATOM     32  C   UNL     1      62.906  38.193  92.011  0.00  0.00    +0.024 A 
ATOM     33  C   UNL     1      61.633  37.982  92.655  0.00  0.00    +0.007 A 
ATOM     34  C   UNL     1      61.297  36.702  93.209  0.00  0.00    -0.029 A 
ATOM     35  C   UNL     1      59.915  36.531  93.882  0.00  0.00    +0.045 C 
ENDROOT
BRANCH  10   9
ATOM      4  C   UNL     1      59.672  31.598  93.322  0.00  0.00    +0.077 A 
ATOM      5  C   UNL     1      58.750  32.072  92.331  0.00  0.00    +0.048 A 
ATOM      6  C   UNL     1      58.979  33.359  91.795  0.00  0.00    +0.116 A 
ATOM      7  N   UNL     1      60.054  34.107  92.225  0.00  0.00    -0.223 NA
ATOM      8  C   UNL     1      60.923  33.621  93.184  0.00  0.00    +0.220 A 
ATOM      9  N   UNL     1      62.014  34.353  93.626  0.00  0.00    -0.283 N 
ATOM     36  H   UNL     1      62.627  33.961  94.341  0.00  0.00    +0.155 HD
ATOM     37  N   UNL     1      60.725  32.395  93.713  0.00  0.00    -0.214 NA
BRANCH   4   3
ATOM      1  C   UNL     1      60.187  27.823  94.208  0.00  0.00    +0.020 A 
ATOM      2  C   UNL     1      60.326  29.095  93.538  0.00  0.00    +0.013 A 
ATOM      3  C   UNL     1      59.566  30.257  93.980  0.00  0.00    +0.019 A 
ATOM     38  C   UNL     1      58.667  30.098  95.113  0.00  0.00    +0.120 A 
ATOM     39  N   UNL     1      58.552  28.860  95.738  0.00  0.00    -0.263 NA
ATOM     40  C   UNL     1      59.278  27.734  95.320  0.00  0.00    +0.111 A 
ENDBRANCH   4   3
ENDBRANCH  10   9
BRANCH  12  13
ATOM     13  N   UNL     1      65.111  37.428  91.239  0.00  0.00    -0.281 N 
ATOM     14  C   UNL     1      65.378  37.395  89.880  0.00  0.00    +0.248 C 
ATOM     30  O   UNL     1      64.636  36.905  89.041  0.00  0.00    -0.270 OA
ATOM     31  H   UNL     1      65.892  37.685  91.843  0.00  0.00    +0.155 HD
BRANCH  14  15
ATOM     15  C   UNL     1      66.662  37.977  89.381  0.00  0.00    +0.037 A 
ATOM     16  C   UNL     1      67.622  37.167  88.628  0.00  0.00    +0.013 A 
ATOM     17  C   UNL     1      68.860  37.749  88.173  0.00  0.00    +0.005 A 
ATOM     18  C   UNL     1      69.144  39.151  88.471  0.00  0.00    -0.033 A 
ATOM     28  C   UNL     1      68.171  39.933  89.216  0.00  0.00    +0.005 A 
ATOM     29  C   UNL     1      66.957  39.366  89.664  0.00  0.00    +0.013 A 
BRANCH  18  19
ATOM     19  C   UNL     1      70.449  39.849  88.044  0.00  0.00    +0.119 C 
BRANCH  19  20
ATOM     20  N   UNL     1      71.356  39.099  87.126  0.00  0.00    -0.302 NA
ATOM     21  C   UNL     1      72.046  37.928  87.830  0.00  0.00    +0.066 C 
ATOM     22  C   UNL     1      72.975  37.140  86.850  0.00  0.00    -0.064 C 
ATOM     23  N   UNL     1      74.008  38.097  86.251  0.00  0.00    +0.379 N 
ATOM     24  C   UNL     1      74.919  37.348  85.373  0.00  0.00    -0.096 C 
ATOM     25  H   UNL     1      74.612  38.510  87.092  0.00  0.00    -0.082 HD
ATOM     26  C   UNL     1      73.330  39.266  85.551  0.00  0.00    -0.064 C 
ATOM     27  C   UNL     1      72.387  40.024  86.526  0.00  0.00    +0.066 C 
ENDBRANCH  19  20
ENDBRANCH  18  19
ENDBRANCH  14  15
ENDBRANCH  12  13
TORSDOF 6
ENDMDL
MODEL 2
REMARK VINA RESULT:     -11.7      3.187     12.739
REMARK  Name = C:\Users\Docking\Desktop\test protocol\1iep_ligandH.pdb
REMARK  8 active torsions:
REMARK  status: ('A' for Active; 'I' for Inactive)
REMARK    1  A    between atoms: _5  and  _11
REMARK    2  A    between atoms: _19  and  _21
REMARK    3  A    between atoms: _22  and  _66
REMARK    4  A    between atoms: _27  and  _30
REMARK    5  A    between atoms: _32  and  _33
REMARK    6  A    between atoms: _38  and  _43
REMARK    7  A    between atoms: _43  and  _46
REMARK    8  A    between atoms: _53  and  _55
REMARK                            x       y       z     vdW  Elec       q    Type
REMARK                         _______ _______ _______ _____ _____    ______ ____
ROOT
ATOM     10  C   UNL     1      70.510  37.194  87.346  0.00  0.00    +0.038 A 
ATOM     11  C   UNL     1      69.263  37.009  87.996  0.00  0.00    +0.047 A 
ATOM     12  C   UNL     1      68.560  38.125  88.608  0.00  0.00    +0.035 A 
ATOM     32  C   UNL     1      69.155  39.419  88.537  0.00  0.00    +0.024 A 
ATOM     33  C   UNL     1      70.423  39.625  87.882  0.00  0.00    +0.007 A 
ATOM     34  C   UNL     1      71.122  38.527  87.279  0.00  0.00    -0.029 A 
ATOM     35  C   UNL     1      72.481  38.806  86.595  0.00  0.00    +0.045 C 
ENDROOT
BRANCH  10   9
ATOM      4  C   UNL     1      73.580  33.509  87.534  0.00  0.00    +0.077 A 
ATOM      5  C   UNL     1      73.979  33.833  88.873  0.00  0.00    +0.048 A 
ATOM      6  C   UNL     1      73.376  34.960  89.475  0.00  0.00    +0.116 A 
ATOM      7  N   UNL     1      72.444  35.700  88.781  0.00  0.00    -0.223 NA
ATOM      8  C   UNL     1      72.083  35.361  87.490  0.00  0.00    +0.220 A 
ATOM      9  N   UNL     1      71.142  36.087  86.775  0.00  0.00    -0.283 N 
ATOM     36  H   UNL     1      70.908  35.809  85.822  0.00  0.00    +0.155 HD
ATOM     37  N   UNL     1      72.645  34.291  86.892  0.00  0.00    -0.214 NA
BRANCH   4   3
ATOM      1  C   UNL     1      74.127  29.916  86.088  0.00  0.00    +0.020 A 
ATOM      2  C   UNL     1      73.563  31.004  86.854  0.00  0.00    +0.013 A 
ATOM      3  C   UNL     1      74.124  32.346  86.764  0.00  0.00    +0.019 A 
ATOM     38  C   UNL     1      75.264  32.555  85.883  0.00  0.00    +0.120 A 
ATOM     39  N   UNL     1      75.786  31.488  85.160  0.00  0.00    -0.263 NA
ATOM     40  C   UNL     1      75.255  30.191  85.239  0.00  0.00    +0.111 A 
ENDBRANCH   4   3
ENDBRANCH  10   9
BRANCH  12  13
ATOM     13  N   UNL     1      67.295  37.996  89.288  0.00  0.00    -0.281 N 
ATOM     14  C   UNL     1      66.250  37.138  88.987  0.00  0.00    +0.248 C 
ATOM     30  O   UNL     1      66.160  36.496  87.951  0.00  0.00    -0.270 OA
ATOM     31  H   UNL     1      67.153  38.613  90.088  0.00  0.00    +0.155 HD
BRANCH  14  15
ATOM     15  C   UNL     1      65.139  36.981  89.973  0.00  0.00    +0.037 A 
ATOM     16  C   UNL     1      63.743  36.889  89.537  0.00  0.00    +0.013 A 
ATOM     17  C   UNL     1      62.688  36.755  90.510  0.00  0.00    +0.005 A 
ATOM     18  C   UNL     1      63.026  36.710  91.931  0.00  0.00    -0.033 A 
ATOM     28  C   UNL     1      64.419  36.799  92.336  0.00  0.00    +0.005 A 
ATOM     29  C   UNL     1      65.456  36.931  91.385  0.00  0.00    +0.013 A 
BRANCH  18  19
ATOM     19  C   UNL     1      61.964  36.590  93.040  0.00  0.00    +0.119 C 
BRANCH  19  20
ATOM     20  N   UNL     1      60.845  35.627  92.813  0.00  0.00    -0.302 NA
ATOM     21  C   UNL     1      59.530  36.120  93.425  0.00  0.00    +0.066 C 
ATOM     22  C   UNL     1      58.366  35.111  93.159  0.00  0.00    -0.064 C 
ATOM     23  N   UNL     1      58.744  33.740  93.722  0.00  0.00    +0.379 N 
ATOM     24  C   UNL     1      57.628  32.804  93.525  0.00  0.00    -0.096 C 
ATOM     25  H   UNL     1      58.899  33.856  94.819  0.00  0.00    -0.082 HD
ATOM     26  C   UNL     1      60.052  33.244  93.121  0.00  0.00    -0.064 C 
ATOM     27  C   UNL     1      61.196  34.267  93.365  0.00  0.00    +0.066 C 
ENDBRANCH  19  20
ENDBRANCH  18  19
ENDBRANCH  14  15
ENDBRANCH  12  13
TORSDOF 6
ENDMDL
MODEL 3
REMARK VINA RESULT:     -11.5      2.428     12.548
REMARK  Name = C:\Users\Docking\Desktop\test protocol\1iep_ligandH.pdb
REMARK  8 active torsions:
REMARK  status: ('A' for Active; 'I' for Inactive)
REMARK    1  A    between atoms: _5  and  _11
REMARK    2  A    between atoms: _19  and  _21
REMARK    3  A    between atoms: _22  and  _66
REMARK    4  A    between atoms: _27  and  _30
REMARK    5  A    between atoms: _32  and  _33
REMARK    6  A    between atoms: _38  and  _43
REMARK    7  A    between atoms: _43  and  _46
REMARK    8  A    between atoms: _53  and  _55
REMARK                            x       y       z     vdW  Elec       q    Type
REMARK                         _______ _______ _______ _____ _____    ______ ____
ROOT
ATOM     10  C   UNL     1      69.697  39.056  88.227  0.00  0.00    +0.038 A 
ATOM     11  C   UNL     1      68.489  38.446  88.652  0.00  0.00    +0.047 A 
ATOM     12  C   UNL     1      67.473  39.205  89.364  0.00  0.00    +0.035 A 
ATOM     32  C   UNL     1      67.719  40.585  89.624  0.00  0.00    +0.024 A 
ATOM     33  C   UNL     1      68.942  41.220  89.201  0.00  0.00    +0.007 A 
ATOM     34  C   UNL     1      69.949  40.476  88.500  0.00  0.00    -0.029 A 
ATOM     35  C   UNL     1      71.244  41.207  88.075  0.00  0.00    +0.045 C 
ENDROOT
BRANCH  10   9
ATOM      4  C   UNL     1      70.913  35.274  85.533  0.00  0.00    +0.077 A 
ATOM      5  C   UNL     1      69.563  34.789  85.500  0.00  0.00    +0.048 A 
ATOM      6  C   UNL     1      68.587  35.538  86.195  0.00  0.00    +0.116 A 
ATOM      7  N   UNL     1      68.946  36.685  86.869  0.00  0.00    -0.223 NA
ATOM      8  C   UNL     1      70.257  37.124  86.882  0.00  0.00    +0.220 A 
ATOM      9  N   UNL     1      70.638  38.279  87.547  0.00  0.00    -0.283 N 
ATOM     36  H   UNL     1      71.617  38.566  87.539  0.00  0.00    +0.155 HD
ATOM     37  N   UNL     1      71.208  36.426  86.227  0.00  0.00    -0.214 NA
BRANCH   4   3
ATOM      1  C   UNL     1      73.622  32.647  84.504  0.00  0.00    +0.020 A 
ATOM      2  C   UNL     1      72.514  33.258  85.201  0.00  0.00    +0.013 A 
ATOM      3  C   UNL     1      72.056  34.595  84.844  0.00  0.00    +0.019 A 
ATOM     38  C   UNL     1      72.745  35.291  83.769  0.00  0.00    +0.120 A 
ATOM     39  N   UNL     1      73.811  34.678  83.117  0.00  0.00    -0.263 NA
ATOM     40  C   UNL     1      74.262  33.393  83.453  0.00  0.00    +0.111 A 
ENDBRANCH   4   3
ENDBRANCH  10   9
BRANCH  12  13
ATOM     13  N   UNL     1      66.231  38.638  89.827  0.00  0.00    -0.281 N 
ATOM     14  C   UNL     1      66.050  37.514  90.616  0.00  0.00    +0.248 C 
ATOM     30  O   UNL     1      66.924  36.698  90.867  0.00  0.00    -0.270 OA
ATOM     31  H   UNL     1      65.382  39.125  89.539  0.00  0.00    +0.155 HD
BRANCH  14  15
ATOM     15  C   UNL     1      64.698  37.250  91.198  0.00  0.00    +0.037 A 
ATOM     16  C   UNL     1      63.599  36.748  90.369  0.00  0.00    +0.013 A 
ATOM     17  C   UNL     1      62.301  36.518  90.952  0.00  0.00    +0.005 A 
ATOM     18  C   UNL     1      62.095  36.789  92.372  0.00  0.00    -0.033 A 
ATOM     28  C   UNL     1      63.205  37.282  93.172  0.00  0.00    +0.005 A 
ATOM     29  C   UNL     1      64.478  37.509  92.604  0.00  0.00    +0.013 A 
BRANCH  18  19
ATOM     19  C   UNL     1      60.738  36.593  93.074  0.00  0.00    +0.119 C 
BRANCH  19  20
ATOM     20  N   UNL     1      60.070  35.267  92.912  0.00  0.00    -0.302 NA
ATOM     21  C   UNL     1      58.647  35.268  93.477  0.00  0.00    +0.066 C 
ATOM     22  C   UNL     1      57.955  33.880  93.279  0.00  0.00    -0.064 C 
ATOM     23  N   UNL     1      58.801  32.792  93.943  0.00  0.00    +0.379 N 
ATOM     24  C   UNL     1      58.124  31.494  93.808  0.00  0.00    -0.096 C 
ATOM     25  H   UNL     1      58.864  33.030  95.030  0.00  0.00    -0.082 HD
ATOM     26  C   UNL     1      60.219  32.786  93.388  0.00  0.00    -0.064 C 
ATOM     27  C   UNL     1      60.887  34.179  93.564  0.00  0.00    +0.066 C 
ENDBRANCH  19  20
ENDBRANCH  18  19
ENDBRANCH  14  15
ENDBRANCH  12  13
TORSDOF 6
ENDMDL
