MODEL 1
REMARK VINA RESULT:     -12.4      0.000      0.000
REMARK  Name = C:\Users\Docking\Desktop\test protocol\1iep_ligandH.pdb
REMARK  8 active torsions:
REMARK  status: ('A' for Active; 'I' for Inactive)
REMARK    1  A    between atoms: _5  and  _11
REMARK    2  A    between atoms: _19  and  _21
REMARK    3  A    between atoms: _22  and  _66
REMARK    4  A    between atoms: _27  and  _30
REMARK    5  A    between atoms: _32  and  _33
REMARK    6  A    between atoms: _38  and  _43
REMARK    7  A    between atoms: _43  and  _46
REMARK    8  A    between atoms: _53  and  _55
REMARK                            x       y       z     vdW  Elec       q    Type
REMARK                         _______ _______ _______ _____ _____    ______ ____
ROOT
ATOM     10  C   UNL     1      65.290  36.505  89.844  0.00  0.00    +0.038 A 
ATOM     11  C   UNL     1      66.565  35.997  90.203  0.00  0.00    +0.047 A 
ATOM     12  C   UNL     1      67.787  36.663  89.781  0.00  0.00    +0.035 A 
ATOM     32  C   UNL     1      67.674  37.848  88.995  0.00  0.00    +0.024 A 
ATOM     33  C   UNL     1      66.386  38.377  88.621  0.00  0.00    +0.007 A 
ATOM     34  C   UNL     1      65.177  37.723  89.032  0.00  0.00    -0.029 A 
ATOM     35  C   UNL     1      63.825  38.332  88.596  0.00  0.00    +0.045 C 
ENDROOT
BRANCH  10   9
ATOM      4  C   UNL     1      61.364  36.139  92.581  0.00  0.00    +0.077 A 
ATOM      5  C   UNL     1      61.621  37.396  93.222  0.00  0.00    +0.048 A 
ATOM      6  C   UNL     1      62.778  38.103  92.823  0.00  0.00    +0.116 A 
ATOM      7  N   UNL     1      63.609  37.581  91.855  0.00  0.00    -0.223 NA
ATOM      8  C   UNL     1      63.333  36.365  91.259  0.00  0.00    +0.220 A 
ATOM      9  N   UNL     1      64.150  35.825  90.277  0.00  0.00    -0.283 N 
ATOM     36  H   UNL     1      63.915  34.922  89.867  0.00  0.00    +0.155 HD
ATOM     37  N   UNL     1      62.235  35.670  91.622  0.00  0.00    -0.214 NA
BRANCH   4   3
ATOM      1  C   UNL     1      59.122  33.076  93.526  0.00  0.00    +0.020 A 
ATOM      2  C   UNL     1      60.297  33.865  93.235  0.00  0.00    +0.013 A 
ATOM      3  C   UNL     1      60.180  35.276  92.891  0.00  0.00    +0.019 A 
ATOM     38  C   UNL     1      58.850  35.865  92.852  0.00  0.00    +0.120 A 
ATOM     39  N   UNL     1      57.736  35.080  93.136  0.00  0.00    -0.263 NA
ATOM     40  C   UNL     1      57.836  33.720  93.466  0.00  0.00    +0.111 A 
ENDBRANCH   4   3
ENDBRANCH  10   9
BRANCH  12  13
ATOM     13  N   UNL     1      69.109  36.190  90.108  0.00  0.00    -0.281 N 
ATOM     14  C   UNL     1      69.700  36.110  91.358  0.00  0.00    +0.248 C 
ATOM     30  O   UNL     1      69.256  36.637  92.367  0.00  0.00    -0.270 OA
ATOM     31  H   UNL     1      69.678  35.875  89.322  0.00  0.00    +0.155 HD
BRANCH  14  15
ATOM     15  C   UNL     1      70.976  35.347  91.506  0.00  0.00    +0.037 A 
ATOM     16  C   UNL     1      71.839  35.077  90.353  0.00  0.00    +0.013 A 
ATOM     17  C   UNL     1      73.056  34.324  90.521  0.00  0.00    +0.005 A 
ATOM     18  C   UNL     1      73.419  33.836  91.849  0.00  0.00    -0.033 A 
ATOM     28  C   UNL     1      72.547  34.122  92.977  0.00  0.00    +0.005 A 
ATOM     29  C   UNL     1      71.353  34.859  92.816  0.00  0.00    +0.013 A 
BRANCH  18  19
ATOM     19  C   UNL     1      74.688  33.006  92.117  0.00  0.00    +0.119 C 
BRANCH  19  20
ATOM     20  N   UNL     1      74.680  32.109  93.311  0.00  0.00    -0.302 NA
ATOM     21  C   UNL     1      75.506  32.682  94.466  0.00  0.00    +0.066 C 
ATOM     22  C   UNL     1      75.468  31.743  95.715  0.00  0.00    -0.064 C 
ATOM     23  N   UNL     1      75.976  30.355  95.321  0.00  0.00    +0.379 N 
ATOM     24  C   UNL     1      75.996  29.485  96.507  0.00  0.00    -0.096 C 
ATOM     25  H   UNL     1      77.027  30.468  94.967  0.00  0.00    -0.082 HD
ATOM     26  C   UNL     1      75.162  29.779  94.172  0.00  0.00    -0.064 C 
ATOM     27  C   UNL     1      75.182  30.734  92.946  0.00  0.00    +0.066 C 
ENDBRANCH  19  20
ENDBRANCH  18  19
ENDBRANCH  14  15
ENDBRANCH  12  13
TORSDOF 6
ENDMDL
MODEL 2
REMARK VINA RESULT:     -11.3      2.071      2.823
REMARK  Name = C:\Users\Docking\Desktop\test protocol\1iep_ligandH.pdb
REMARK  8 active torsions:
REMARK  status: ('A' for Active; 'I' for Inactive)
REMARK    1  A    between atoms: _5  and  _11
REMARK    2  A    between atoms: _19  and  _21
REMARK    3  A    between atoms: _22  and  _66
REMARK    4  A    between atoms: _27  and  _30
REMARK    5  A    between atoms: _32  and  _33
REMARK    6  A    between atoms: _38  and  _43
REMARK    7  A    between atoms: _43  and  _46
REMARK    8  A    between atoms: _53  and  _55
REMARK                            x       y       z     vdW  Elec       q    Type
REMARK                         _______ _______ _______ _____ _____    ______ ____
ROOT
ATOM     10  C   UNL     1      65.181  36.566  89.873  0.00  0.00    +0.038 A 
ATOM     11  C   UNL     1      66.502  36.196  90.235  0.00  0.00    +0.047 A 
ATOM     12  C   UNL     1      67.652  36.948  89.757  0.00  0.00    +0.035 A 
ATOM     32  C   UNL     1      67.420  38.073  88.914  0.00  0.00    +0.024 A 
ATOM     33  C   UNL     1      66.085  38.463  88.535  0.00  0.00    +0.007 A 
ATOM     34  C   UNL     1      64.947  37.724  89.002  0.00  0.00    -0.029 A 
ATOM     35  C   UNL     1      63.538  38.183  88.558  0.00  0.00    +0.045 C 
ENDROOT
BRANCH  10   9
ATOM      4  C   UNL     1      61.292  36.019  92.631  0.00  0.00    +0.077 A 
ATOM      5  C   UNL     1      61.412  37.345  93.166  0.00  0.00    +0.048 A 
ATOM      6  C   UNL     1      62.493  38.133  92.711  0.00  0.00    +0.116 A 
ATOM      7  N   UNL     1      63.381  37.623  91.789  0.00  0.00    -0.223 NA
ATOM      8  C   UNL     1      63.237  36.339  91.294  0.00  0.00    +0.220 A 
ATOM      9  N   UNL     1      64.114  35.809  90.361  0.00  0.00    -0.283 N 
ATOM     36  H   UNL     1      63.978  34.856  90.026  0.00  0.00    +0.155 HD
ATOM     37  N   UNL     1      62.214  35.566  91.715  0.00  0.00    -0.214 NA
BRANCH   4   3
ATOM      1  C   UNL     1      57.772  34.442  93.284  0.00  0.00    +0.020 A 
ATOM      2  C   UNL     1      58.786  35.398  92.903  0.00  0.00    +0.013 A 
ATOM      3  C   UNL     1      60.201  35.067  93.012  0.00  0.00    +0.019 A 
ATOM     38  C   UNL     1      60.559  33.748  93.512  0.00  0.00    +0.120 A 
ATOM     39  N   UNL     1      59.561  32.848  93.872  0.00  0.00    -0.263 NA
ATOM     40  C   UNL     1      58.196  33.157  93.773  0.00  0.00    +0.111 A 
ENDBRANCH   4   3
ENDBRANCH  10   9
BRANCH  12  13
ATOM     13  N   UNL     1      69.016  36.614  90.085  0.00  0.00    -0.281 N 
ATOM     14  C   UNL     1      69.585  36.496  91.343  0.00  0.00    +0.248 C 
ATOM     30  O   UNL     1      69.056  36.869  92.379  0.00  0.00    -0.270 OA
ATOM     31  H   UNL     1      69.637  36.446  89.294  0.00  0.00    +0.155 HD
BRANCH  14  15
ATOM     15  C   UNL     1      70.944  35.887  91.465  0.00  0.00    +0.037 A 
ATOM     16  C   UNL     1      71.187  34.740  92.344  0.00  0.00    +0.013 A 
ATOM     17  C   UNL     1      72.512  34.182  92.456  0.00  0.00    +0.005 A 
ATOM     18  C   UNL     1      73.604  34.771  91.686  0.00  0.00    -0.033 A 
ATOM     28  C   UNL     1      73.335  35.906  90.819  0.00  0.00    +0.005 A 
ATOM     29  C   UNL     1      72.038  36.455  90.706  0.00  0.00    +0.013 A 
BRANCH  18  19
ATOM     19  C   UNL     1      75.053  34.255  91.761  0.00  0.00    +0.119 C 
BRANCH  19  20
ATOM     20  N   UNL     1      75.572  33.501  90.581  0.00  0.00    -0.302 NA
ATOM     21  C   UNL     1      74.442  32.998  89.679  0.00  0.00    +0.066 C 
ATOM     22  C   UNL     1      75.004  32.231  88.437  0.00  0.00    -0.064 C 
ATOM     23  N   UNL     1      75.877  31.068  88.912  0.00  0.00    +0.379 N 
ATOM     24  C   UNL     1      76.360  30.310  87.748  0.00  0.00    -0.096 C 
ATOM     25  H   UNL     1      75.234  30.387  89.516  0.00  0.00    -0.082 HD
ATOM     26  C   UNL     1      77.002  31.560  89.812  0.00  0.00    -0.064 C 
ATOM     27  C   UNL     1      76.434  32.346  91.027  0.00  0.00    +0.066 C 
ENDBRANCH  19  20
ENDBRANCH  18  19
ENDBRANCH  14  15
ENDBRANCH  12  13
TORSDOF 6
ENDMDL
MODEL 3
REMARK VINA RESULT:     -11.2      4.217     12.242
REMARK  Name = C:\Users\Docking\Desktop\test protocol\1iep_ligandH.pdb
REMARK  8 active torsions:
REMARK  status: ('A' for Active; 'I' for Inactive)
REMARK    1  A    between atoms: _5  and  _11
REMARK    2  A    between atoms: _19  and  _21
REMARK    3  A    between atoms: _22  and  _66
REMARK    4  A    between atoms: _27  and  _30
REMARK    5  A    between atoms: _32  and  _33
REMARK    6  A    between atoms: _38  and  _43
REMARK    7  A    between atoms: _43  and  _46
REMARK    8  A    between atoms: _53  and  _55
REMARK                            x       y       z     vdW  Elec       q    Type
REMARK                         _______ _______ _______ _____ _____    ______ ____
ROOT
ATOM     10  C   UNL     1      70.160  36.907  89.046  0.00  0.00    +0.038 A 
ATOM     11  C   UNL     1      68.801  37.132  89.384  0.00  0.00    +0.047 A 
ATOM     12  C   UNL     1      68.266  36.709  90.669  0.00  0.00    +0.035 A 
ATOM     32  C   UNL     1      69.144  36.062  91.587  0.00  0.00    +0.024 A 
ATOM     33  C   UNL     1      70.528  35.824  91.258  0.00  0.00    +0.007 A 
ATOM     34  C   UNL     1      71.061  36.237  89.992  0.00  0.00    -0.029 A 
ATOM     35  C   UNL     1      72.550  35.950  89.691  0.00  0.00    +0.045 C 
ENDROOT
BRANCH  10   9
ATOM      4  C   UNL     1      70.334  36.583  84.260  0.00  0.00    +0.077 A 
ATOM      5  C   UNL     1      69.454  35.451  84.246  0.00  0.00    +0.048 A 
ATOM      6  C   UNL     1      68.984  34.978  85.492  0.00  0.00    +0.116 A 
ATOM      7  N   UNL     1      69.372  35.600  86.659  0.00  0.00    -0.223 NA
ATOM      8  C   UNL     1      70.224  36.689  86.637  0.00  0.00    +0.220 A 
ATOM      9  N   UNL     1      70.621  37.334  87.798  0.00  0.00    -0.283 N 
ATOM     36  H   UNL     1      71.257  38.129  87.741  0.00  0.00    +0.155 HD
ATOM     37  N   UNL     1      70.688  37.158  85.460  0.00  0.00    -0.214 NA
BRANCH   4   3
ATOM      1  C   UNL     1      72.653  38.564  81.811  0.00  0.00    +0.020 A 
ATOM      2  C   UNL     1      72.138  37.989  83.032  0.00  0.00    +0.013 A 
ATOM      3  C   UNL     1      70.912  37.201  83.025  0.00  0.00    +0.019 A 
ATOM     38  C   UNL     1      70.227  37.010  81.755  0.00  0.00    +0.120 A 
ATOM     39  N   UNL     1      70.747  37.576  80.595  0.00  0.00    -0.263 NA
ATOM     40  C   UNL     1      71.925  38.338  80.590  0.00  0.00    +0.111 A 
ENDBRANCH   4   3
ENDBRANCH  10   9
BRANCH  12  13
ATOM     13  N   UNL     1      66.893  36.904  91.065  0.00  0.00    -0.281 N 
ATOM     14  C   UNL     1      65.766  36.895  90.261  0.00  0.00    +0.248 C 
ATOM     30  O   UNL     1      65.787  36.932  89.040  0.00  0.00    -0.270 OA
ATOM     31  H   UNL     1      66.734  37.067  92.059  0.00  0.00    +0.155 HD
BRANCH  14  15
ATOM     15  C   UNL     1      64.418  36.855  90.907  0.00  0.00    +0.037 A 
ATOM     16  C   UNL     1      64.188  37.458  92.222  0.00  0.00    +0.013 A 
ATOM     17  C   UNL     1      62.883  37.391  92.830  0.00  0.00    +0.005 A 
ATOM     18  C   UNL     1      61.797  36.718  92.122  0.00  0.00    -0.033 A 
ATOM     28  C   UNL     1      62.051  36.133  90.816  0.00  0.00    +0.005 A 
ATOM     29  C   UNL     1      63.330  36.197  90.217  0.00  0.00    +0.013 A 
BRANCH  18  19
ATOM     19  C   UNL     1      60.377  36.580  92.704  0.00  0.00    +0.119 C 
BRANCH  19  20
ATOM     20  N   UNL     1      59.697  35.261  92.540  0.00  0.00    -0.302 NA
ATOM     21  C   UNL     1      58.242  35.302  93.016  0.00  0.00    +0.066 C 
ATOM     22  C   UNL     1      57.538  33.920  92.817  0.00  0.00    -0.064 C 
ATOM     23  N   UNL     1      58.322  32.840  93.565  0.00  0.00    +0.379 N 
ATOM     24  C   UNL     1      57.631  31.549  93.427  0.00  0.00    -0.096 C 
ATOM     25  H   UNL     1      58.323  33.110  94.646  0.00  0.00    -0.082 HD
ATOM     26  C   UNL     1      59.771  32.794  93.099  0.00  0.00    -0.064 C 
ATOM     27  C   UNL     1      60.452  34.180  93.274  0.00  0.00    +0.066 C 
ENDBRANCH  19  20
ENDBRANCH  18  19
ENDBRANCH  14  15
ENDBRANCH  12  13
TORSDOF 6
ENDMDL
