MODEL 1
REMARK VINA RESULT:      -8.6      0.000      0.000
REMARK  Name = C:\Users\Docking\Desktop\test protocol\1iep_ligandH.pdb
REMARK  8 active torsions:
REMARK  status: ('A' for Active; 'I' for Inactive)
REMARK    1  A    between atoms: _5  and  _11
REMARK    2  A    between atoms: _19  and  _21
REMARK    3  A    between atoms: _22  and  _66
REMARK    4  A    between atoms: _27  and  _30
REMARK    5  A    between atoms: _32  and  _33
REMARK    6  A    between atoms: _38  and  _43
REMARK    7  A    between atoms: _43  and  _46
REMARK    8  A    between atoms: _53  and  _55
REMARK                            x       y       z     vdW  Elec       q    Type
REMARK                         _______ _______ _______ _____ _____    ______ ____
ROOT
ATOM     10  C   UNL     1     -11.442  48.110  13.795  0.00  0.00    +0.038 A 
ATOM     11  C   UNL     1     -11.050  48.461  15.112  0.00  0.00    +0.047 A 
ATOM     12  C   UNL     1     -11.987  49.083  16.035  0.00  0.00    +0.035 A 
ATOM     32  C   UNL     1     -13.316  49.329  15.585  0.00  0.00    +0.024 A 
ATOM     33  C   UNL     1     -13.732  48.979  14.249  0.00  0.00    +0.007 A 
ATOM     34  C   UNL     1     -12.811  48.368  13.333  0.00  0.00    -0.029 A 
ATOM     35  C   UNL     1     -13.310  48.020  11.911  0.00  0.00    +0.045 C 
ENDROOT
BRANCH  10   9
ATOM      4  C   UNL     1      -8.040  48.346  10.418  0.00  0.00    +0.077 A 
ATOM      5  C   UNL     1      -8.165  49.770  10.308  0.00  0.00    +0.048 A 
ATOM      6  C   UNL     1      -9.121  50.404  11.132  0.00  0.00    +0.116 A 
ATOM      7  N   UNL     1      -9.890  49.657  11.999  0.00  0.00    -0.223 NA
ATOM      8  C   UNL     1      -9.745  48.285  12.080  0.00  0.00    +0.220 A 
ATOM      9  N   UNL     1     -10.502  47.515  12.950  0.00  0.00    -0.283 N 
ATOM     36  H   UNL     1     -10.370  46.505  12.974  0.00  0.00    +0.155 HD
ATOM     37  N   UNL     1      -8.840  47.656  11.301  0.00  0.00    -0.214 NA
BRANCH   4   3
ATOM      1  C   UNL     1      -4.766  47.055   8.710  0.00  0.00    +0.020 A 
ATOM      2  C   UNL     1      -5.659  47.873   9.497  0.00  0.00    +0.013 A 
ATOM      3  C   UNL     1      -7.071  47.533   9.615  0.00  0.00    +0.019 A 
ATOM     38  C   UNL     1      -7.552  46.349   8.920  0.00  0.00    +0.120 A 
ATOM     39  N   UNL     1      -6.668  45.580   8.168  0.00  0.00    -0.263 NA
ATOM     40  C   UNL     1      -5.308  45.899   8.045  0.00  0.00    +0.111 A 
ENDBRANCH   4   3
ENDBRANCH  10   9
BRANCH  12  13
ATOM     13  N   UNL     1     -11.643  49.469  17.381  0.00  0.00    -0.281 N 
ATOM     14  C   UNL     1     -11.320  48.646  18.447  0.00  0.00    +0.248 C 
ATOM     30  O   UNL     1     -11.485  47.435  18.460  0.00  0.00    -0.270 OA
ATOM     31  H   UNL     1     -11.638  50.471  17.571  0.00  0.00    +0.155 HD
BRANCH  14  15
ATOM     15  C   UNL     1     -10.742  49.257  19.683  0.00  0.00    +0.037 A 
ATOM     16  C   UNL     1      -9.942  50.483  19.621  0.00  0.00    +0.013 A 
ATOM     17  C   UNL     1      -9.382  51.043  20.826  0.00  0.00    +0.005 A 
ATOM     18  C   UNL     1      -9.623  50.377  22.104  0.00  0.00    -0.033 A 
ATOM     28  C   UNL     1     -10.425  49.165  22.137  0.00  0.00    +0.005 A 
ATOM     29  C   UNL     1     -10.974  48.613  20.958  0.00  0.00    +0.013 A 
BRANCH  18  19
ATOM     19  C   UNL     1      -9.047  50.892  23.436  0.00  0.00    +0.119 C 
BRANCH  19  20
ATOM     20  N   UNL     1      -9.982  50.980  24.597  0.00  0.00    -0.302 NA
ATOM     21  C   UNL     1     -10.497  52.406  24.813  0.00  0.00    +0.066 C 
ATOM     22  C   UNL     1     -11.492  52.475  26.017  0.00  0.00    -0.064 C 
ATOM     23  N   UNL     1     -10.801  51.952  27.277  0.00  0.00    +0.379 N 
ATOM     24  C   UNL     1     -11.715  52.071  28.423  0.00  0.00    -0.096 C 
ATOM     25  H   UNL     1      -9.921  52.608  27.476  0.00  0.00    -0.082 HD
ATOM     26  C   UNL     1     -10.284  50.536  27.070  0.00  0.00    -0.064 C 
ATOM     27  C   UNL     1      -9.319  50.472  25.853  0.00  0.00    +0.066 C 
ENDBRANCH  19  20
ENDBRANCH  18  19
ENDBRANCH  14  15
ENDBRANCH  12  13
TORSDOF 6
ENDMDL
MODEL 2
REMARK VINA RESULT:      -8.5      6.338     12.636
REMARK  Name = C:\Users\Docking\Desktop\test protocol\1iep_ligandH.pdb
REMARK  8 active torsions:
REMARK  status: ('A' for Active; 'I' for Inactive)
REMARK    1  A    between atoms: _5  and  _11
REMARK    2  A    between atoms: _19  and  _21
REMARK    3  A    between atoms: _22  and  _66
REMARK    4  A    between atoms: _27  and  _30
REMARK    5  A    between atoms: _32  and  _33
REMARK    6  A    between atoms: _38  and  _43
REMARK    7  A    between atoms: _43  and  _46
REMARK    8  A    between atoms: _53  and  _55
REMARK                            x       y       z     vdW  Elec       q    Type
REMARK                         _______ _______ _______ _____ _____    ______ ____
ROOT
ATOM     10  C   UNL     1     -17.554  50.162  15.734  0.00  0.00    +0.038 A 
ATOM     11  C   UNL     1     -16.244  50.007  15.214  0.00  0.00    +0.047 A 
ATOM     12  C   UNL     1     -15.374  48.935  15.671  0.00  0.00    +0.035 A 
ATOM     32  C   UNL     1     -15.873  48.035  16.658  0.00  0.00    +0.024 A 
ATOM     33  C   UNL     1     -17.202  48.178  17.198  0.00  0.00    +0.007 A 
ATOM     34  C   UNL     1     -18.063  49.236  16.753  0.00  0.00    -0.029 A 
ATOM     35  C   UNL     1     -19.477  49.345  17.371  0.00  0.00    +0.045 C 
ENDROOT
BRANCH  10   9
ATOM      4  C   UNL     1     -20.783  51.981  12.684  0.00  0.00    +0.077 A 
ATOM      5  C   UNL     1     -20.881  50.747  11.959  0.00  0.00    +0.048 A 
ATOM      6  C   UNL     1     -20.078  49.671  12.399  0.00  0.00    +0.116 A 
ATOM      7  N   UNL     1     -19.244  49.828  13.484  0.00  0.00    -0.223 NA
ATOM      8  C   UNL     1     -19.172  51.032  14.160  0.00  0.00    +0.220 A 
ATOM      9  N   UNL     1     -18.346  51.210  15.259  0.00  0.00    -0.283 N 
ATOM     36  H   UNL     1     -18.316  52.116  15.726  0.00  0.00    +0.155 HD
ATOM     37  N   UNL     1     -19.928  52.075  13.759  0.00  0.00    -0.214 NA
BRANCH   4   3
ATOM      1  C   UNL     1     -22.551  55.463  12.906  0.00  0.00    +0.020 A 
ATOM      2  C   UNL     1     -21.783  54.300  13.285  0.00  0.00    +0.013 A 
ATOM      3  C   UNL     1     -21.570  53.208  12.343  0.00  0.00    +0.019 A 
ATOM     38  C   UNL     1     -22.151  53.327  11.014  0.00  0.00    +0.120 A 
ATOM     39  N   UNL     1     -22.886  54.459  10.678  0.00  0.00    -0.263 NA
ATOM     40  C   UNL     1     -23.100  55.515  11.576  0.00  0.00    +0.111 A 
ENDBRANCH   4   3
ENDBRANCH  10   9
BRANCH  12  13
ATOM     13  N   UNL     1     -14.032  48.733  15.185  0.00  0.00    -0.281 N 
ATOM     14  C   UNL     1     -13.627  48.461  13.889  0.00  0.00    +0.248 C 
ATOM     30  O   UNL     1     -14.381  48.137  12.983  0.00  0.00    -0.270 OA
ATOM     31  H   UNL     1     -13.290  48.799  15.882  0.00  0.00    +0.155 HD
BRANCH  14  15
ATOM     15  C   UNL     1     -12.173  48.548  13.553  0.00  0.00    +0.037 A 
ATOM     16  C   UNL     1     -11.168  47.822  14.334  0.00  0.00    +0.013 A 
ATOM     17  C   UNL     1      -9.771  47.936  14.000  0.00  0.00    +0.005 A 
ATOM     18  C   UNL     1      -9.370  48.780  12.876  0.00  0.00    -0.033 A 
ATOM     28  C   UNL     1     -10.389  49.484  12.115  0.00  0.00    +0.005 A 
ATOM     29  C   UNL     1     -11.759  49.375  12.440  0.00  0.00    +0.013 A 
BRANCH  18  19
ATOM     19  C   UNL     1      -7.900  48.977  12.461  0.00  0.00    +0.119 C 
BRANCH  19  20
ATOM     20  N   UNL     1      -7.504  48.503  11.101  0.00  0.00    -0.302 NA
ATOM     21  C   UNL     1      -8.086  47.122  10.783  0.00  0.00    +0.066 C 
ATOM     22  C   UNL     1      -7.680  46.651   9.348  0.00  0.00    -0.064 C 
ATOM     23  N   UNL     1      -6.155  46.636   9.232  0.00  0.00    +0.379 N 
ATOM     24  C   UNL     1      -5.769  46.138   7.903  0.00  0.00    -0.096 C 
ATOM     25  H   UNL     1      -5.765  45.917   9.989  0.00  0.00    -0.082 HD
ATOM     26  C   UNL     1      -5.568  48.005   9.550  0.00  0.00    -0.064 C 
ATOM     27  C   UNL     1      -6.002  48.476  10.966  0.00  0.00    +0.066 C 
ENDBRANCH  19  20
ENDBRANCH  18  19
ENDBRANCH  14  15
ENDBRANCH  12  13
TORSDOF 6
ENDMDL
MODEL 3
REMARK VINA RESULT:      -8.5      7.582     13.160
REMARK  Name = C:\Users\Docking\Desktop\test protocol\1iep_ligandH.pdb
REMARK  8 active torsions:
REMARK  status: ('A' for Active; 'I' for Inactive)
REMARK    1  A    between atoms: _5  and  _11
REMARK    2  A    between atoms: _19  and  _21
REMARK    3  A    between atoms: _22  and  _66
REMARK    4  A    between atoms: _27  and  _30
REMARK    5  A    between atoms: _32  and  _33
REMARK    6  A    between atoms: _38  and  _43
REMARK    7  A    between atoms: _43  and  _46
REMARK    8  A    between atoms: _53  and  _55
REMARK                            x       y       z     vdW  Elec       q    Type
REMARK                         _______ _______ _______ _____ _____    ______ ____
ROOT
ATOM     10  C   UNL     1     -16.201  49.088  17.891  0.00  0.00    +0.038 A 
ATOM     11  C   UNL     1     -16.868  50.027  17.063  0.00  0.00    +0.047 A 
ATOM     12  C   UNL     1     -18.118  49.691  16.399  0.00  0.00    +0.035 A 
ATOM     32  C   UNL     1     -18.662  48.390  16.603  0.00  0.00    +0.024 A 
ATOM     33  C   UNL     1     -17.997  47.423  17.441  0.00  0.00    +0.007 A 
ATOM     34  C   UNL     1     -16.763  47.748  18.096  0.00  0.00    -0.029 A 
ATOM     35  C   UNL     1     -16.091  46.670  18.978  0.00  0.00    +0.045 C 
ENDROOT
BRANCH  10   9
ATOM      4  C   UNL     1     -11.408  49.294  18.047  0.00  0.00    +0.077 A 
ATOM      5  C   UNL     1     -11.278  48.567  16.817  0.00  0.00    +0.048 A 
ATOM      6  C   UNL     1     -12.469  48.152  16.179  0.00  0.00    +0.116 A 
ATOM      7  N   UNL     1     -13.693  48.448  16.739  0.00  0.00    -0.223 NA
ATOM      8  C   UNL     1     -13.783  49.149  17.927  0.00  0.00    +0.220 A 
ATOM      9  N   UNL     1     -15.004  49.464  18.504  0.00  0.00    -0.283 N 
ATOM     36  H   UNL     1     -15.028  49.977  19.385  0.00  0.00    +0.155 HD
ATOM     37  N   UNL     1     -12.661  49.555  18.556  0.00  0.00    -0.214 NA
BRANCH   4   3
ATOM      1  C   UNL     1      -8.981  51.628  20.038  0.00  0.00    +0.020 A 
ATOM      2  C   UNL     1     -10.127  51.188  19.276  0.00  0.00    +0.013 A 
ATOM      3  C   UNL     1     -10.243  49.803  18.838  0.00  0.00    +0.019 A 
ATOM     38  C   UNL     1      -9.174  48.881  19.190  0.00  0.00    +0.120 A 
ATOM     39  N   UNL     1      -8.081  49.334  19.923  0.00  0.00    -0.263 NA
ATOM     40  C   UNL     1      -7.958  50.665  20.349  0.00  0.00    +0.111 A 
ENDBRANCH   4   3
ENDBRANCH  10   9
BRANCH  12  13
ATOM     13  N   UNL     1     -18.835  50.600  15.540  0.00  0.00    -0.281 N 
ATOM     14  C   UNL     1     -19.018  50.512  14.169  0.00  0.00    +0.248 C 
ATOM     30  O   UNL     1     -18.407  49.746  13.439  0.00  0.00    -0.270 OA
ATOM     31  H   UNL     1     -19.260  51.406  15.998  0.00  0.00    +0.155 HD
BRANCH  14  15
ATOM     15  C   UNL     1     -20.012  51.415  13.514  0.00  0.00    +0.037 A 
ATOM     16  C   UNL     1     -20.763  50.987  12.331  0.00  0.00    +0.013 A 
ATOM     17  C   UNL     1     -21.703  51.884  11.708  0.00  0.00    +0.005 A 
ATOM     18  C   UNL     1     -21.900  53.219  12.269  0.00  0.00    -0.033 A 
ATOM     28  C   UNL     1     -21.146  53.615  13.446  0.00  0.00    +0.005 A 
ATOM     29  C   UNL     1     -20.222  52.739  14.059  0.00  0.00    +0.013 A 
BRANCH  18  19
ATOM     19  C   UNL     1     -22.867  54.249  11.657  0.00  0.00    +0.119 C 
BRANCH  19  20
ATOM     20  N   UNL     1     -22.312  55.185  10.634  0.00  0.00    -0.302 NA
ATOM     21  C   UNL     1     -22.335  56.639  11.114  0.00  0.00    +0.066 C 
ATOM     22  C   UNL     1     -21.730  57.602  10.041  0.00  0.00    -0.064 C 
ATOM     23  N   UNL     1     -22.504  57.452   8.730  0.00  0.00    +0.379 N 
ATOM     24  C   UNL     1     -21.975  58.397   7.736  0.00  0.00    -0.096 C 
ATOM     25  H   UNL     1     -23.565  57.729   8.930  0.00  0.00    -0.082 HD
ATOM     26  C   UNL     1     -22.489  56.008   8.247  0.00  0.00    -0.064 C 
ATOM     27  C   UNL     1     -23.065  55.056   9.333  0.00  0.00    +0.066 C 
ENDBRANCH  19  20
ENDBRANCH  18  19
ENDBRANCH  14  15
ENDBRANCH  12  13
TORSDOF 6
ENDMDL
