MODEL 1
REMARK VINA RESULT:      -8.6      0.000      0.000
REMARK  Name = C:\Users\Docking\Desktop\test protocol\1iep_ligandH.pdb
REMARK  8 active torsions:
REMARK  status: ('A' for Active; 'I' for Inactive)
REMARK    1  A    between atoms: _5  and  _11
REMARK    2  A    between atoms: _19  and  _21
REMARK    3  A    between atoms: _22  and  _66
REMARK    4  A    between atoms: _27  and  _30
REMARK    5  A    between atoms: _32  and  _33
REMARK    6  A    between atoms: _38  and  _43
REMARK    7  A    between atoms: _43  and  _46
REMARK    8  A    between atoms: _53  and  _55
REMARK                            x       y       z     vdW  Elec       q    Type
REMARK                         _______ _______ _______ _____ _____    ______ ____
ROOT
ATOM     10  C   UNL     1     -25.802  57.246   9.779  0.00  0.00    +0.038 A 
ATOM     11  C   UNL     1     -26.870  57.548  10.663  0.00  0.00    +0.047 A 
ATOM     12  C   UNL     1     -27.716  58.713  10.451  0.00  0.00    +0.035 A 
ATOM     32  C   UNL     1     -27.446  59.548   9.328  0.00  0.00    +0.024 A 
ATOM     33  C   UNL     1     -26.364  59.257   8.421  0.00  0.00    +0.007 A 
ATOM     34  C   UNL     1     -25.525  58.111   8.626  0.00  0.00    -0.029 A 
ATOM     35  C   UNL     1     -24.375  57.851   7.625  0.00  0.00    +0.045 C 
ENDROOT
BRANCH  10   9
ATOM      4  C   UNL     1     -22.252  54.977  12.078  0.00  0.00    +0.077 A 
ATOM      5  C   UNL     1     -21.904  56.152  12.823  0.00  0.00    +0.048 A 
ATOM      6  C   UNL     1     -22.658  57.322  12.580  0.00  0.00    +0.116 A 
ATOM      7  N   UNL     1     -23.683  57.306  11.659  0.00  0.00    -0.223 NA
ATOM      8  C   UNL     1     -23.991  56.156  10.956  0.00  0.00    +0.220 A 
ATOM      9  N   UNL     1     -25.022  56.115  10.030  0.00  0.00    -0.283 N 
ATOM     36  H   UNL     1     -25.214  55.249   9.526  0.00  0.00    +0.155 HD
ATOM     37  N   UNL     1     -23.285  55.026  11.168  0.00  0.00    -0.214 NA
BRANCH   4   3
ATOM      1  C   UNL     1     -20.220  51.973  13.545  0.00  0.00    +0.020 A 
ATOM      2  C   UNL     1     -20.884  53.254  13.455  0.00  0.00    +0.013 A 
ATOM      3  C   UNL     1     -21.550  53.663  12.225  0.00  0.00    +0.019 A 
ATOM     38  C   UNL     1     -21.527  52.745  11.095  0.00  0.00    +0.120 A 
ATOM     39  N   UNL     1     -20.879  51.519  11.211  0.00  0.00    -0.263 NA
ATOM     40  C   UNL     1     -20.233  51.116  12.389  0.00  0.00    +0.111 A 
ENDBRANCH   4   3
ENDBRANCH  10   9
BRANCH  12  13
ATOM     13  N   UNL     1     -28.809  59.073  11.319  0.00  0.00    -0.281 N 
ATOM     14  C   UNL     1     -30.162  59.093  11.021  0.00  0.00    +0.248 C 
ATOM     30  O   UNL     1     -30.622  59.007   9.892  0.00  0.00    -0.270 OA
ATOM     31  H   UNL     1     -28.556  59.348  12.268  0.00  0.00    +0.155 HD
BRANCH  14  15
ATOM     15  C   UNL     1     -31.145  59.243  12.136  0.00  0.00    +0.037 A 
ATOM     16  C   UNL     1     -32.587  59.146  11.897  0.00  0.00    +0.013 A 
ATOM     17  C   UNL     1     -33.515  59.312  12.988  0.00  0.00    +0.005 A 
ATOM     18  C   UNL     1     -33.001  59.577  14.330  0.00  0.00    -0.033 A 
ATOM     28  C   UNL     1     -31.566  59.663  14.540  0.00  0.00    +0.005 A 
ATOM     29  C   UNL     1     -30.654  59.502  13.473  0.00  0.00    +0.013 A 
BRANCH  18  19
ATOM     19  C   UNL     1     -33.918  59.788  15.549  0.00  0.00    +0.119 C 
BRANCH  19  20
ATOM     20  N   UNL     1     -34.995  58.780  15.778  0.00  0.00    -0.302 NA
ATOM     21  C   UNL     1     -35.959  59.210  16.888  0.00  0.00    +0.066 C 
ATOM     22  C   UNL     1     -37.092  58.154  17.099  0.00  0.00    -0.064 C 
ATOM     23  N   UNL     1     -36.466  56.796  17.422  0.00  0.00    +0.379 N 
ATOM     24  C   UNL     1     -37.530  55.814  17.678  0.00  0.00    -0.096 C 
ATOM     25  H   UNL     1     -35.878  56.910  18.361  0.00  0.00    -0.082 HD
ATOM     26  C   UNL     1     -35.505  56.362  16.325  0.00  0.00    -0.064 C 
ATOM     27  C   UNL     1     -34.400  57.432  16.103  0.00  0.00    +0.066 C 
ENDBRANCH  19  20
ENDBRANCH  18  19
ENDBRANCH  14  15
ENDBRANCH  12  13
TORSDOF 6
ENDMDL
MODEL 2
REMARK VINA RESULT:      -8.6      1.916      2.883
REMARK  Name = C:\Users\Docking\Desktop\test protocol\1iep_ligandH.pdb
REMARK  8 active torsions:
REMARK  status: ('A' for Active; 'I' for Inactive)
REMARK    1  A    between atoms: _5  and  _11
REMARK    2  A    between atoms: _19  and  _21
REMARK    3  A    between atoms: _22  and  _66
REMARK    4  A    between atoms: _27  and  _30
REMARK    5  A    between atoms: _32  and  _33
REMARK    6  A    between atoms: _38  and  _43
REMARK    7  A    between atoms: _43  and  _46
REMARK    8  A    between atoms: _53  and  _55
REMARK                            x       y       z     vdW  Elec       q    Type
REMARK                         _______ _______ _______ _____ _____    ______ ____
ROOT
ATOM     10  C   UNL     1     -25.730  57.254   9.729  0.00  0.00    +0.038 A 
ATOM     11  C   UNL     1     -26.791  57.605  10.603  0.00  0.00    +0.047 A 
ATOM     12  C   UNL     1     -27.601  58.789  10.365  0.00  0.00    +0.035 A 
ATOM     32  C   UNL     1     -27.304  59.593   9.225  0.00  0.00    +0.024 A 
ATOM     33  C   UNL     1     -26.229  59.251   8.328  0.00  0.00    +0.007 A 
ATOM     34  C   UNL     1     -25.425  58.085   8.559  0.00  0.00    -0.029 A 
ATOM     35  C   UNL     1     -24.280  57.771   7.567  0.00  0.00    +0.045 C 
ENDROOT
BRANCH  10   9
ATOM      4  C   UNL     1     -22.259  54.927  12.091  0.00  0.00    +0.077 A 
ATOM      5  C   UNL     1     -21.882  56.105  12.817  0.00  0.00    +0.048 A 
ATOM      6  C   UNL     1     -22.601  57.291  12.548  0.00  0.00    +0.116 A 
ATOM      7  N   UNL     1     -23.620  57.287  11.621  0.00  0.00    -0.223 NA
ATOM      8  C   UNL     1     -23.958  56.134  10.937  0.00  0.00    +0.220 A 
ATOM      9  N   UNL     1     -24.984  56.105  10.006  0.00  0.00    -0.283 N 
ATOM     36  H   UNL     1     -25.198  55.236   9.517  0.00  0.00    +0.155 HD
ATOM     37  N   UNL     1     -23.285  54.989  11.175  0.00  0.00    -0.214 NA
BRANCH   4   3
ATOM      1  C   UNL     1     -20.303  51.904  13.619  0.00  0.00    +0.020 A 
ATOM      2  C   UNL     1     -20.927  53.201  13.500  0.00  0.00    +0.013 A 
ATOM      3  C   UNL     1     -21.596  53.596  12.267  0.00  0.00    +0.019 A 
ATOM     38  C   UNL     1     -21.616  52.647  11.164  0.00  0.00    +0.120 A 
ATOM     39  N   UNL     1     -21.005  51.406  11.306  0.00  0.00    -0.263 NA
ATOM     40  C   UNL     1     -20.357  51.015  12.488  0.00  0.00    +0.111 A 
ENDBRANCH   4   3
ENDBRANCH  10   9
BRANCH  12  13
ATOM     13  N   UNL     1     -28.686  59.200  11.221  0.00  0.00    -0.281 N 
ATOM     14  C   UNL     1     -30.033  58.909  11.088  0.00  0.00    +0.248 C 
ATOM     30  O   UNL     1     -30.540  58.425  10.086  0.00  0.00    -0.270 OA
ATOM     31  H   UNL     1     -28.429  59.775  12.023  0.00  0.00    +0.155 HD
BRANCH  14  15
ATOM     15  C   UNL     1     -30.954  59.211  12.226  0.00  0.00    +0.037 A 
ATOM     16  C   UNL     1     -32.409  59.175  12.057  0.00  0.00    +0.013 A 
ATOM     17  C   UNL     1     -33.274  59.488  13.166  0.00  0.00    +0.005 A 
ATOM     18  C   UNL     1     -32.685  59.839  14.457  0.00  0.00    -0.033 A 
ATOM     28  C   UNL     1     -31.238  59.862  14.598  0.00  0.00    +0.005 A 
ATOM     29  C   UNL     1     -30.387  59.557  13.512  0.00  0.00    +0.013 A 
BRANCH  18  19
ATOM     19  C   UNL     1     -33.531  60.208  15.690  0.00  0.00    +0.119 C 
BRANCH  19  20
ATOM     20  N   UNL     1     -34.008  61.619  15.794  0.00  0.00    -0.302 NA
ATOM     21  C   UNL     1     -35.513  61.738  15.538  0.00  0.00    +0.066 C 
ATOM     22  C   UNL     1     -35.998  63.218  15.674  0.00  0.00    -0.064 C 
ATOM     23  N   UNL     1     -35.212  64.101  14.703  0.00  0.00    +0.379 N 
ATOM     24  C   UNL     1     -35.707  65.483  14.787  0.00  0.00    -0.096 C 
ATOM     25  H   UNL     1     -35.414  63.731  13.671  0.00  0.00    -0.082 HD
ATOM     26  C   UNL     1     -33.715  63.987  14.949  0.00  0.00    -0.064 C 
ATOM     27  C   UNL     1     -33.248  62.508  14.841  0.00  0.00    +0.066 C 
ENDBRANCH  19  20
ENDBRANCH  18  19
ENDBRANCH  14  15
ENDBRANCH  12  13
TORSDOF 6
ENDMDL
MODEL 3
REMARK VINA RESULT:      -8.5      1.924      2.975
REMARK  Name = C:\Users\Docking\Desktop\test protocol\1iep_ligandH.pdb
REMARK  8 active torsions:
REMARK  status: ('A' for Active; 'I' for Inactive)
REMARK    1  A    between atoms: _5  and  _11
REMARK    2  A    between atoms: _19  and  _21
REMARK    3  A    between atoms: _22  and  _66
REMARK    4  A    between atoms: _27  and  _30
REMARK    5  A    between atoms: _32  and  _33
REMARK    6  A    between atoms: _38  and  _43
REMARK    7  A    between atoms: _43  and  _46
REMARK    8  A    between atoms: _53  and  _55
REMARK                            x       y       z     vdW  Elec       q    Type
REMARK                         _______ _______ _______ _____ _____    ______ ____
ROOT
ATOM     10  C   UNL     1     -25.728  57.250   9.722  0.00  0.00    +0.038 A 
ATOM     11  C   UNL     1     -26.854  57.614  10.504  0.00  0.00    +0.047 A 
ATOM     12  C   UNL     1     -27.616  58.818  10.211  0.00  0.00    +0.035 A 
ATOM     32  C   UNL     1     -27.205  59.627   9.111  0.00  0.00    +0.024 A 
ATOM     33  C   UNL     1     -26.063  59.272   8.307  0.00  0.00    +0.007 A 
ATOM     34  C   UNL     1     -25.305  58.087   8.593  0.00  0.00    -0.029 A 
ATOM     35  C   UNL     1     -24.086  57.760   7.700  0.00  0.00    +0.045 C 
ENDROOT
BRANCH  10   9
ATOM      4  C   UNL     1     -22.368  54.877  12.195  0.00  0.00    +0.077 A 
ATOM      5  C   UNL     1     -21.944  56.067  12.875  0.00  0.00    +0.048 A 
ATOM      6  C   UNL     1     -22.612  57.270  12.555  0.00  0.00    +0.116 A 
ATOM      7  N   UNL     1     -23.627  57.271  11.622  0.00  0.00    -0.223 NA
ATOM      8  C   UNL     1     -24.010  56.107  10.983  0.00  0.00    +0.220 A 
ATOM      9  N   UNL     1     -25.033  56.084  10.048  0.00  0.00    -0.283 N 
ATOM     36  H   UNL     1     -25.280  55.205   9.593  0.00  0.00    +0.155 HD
ATOM     37  N   UNL     1     -23.387  54.945  11.271  0.00  0.00    -0.214 NA
BRANCH   4   3
ATOM      1  C   UNL     1     -20.239  51.944  13.667  0.00  0.00    +0.020 A 
ATOM      2  C   UNL     1     -20.793  53.266  13.484  0.00  0.00    +0.013 A 
ATOM      3  C   UNL     1     -21.762  53.528  12.427  0.00  0.00    +0.019 A 
ATOM     38  C   UNL     1     -22.153  52.421  11.566  0.00  0.00    +0.120 A 
ATOM     39  N   UNL     1     -21.601  51.160  11.765  0.00  0.00    -0.263 NA
ATOM     40  C   UNL     1     -20.666  50.896  12.777  0.00  0.00    +0.111 A 
ENDBRANCH   4   3
ENDBRANCH  10   9
BRANCH  12  13
ATOM     13  N   UNL     1     -28.763  59.243  10.974  0.00  0.00    -0.281 N 
ATOM     14  C   UNL     1     -30.097  58.946  10.744  0.00  0.00    +0.248 C 
ATOM     30  O   UNL     1     -30.526  58.443   9.717  0.00  0.00    -0.270 OA
ATOM     31  H   UNL     1     -28.568  59.833  11.783  0.00  0.00    +0.155 HD
BRANCH  14  15
ATOM     15  C   UNL     1     -31.101  59.268  11.803  0.00  0.00    +0.037 A 
ATOM     16  C   UNL     1     -30.749  59.221  13.225  0.00  0.00    +0.013 A 
ATOM     17  C   UNL     1     -31.741  59.520  14.226  0.00  0.00    +0.005 A 
ATOM     18  C   UNL     1     -33.097  59.871  13.809  0.00  0.00    -0.033 A 
ATOM     28  C   UNL     1     -33.418  59.915  12.392  0.00  0.00    +0.005 A 
ATOM     29  C   UNL     1     -32.448  59.622  11.408  0.00  0.00    +0.013 A 
BRANCH  18  19
ATOM     19  C   UNL     1     -34.225  60.184  14.809  0.00  0.00    +0.119 C 
BRANCH  19  20
ATOM     20  N   UNL     1     -34.653  61.609  14.933  0.00  0.00    -0.302 NA
ATOM     21  C   UNL     1     -33.514  62.511  15.417  0.00  0.00    +0.066 C 
ATOM     22  C   UNL     1     -33.972  64.002  15.519  0.00  0.00    -0.064 C 
ATOM     23  N   UNL     1     -35.176  64.100  16.458  0.00  0.00    +0.379 N 
ATOM     24  C   UNL     1     -35.573  65.508  16.602  0.00  0.00    -0.096 C 
ATOM     25  H   UNL     1     -34.853  63.735  17.461  0.00  0.00    -0.082 HD
ATOM     26  C   UNL     1     -36.312  63.204  15.986  0.00  0.00    -0.064 C 
ATOM     27  C   UNL     1     -35.838  61.729  15.859  0.00  0.00    +0.066 C 
ENDBRANCH  19  20
ENDBRANCH  18  19
ENDBRANCH  14  15
ENDBRANCH  12  13
TORSDOF 6
ENDMDL
