MODEL 1
REMARK VINA RESULT:      -8.9      0.000      0.000
REMARK  Name = C:\Users\Docking\Desktop\test protocol\1iep_ligandH.pdb
REMARK  8 active torsions:
REMARK  status: ('A' for Active; 'I' for Inactive)
REMARK    1  A    between atoms: _5  and  _11
REMARK    2  A    between atoms: _19  and  _21
REMARK    3  A    between atoms: _22  and  _66
REMARK    4  A    between atoms: _27  and  _30
REMARK    5  A    between atoms: _32  and  _33
REMARK    6  A    between atoms: _38  and  _43
REMARK    7  A    between atoms: _43  and  _46
REMARK    8  A    between atoms: _53  and  _55
REMARK                            x       y       z     vdW  Elec       q    Type
REMARK                         _______ _______ _______ _____ _____    ______ ____
ROOT
ATOM     10  C   UNL     1      12.687  57.281  41.533  0.00  0.00    +0.038 A 
ATOM     11  C   UNL     1      13.153  58.497  40.972  0.00  0.00    +0.047 A 
ATOM     12  C   UNL     1      12.399  59.732  41.121  0.00  0.00    +0.035 A 
ATOM     32  C   UNL     1      11.176  59.693  41.851  0.00  0.00    +0.024 A 
ATOM     33  C   UNL     1      10.687  58.465  42.427  0.00  0.00    +0.007 A 
ATOM     34  C   UNL     1      11.425  57.243  42.281  0.00  0.00    -0.029 A 
ATOM     35  C   UNL     1      10.850  55.954  42.914  0.00  0.00    +0.045 C 
ENDROOT
BRANCH  10   9
ATOM      4  C   UNL     1      13.917  53.351  39.067  0.00  0.00    +0.077 A 
ATOM      5  C   UNL     1      12.936  53.609  38.053  0.00  0.00    +0.048 A 
ATOM      6  C   UNL     1      12.130  54.759  38.207  0.00  0.00    +0.116 A 
ATOM      7  N   UNL     1      12.302  55.583  39.297  0.00  0.00    -0.223 NA
ATOM      8  C   UNL     1      13.256  55.305  40.258  0.00  0.00    +0.220 A 
ATOM      9  N   UNL     1      13.452  56.125  41.359  0.00  0.00    -0.283 N 
ATOM     36  H   UNL     1      14.161  55.881  42.050  0.00  0.00    +0.155 HD
ATOM     37  N   UNL     1      14.038  54.212  40.135  0.00  0.00    -0.214 NA
BRANCH   4   3
ATOM      1  C   UNL     1      15.319  49.700  39.015  0.00  0.00    +0.020 A 
ATOM      2  C   UNL     1      14.380  50.797  39.039  0.00  0.00    +0.013 A 
ATOM      3  C   UNL     1      14.847  52.178  39.043  0.00  0.00    +0.019 A 
ATOM     38  C   UNL     1      16.282  52.415  39.022  0.00  0.00    +0.120 A 
ATOM     39  N   UNL     1      17.163  51.339  39.001  0.00  0.00    -0.263 NA
ATOM     40  C   UNL     1      16.725  50.006  38.999  0.00  0.00    +0.111 A 
ENDBRANCH   4   3
ENDBRANCH  10   9
BRANCH  12  13
ATOM     13  N   UNL     1      12.818  60.996  40.567  0.00  0.00    -0.281 N 
ATOM     14  C   UNL     1      13.292  62.107  41.244  0.00  0.00    +0.248 C 
ATOM     30  O   UNL     1      13.226  62.259  42.455  0.00  0.00    -0.270 OA
ATOM     31  H   UNL     1      12.758  61.081  39.552  0.00  0.00    +0.155 HD
BRANCH  14  15
ATOM     15  C   UNL     1      13.917  63.217  40.462  0.00  0.00    +0.037 A 
ATOM     16  C   UNL     1      14.244  63.056  39.043  0.00  0.00    +0.013 A 
ATOM     17  C   UNL     1      14.862  64.137  38.316  0.00  0.00    +0.005 A 
ATOM     18  C   UNL     1      15.156  65.389  39.007  0.00  0.00    -0.033 A 
ATOM     28  C   UNL     1      14.816  65.524  40.414  0.00  0.00    +0.005 A 
ATOM     29  C   UNL     1      14.212  64.467  41.130  0.00  0.00    +0.013 A 
BRANCH  18  19
ATOM     19  C   UNL     1      15.833  66.588  38.316  0.00  0.00    +0.119 C 
BRANCH  19  20
ATOM     20  N   UNL     1      17.054  67.151  38.966  0.00  0.00    -0.302 NA
ATOM     21  C   UNL     1      17.483  68.476  38.330  0.00  0.00    +0.066 C 
ATOM     22  C   UNL     1      18.749  69.063  39.036  0.00  0.00    -0.064 C 
ATOM     23  N   UNL     1      19.884  68.040  38.974  0.00  0.00    +0.379 N 
ATOM     24  C   UNL     1      21.093  68.611  39.586  0.00  0.00    -0.096 C 
ATOM     25  H   UNL     1      20.108  67.848  37.899  0.00  0.00    -0.082 HD
ATOM     26  C   UNL     1      19.465  66.718  39.602  0.00  0.00    -0.064 C 
ATOM     27  C   UNL     1      18.189  66.159  38.912  0.00  0.00    +0.066 C 
ENDBRANCH  19  20
ENDBRANCH  18  19
ENDBRANCH  14  15
ENDBRANCH  12  13
TORSDOF 6
ENDMDL
MODEL 2
REMARK VINA RESULT:      -8.8     29.337     33.919
REMARK  Name = C:\Users\Docking\Desktop\test protocol\1iep_ligandH.pdb
REMARK  8 active torsions:
REMARK  status: ('A' for Active; 'I' for Inactive)
REMARK    1  A    between atoms: _5  and  _11
REMARK    2  A    between atoms: _19  and  _21
REMARK    3  A    between atoms: _22  and  _66
REMARK    4  A    between atoms: _27  and  _30
REMARK    5  A    between atoms: _32  and  _33
REMARK    6  A    between atoms: _38  and  _43
REMARK    7  A    between atoms: _43  and  _46
REMARK    8  A    between atoms: _53  and  _55
REMARK                            x       y       z     vdW  Elec       q    Type
REMARK                         _______ _______ _______ _____ _____    ______ ____
ROOT
ATOM     10  C   UNL     1      -7.839  49.990  22.504  0.00  0.00    +0.038 A 
ATOM     11  C   UNL     1      -8.084  50.026  21.107  0.00  0.00    +0.047 A 
ATOM     12  C   UNL     1      -8.874  48.993  20.455  0.00  0.00    +0.035 A 
ATOM     32  C   UNL     1      -9.403  47.940  21.257  0.00  0.00    +0.024 A 
ATOM     33  C   UNL     1      -9.163  47.888  22.678  0.00  0.00    +0.007 A 
ATOM     34  C   UNL     1      -8.382  48.902  23.326  0.00  0.00    -0.029 A 
ATOM     35  C   UNL     1      -8.152  48.792  24.851  0.00  0.00    +0.045 C 
ENDROOT
BRANCH  10   9
ATOM      4  C   UNL     1      -7.383  54.331  24.499  0.00  0.00    +0.077 A 
ATOM      5  C   UNL     1      -8.784  54.607  24.363  0.00  0.00    +0.048 A 
ATOM      6  C   UNL     1      -9.587  53.608  23.767  0.00  0.00    +0.116 A 
ATOM      7  N   UNL     1      -9.019  52.425  23.344  0.00  0.00    -0.223 NA
ATOM      8  C   UNL     1      -7.664  52.192  23.489  0.00  0.00    +0.220 A 
ATOM      9  N   UNL     1      -7.074  51.007  23.078  0.00  0.00    -0.283 N 
ATOM     36  H   UNL     1      -6.069  50.877  23.196  0.00  0.00    +0.155 HD
ATOM     37  N   UNL     1      -6.876  53.131  24.053  0.00  0.00    -0.214 NA
BRANCH   4   3
ATOM      1  C   UNL     1      -5.785  57.521  26.104  0.00  0.00    +0.020 A 
ATOM      2  C   UNL     1      -6.767  56.639  25.517  0.00  0.00    +0.013 A 
ATOM      3  C   UNL     1      -6.406  55.286  25.111  0.00  0.00    +0.019 A 
ATOM     38  C   UNL     1      -5.031  54.854  25.316  0.00  0.00    +0.120 A 
ATOM     39  N   UNL     1      -4.107  55.726  25.883  0.00  0.00    -0.263 NA
ATOM     40  C   UNL     1      -4.443  57.030  26.275  0.00  0.00    +0.111 A 
ENDBRANCH   4   3
ENDBRANCH  10   9
BRANCH  12  13
ATOM     13  N   UNL     1      -9.149  48.972  19.040  0.00  0.00    -0.281 N 
ATOM     14  C   UNL     1     -10.343  49.263  18.400  0.00  0.00    +0.248 C 
ATOM     30  O   UNL     1     -11.420  49.380  18.965  0.00  0.00    -0.270 OA
ATOM     31  H   UNL     1      -8.369  48.711  18.437  0.00  0.00    +0.155 HD
BRANCH  14  15
ATOM     15  C   UNL     1     -10.342  49.436  16.915  0.00  0.00    +0.037 A 
ATOM     16  C   UNL     1     -11.096  50.517  16.275  0.00  0.00    +0.013 A 
ATOM     17  C   UNL     1     -11.093  50.650  14.840  0.00  0.00    +0.005 A 
ATOM     18  C   UNL     1     -10.330  49.700  14.034  0.00  0.00    -0.033 A 
ATOM     28  C   UNL     1      -9.586  48.640  14.695  0.00  0.00    +0.005 A 
ATOM     29  C   UNL     1      -9.588  48.506  16.102  0.00  0.00    +0.013 A 
BRANCH  18  19
ATOM     19  C   UNL     1     -10.286  49.754  12.496  0.00  0.00    +0.119 C 
BRANCH  19  20
ATOM     20  N   UNL     1      -9.284  48.886  11.809  0.00  0.00    -0.302 NA
ATOM     21  C   UNL     1      -8.189  49.706  11.121  0.00  0.00    +0.066 C 
ATOM     22  C   UNL     1      -7.136  48.781  10.428  0.00  0.00    -0.064 C 
ATOM     23  N   UNL     1      -7.844  47.872   9.422  0.00  0.00    +0.379 N 
ATOM     24  C   UNL     1      -6.850  47.041   8.726  0.00  0.00    -0.096 C 
ATOM     25  H   UNL     1      -8.332  48.525   8.661  0.00  0.00    -0.082 HD
ATOM     26  C   UNL     1      -8.937  47.055  10.097  0.00  0.00    -0.064 C 
ATOM     27  C   UNL     1      -9.961  47.982  10.809  0.00  0.00    +0.066 C 
ENDBRANCH  19  20
ENDBRANCH  18  19
ENDBRANCH  14  15
ENDBRANCH  12  13
TORSDOF 6
ENDMDL
MODEL 3
REMARK VINA RESULT:      -8.7     37.808     41.859
REMARK  Name = C:\Users\Docking\Desktop\test protocol\1iep_ligandH.pdb
REMARK  8 active torsions:
REMARK  status: ('A' for Active; 'I' for Inactive)
REMARK    1  A    between atoms: _5  and  _11
REMARK    2  A    between atoms: _19  and  _21
REMARK    3  A    between atoms: _22  and  _66
REMARK    4  A    between atoms: _27  and  _30
REMARK    5  A    between atoms: _32  and  _33
REMARK    6  A    between atoms: _38  and  _43
REMARK    7  A    between atoms: _43  and  _46
REMARK    8  A    between atoms: _53  and  _55
REMARK                            x       y       z     vdW  Elec       q    Type
REMARK                         _______ _______ _______ _____ _____    ______ ____
ROOT
ATOM     10  C   UNL     1     -17.241  51.255  15.705  0.00  0.00    +0.038 A 
ATOM     11  C   UNL     1     -15.934  51.062  15.187  0.00  0.00    +0.047 A 
ATOM     12  C   UNL     1     -15.117  49.935  15.609  0.00  0.00    +0.035 A 
ATOM     32  C   UNL     1     -15.662  49.022  16.558  0.00  0.00    +0.024 A 
ATOM     33  C   UNL     1     -16.988  49.204  17.095  0.00  0.00    +0.007 A 
ATOM     34  C   UNL     1     -17.798  50.315  16.685  0.00  0.00    -0.029 A 
ATOM     35  C   UNL     1     -19.210  50.464  17.299  0.00  0.00    +0.045 C 
ENDROOT
BRANCH  10   9
ATOM      4  C   UNL     1     -20.507  53.280  12.830  0.00  0.00    +0.077 A 
ATOM      5  C   UNL     1     -20.737  52.051  12.126  0.00  0.00    +0.048 A 
ATOM      6  C   UNL     1     -19.989  50.923  12.531  0.00  0.00    +0.116 A 
ATOM      7  N   UNL     1     -19.082  51.027  13.563  0.00  0.00    -0.223 NA
ATOM      8  C   UNL     1     -18.883  52.228  14.219  0.00  0.00    +0.220 A 
ATOM      9  N   UNL     1     -17.982  52.354  15.265  0.00  0.00    -0.283 N 
ATOM     36  H   UNL     1     -17.859  53.259  15.718  0.00  0.00    +0.155 HD
ATOM     37  N   UNL     1     -19.584  53.321  13.851  0.00  0.00    -0.214 NA
BRANCH   4   3
ATOM      1  C   UNL     1     -21.801  56.968  12.996  0.00  0.00    +0.020 A 
ATOM      2  C   UNL     1     -21.088  55.759  13.338  0.00  0.00    +0.013 A 
ATOM      3  C   UNL     1     -21.222  54.559  12.521  0.00  0.00    +0.019 A 
ATOM     38  C   UNL     1     -22.091  54.617  11.355  0.00  0.00    +0.120 A 
ATOM     39  N   UNL     1     -22.766  55.795  11.051  0.00  0.00    -0.263 NA
ATOM     40  C   UNL     1     -22.646  56.956  11.831  0.00  0.00    +0.111 A 
ENDBRANCH   4   3
ENDBRANCH  10   9
BRANCH  12  13
ATOM     13  N   UNL     1     -13.781  49.692  15.124  0.00  0.00    -0.281 N 
ATOM     14  C   UNL     1     -13.350  49.633  13.809  0.00  0.00    +0.248 C 
ATOM     30  O   UNL     1     -14.092  49.568  12.840  0.00  0.00    -0.270 OA
ATOM     31  H   UNL     1     -13.066  49.546  15.837  0.00  0.00    +0.155 HD
BRANCH  14  15
ATOM     15  C   UNL     1     -11.881  49.632  13.529  0.00  0.00    +0.037 A 
ATOM     16  C   UNL     1     -11.304  50.493  12.494  0.00  0.00    +0.013 A 
ATOM     17  C   UNL     1      -9.886  50.459  12.234  0.00  0.00    +0.005 A 
ATOM     18  C   UNL     1      -9.036  49.561  13.011  0.00  0.00    -0.033 A 
ATOM     28  C   UNL     1      -9.635  48.721  14.036  0.00  0.00    +0.005 A 
ATOM     29  C   UNL     1     -11.024  48.751  14.293  0.00  0.00    +0.013 A 
BRANCH  18  19
ATOM     19  C   UNL     1      -7.517  49.444  12.786  0.00  0.00    +0.119 C 
BRANCH  19  20
ATOM     20  N   UNL     1      -7.056  49.052  11.421  0.00  0.00    -0.302 NA
ATOM     21  C   UNL     1      -7.842  47.858  10.870  0.00  0.00    +0.066 C 
ATOM     22  C   UNL     1      -7.362  47.476   9.433  0.00  0.00    -0.064 C 
ATOM     23  N   UNL     1      -5.864  47.170   9.463  0.00  0.00    +0.379 N 
ATOM     24  C   UNL     1      -5.421  46.753   8.124  0.00  0.00    -0.096 C 
ATOM     25  H   UNL     1      -5.708  46.309  10.154  0.00  0.00    -0.082 HD
ATOM     26  C   UNL     1      -5.075  48.350  10.012  0.00  0.00    -0.064 C 
ATOM     27  C   UNL     1      -5.580  48.741  11.429  0.00  0.00    +0.066 C 
ENDBRANCH  19  20
ENDBRANCH  18  19
ENDBRANCH  14  15
ENDBRANCH  12  13
TORSDOF 6
ENDMDL
