MODEL 1
REMARK VINA RESULT:     -12.2      0.000      0.000
REMARK  Name = C:\Users\Docking\Desktop\test protocol\1iep_ligandH.pdb
REMARK  8 active torsions:
REMARK  status: ('A' for Active; 'I' for Inactive)
REMARK    1  A    between atoms: _5  and  _11
REMARK    2  A    between atoms: _19  and  _21
REMARK    3  A    between atoms: _22  and  _66
REMARK    4  A    between atoms: _27  and  _30
REMARK    5  A    between atoms: _32  and  _33
REMARK    6  A    between atoms: _38  and  _43
REMARK    7  A    between atoms: _43  and  _46
REMARK    8  A    between atoms: _53  and  _55
REMARK                            x       y       z     vdW  Elec       q    Type
REMARK                         _______ _______ _______ _____ _____    ______ ____
ROOT
ATOM     10  C   UNL     1     104.245  45.640  73.615  0.00  0.00    +0.038 A 
ATOM     11  C   UNL     1     102.884  45.864  73.288  0.00  0.00    +0.047 A 
ATOM     12  C   UNL     1     101.892  46.112  74.323  0.00  0.00    +0.035 A 
ATOM     32  C   UNL     1     102.323  46.126  75.681  0.00  0.00    +0.024 A 
ATOM     33  C   UNL     1     103.703  45.899  76.032  0.00  0.00    +0.007 A 
ATOM     34  C   UNL     1     104.685  45.652  75.015  0.00  0.00    -0.029 A 
ATOM     35  C   UNL     1     106.149  45.409  75.449  0.00  0.00    +0.045 C 
ENDROOT
BRANCH  10   9
ATOM      4  C   UNL     1     107.394  47.160  70.326  0.00  0.00    +0.077 A 
ATOM      5  C   UNL     1     107.190  48.535  70.680  0.00  0.00    +0.048 A 
ATOM      6  C   UNL     1     106.261  48.809  71.709  0.00  0.00    +0.116 A 
ATOM      7  N   UNL     1     105.592  47.777  72.330  0.00  0.00    -0.223 NA
ATOM      8  C   UNL     1     105.811  46.462  71.964  0.00  0.00    +0.220 A 
ATOM      9  N   UNL     1     105.155  45.408  72.581  0.00  0.00    -0.283 N 
ATOM     36  H   UNL     1     105.339  44.452  72.276  0.00  0.00    +0.155 HD
ATOM     37  N   UNL     1     106.692  46.174  70.983  0.00  0.00    -0.214 NA
BRANCH   4   3
ATOM      1  C   UNL     1     108.898  46.049  66.891  0.00  0.00    +0.020 A 
ATOM      2  C   UNL     1     107.940  46.483  67.880  0.00  0.00    +0.013 A 
ATOM      3  C   UNL     1     108.346  46.710  69.262  0.00  0.00    +0.019 A 
ATOM     38  C   UNL     1     109.741  46.487  69.611  0.00  0.00    +0.120 A 
ATOM     39  N   UNL     1     110.641  46.067  68.637  0.00  0.00    -0.263 NA
ATOM     40  C   UNL     1     110.261  45.844  67.305  0.00  0.00    +0.111 A 
ENDBRANCH   4   3
ENDBRANCH  10   9
BRANCH  12  13
ATOM     13  N   UNL     1     100.494  46.338  74.052  0.00  0.00    -0.281 N 
ATOM     14  C   UNL     1      99.433  45.474  74.271  0.00  0.00    +0.248 C 
ATOM     30  O   UNL     1      99.552  44.288  74.538  0.00  0.00    -0.270 OA
ATOM     31  H   UNL     1     100.258  47.245  73.649  0.00  0.00    +0.155 HD
BRANCH  14  15
ATOM     15  C   UNL     1      98.039  46.002  74.165  0.00  0.00    +0.037 A 
ATOM     16  C   UNL     1      96.958  45.464  74.994  0.00  0.00    +0.013 A 
ATOM     17  C   UNL     1      95.618  45.979  74.860  0.00  0.00    +0.005 A 
ATOM     18  C   UNL     1      95.353  47.040  73.892  0.00  0.00    -0.033 A 
ATOM     28  C   UNL     1      96.445  47.559  73.085  0.00  0.00    +0.005 A 
ATOM     29  C   UNL     1      97.759  47.056  73.214  0.00  0.00    +0.013 A 
BRANCH  18  19
ATOM     19  C   UNL     1      93.950  47.635  73.666  0.00  0.00    +0.119 C 
BRANCH  19  20
ATOM     20  N   UNL     1      93.129  47.051  72.564  0.00  0.00    -0.302 NA
ATOM     21  C   UNL     1      92.595  48.126  71.613  0.00  0.00    +0.066 C 
ATOM     22  C   UNL     1      91.757  47.495  70.454  0.00  0.00    -0.064 C 
ATOM     23  N   UNL     1      90.608  46.676  71.045  0.00  0.00    +0.379 N 
ATOM     24  C   UNL     1      89.784  46.130  69.958  0.00  0.00    -0.096 C 
ATOM     25  H   UNL     1      89.969  47.371  71.638  0.00  0.00    -0.082 HD
ATOM     26  C   UNL     1      91.131  45.607  71.994  0.00  0.00    -0.064 C 
ATOM     27  C   UNL     1      91.986  46.241  73.126  0.00  0.00    +0.066 C 
ENDBRANCH  19  20
ENDBRANCH  18  19
ENDBRANCH  14  15
ENDBRANCH  12  13
TORSDOF 6
ENDMDL
MODEL 2
REMARK VINA RESULT:     -10.6      2.358      3.108
REMARK  Name = C:\Users\Docking\Desktop\test protocol\1iep_ligandH.pdb
REMARK  8 active torsions:
REMARK  status: ('A' for Active; 'I' for Inactive)
REMARK    1  A    between atoms: _5  and  _11
REMARK    2  A    between atoms: _19  and  _21
REMARK    3  A    between atoms: _22  and  _66
REMARK    4  A    between atoms: _27  and  _30
REMARK    5  A    between atoms: _32  and  _33
REMARK    6  A    between atoms: _38  and  _43
REMARK    7  A    between atoms: _43  and  _46
REMARK    8  A    between atoms: _53  and  _55
REMARK                            x       y       z     vdW  Elec       q    Type
REMARK                         _______ _______ _______ _____ _____    ______ ____
ROOT
ATOM     10  C   UNL     1     104.043  45.227  73.772  0.00  0.00    +0.038 A 
ATOM     11  C   UNL     1     102.771  45.808  73.534  0.00  0.00    +0.047 A 
ATOM     12  C   UNL     1     101.787  45.925  74.599  0.00  0.00    +0.035 A 
ATOM     32  C   UNL     1     102.133  45.443  75.895  0.00  0.00    +0.024 A 
ATOM     33  C   UNL     1     103.421  44.849  76.154  0.00  0.00    +0.007 A 
ATOM     34  C   UNL     1     104.395  44.728  75.107  0.00  0.00    -0.029 A 
ATOM     35  C   UNL     1     105.758  44.077  75.440  0.00  0.00    +0.045 C 
ENDROOT
BRANCH  10   9
ATOM      4  C   UNL     1     108.102  46.516  71.558  0.00  0.00    +0.077 A 
ATOM      5  C   UNL     1     108.431  47.463  72.584  0.00  0.00    +0.048 A 
ATOM      6  C   UNL     1     107.525  47.594  73.661  0.00  0.00    +0.116 A 
ATOM      7  N   UNL     1     106.380  46.828  73.699  0.00  0.00    -0.223 NA
ATOM      8  C   UNL     1     106.092  45.925  72.692  0.00  0.00    +0.220 A 
ATOM      9  N   UNL     1     104.950  45.140  72.713  0.00  0.00    -0.283 N 
ATOM     36  H   UNL     1     104.770  44.491  71.947  0.00  0.00    +0.155 HD
ATOM     37  N   UNL     1     106.940  45.783  71.652  0.00  0.00    -0.214 NA
BRANCH   4   3
ATOM      1  C   UNL     1     109.339  45.376  68.026  0.00  0.00    +0.020 A 
ATOM      2  C   UNL     1     108.468  45.596  69.158  0.00  0.00    +0.013 A 
ATOM      3  C   UNL     1     108.961  46.262  70.358  0.00  0.00    +0.019 A 
ATOM     38  C   UNL     1     110.349  46.697  70.380  0.00  0.00    +0.120 A 
ATOM     39  N   UNL     1     111.164  46.469  69.275  0.00  0.00    -0.263 NA
ATOM     40  C   UNL     1     110.702  45.828  68.116  0.00  0.00    +0.111 A 
ENDBRANCH   4   3
ENDBRANCH  10   9
BRANCH  12  13
ATOM     13  N   UNL     1     100.477  46.498  74.415  0.00  0.00    -0.281 N 
ATOM     14  C   UNL     1      99.253  45.849  74.436  0.00  0.00    +0.248 C 
ATOM     30  O   UNL     1      99.114  44.635  74.404  0.00  0.00    -0.270 OA
ATOM     31  H   UNL     1     100.448  47.504  74.250  0.00  0.00    +0.155 HD
BRANCH  14  15
ATOM     15  C   UNL     1      98.003  46.667  74.486  0.00  0.00    +0.037 A 
ATOM     16  C   UNL     1      97.425  47.095  75.762  0.00  0.00    +0.013 A 
ATOM     17  C   UNL     1      96.209  47.868  75.782  0.00  0.00    +0.005 A 
ATOM     18  C   UNL     1      95.563  48.220  74.520  0.00  0.00    -0.033 A 
ATOM     28  C   UNL     1      96.161  47.787  73.268  0.00  0.00    +0.005 A 
ATOM     29  C   UNL     1      97.352  47.028  73.244  0.00  0.00    +0.013 A 
BRANCH  18  19
ATOM     19  C   UNL     1      94.252  49.025  74.447  0.00  0.00    +0.119 C 
BRANCH  19  20
ATOM     20  N   UNL     1      94.315  50.381  73.824  0.00  0.00    -0.302 NA
ATOM     21  C   UNL     1      94.169  50.320  72.301  0.00  0.00    +0.066 C 
ATOM     22  C   UNL     1      94.214  51.749  71.668  0.00  0.00    -0.064 C 
ATOM     23  N   UNL     1      95.524  52.435  72.059  0.00  0.00    +0.379 N 
ATOM     24  C   UNL     1      95.597  53.756  71.418  0.00  0.00    -0.096 C 
ATOM     25  H   UNL     1      96.362  51.818  71.658  0.00  0.00    -0.082 HD
ATOM     26  C   UNL     1      95.679  52.497  73.572  0.00  0.00    -0.064 C 
ATOM     27  C   UNL     1      95.603  51.075  74.194  0.00  0.00    +0.066 C 
ENDBRANCH  19  20
ENDBRANCH  18  19
ENDBRANCH  14  15
ENDBRANCH  12  13
TORSDOF 6
ENDMDL
