MODEL 1
REMARK VINA RESULT:      -8.8      0.000      0.000
REMARK  Name = C:\Users\Docking\Desktop\test protocol\1iep_ligandH.pdb
REMARK  8 active torsions:
REMARK  status: ('A' for Active; 'I' for Inactive)
REMARK    1  A    between atoms: _5  and  _11
REMARK    2  A    between atoms: _19  and  _21
REMARK    3  A    between atoms: _22  and  _66
REMARK    4  A    between atoms: _27  and  _30
REMARK    5  A    between atoms: _32  and  _33
REMARK    6  A    between atoms: _38  and  _43
REMARK    7  A    between atoms: _43  and  _46
REMARK    8  A    between atoms: _53  and  _55
REMARK                            x       y       z     vdW  Elec       q    Type
REMARK                         _______ _______ _______ _____ _____    ______ ____
ROOT
ATOM     10  C   UNL     1     -20.222  52.545  11.834  0.00  0.00    +0.038 A 
ATOM     11  C   UNL     1     -18.821  52.407  12.006  0.00  0.00    +0.047 A 
ATOM     12  C   UNL     1     -18.266  51.349  12.836  0.00  0.00    +0.035 A 
ATOM     32  C   UNL     1     -19.167  50.448  13.475  0.00  0.00    +0.024 A 
ATOM     33  C   UNL     1     -20.594  50.575  13.312  0.00  0.00    +0.007 A 
ATOM     34  C   UNL     1     -21.147  51.618  12.496  0.00  0.00    -0.029 A 
ATOM     35  C   UNL     1     -22.685  51.710  12.362  0.00  0.00    +0.045 C 
ENDROOT
BRANCH  10   9
ATOM      4  C   UNL     1     -21.371  57.144  11.080  0.00  0.00    +0.077 A 
ATOM      5  C   UNL     1     -21.014  57.514  12.419  0.00  0.00    +0.048 A 
ATOM      6  C   UNL     1     -20.545  56.490  13.273  0.00  0.00    +0.116 A 
ATOM      7  N   UNL     1     -20.445  55.196  12.810  0.00  0.00    -0.223 NA
ATOM      8  C   UNL     1     -20.800  54.872  11.514  0.00  0.00    +0.220 A 
ATOM      9  N   UNL     1     -20.700  53.579  11.025  0.00  0.00    -0.283 N 
ATOM     36  H   UNL     1     -20.979  53.379  10.065  0.00  0.00    +0.155 HD
ATOM     37  N   UNL     1     -21.252  55.832  10.680  0.00  0.00    -0.214 NA
BRANCH   4   3
ATOM      1  C   UNL     1     -21.632  59.475   7.950  0.00  0.00    +0.020 A 
ATOM      2  C   UNL     1     -21.094  58.536   8.907  0.00  0.00    +0.013 A 
ATOM      3  C   UNL     1     -21.880  58.114  10.059  0.00  0.00    +0.019 A 
ATOM     38  C   UNL     1     -23.218  58.663  10.214  0.00  0.00    +0.120 A 
ATOM     39  N   UNL     1     -23.710  59.567   9.277  0.00  0.00    -0.263 NA
ATOM     40  C   UNL     1     -22.961  59.982   8.165  0.00  0.00    +0.111 A 
ENDBRANCH   4   3
ENDBRANCH  10   9
BRANCH  12  13
ATOM     13  N   UNL     1     -16.852  51.164  13.054  0.00  0.00    -0.281 N 
ATOM     14  C   UNL     1     -16.057  50.110  12.635  0.00  0.00    +0.248 C 
ATOM     30  O   UNL     1     -16.485  49.056  12.190  0.00  0.00    -0.270 OA
ATOM     31  H   UNL     1     -16.381  51.899  13.581  0.00  0.00    +0.155 HD
BRANCH  14  15
ATOM     15  C   UNL     1     -14.572  50.241  12.739  0.00  0.00    +0.037 A 
ATOM     16  C   UNL     1     -13.694  49.841  11.636  0.00  0.00    +0.013 A 
ATOM     17  C   UNL     1     -12.264  49.962  11.768  0.00  0.00    +0.005 A 
ATOM     18  C   UNL     1     -11.702  50.487  13.011  0.00  0.00    -0.033 A 
ATOM     28  C   UNL     1     -12.596  50.881  14.087  0.00  0.00    +0.005 A 
ATOM     29  C   UNL     1     -13.998  50.763  13.961  0.00  0.00    +0.013 A 
BRANCH  18  19
ATOM     19  C   UNL     1     -10.187  50.630  13.248  0.00  0.00    +0.119 C 
BRANCH  19  20
ATOM     20  N   UNL     1      -9.276  50.108  12.187  0.00  0.00    -0.302 NA
ATOM     21  C   UNL     1      -8.143  49.257  12.769  0.00  0.00    +0.066 C 
ATOM     22  C   UNL     1      -7.213  48.700  11.643  0.00  0.00    -0.064 C 
ATOM     23  N   UNL     1      -6.651  49.865  10.827  0.00  0.00    +0.379 N 
ATOM     24  C   UNL     1      -5.730  49.348   9.804  0.00  0.00    -0.096 C 
ATOM     25  H   UNL     1      -6.061  50.509  11.519  0.00  0.00    -0.082 HD
ATOM     26  C   UNL     1      -7.771  50.717  10.246  0.00  0.00    -0.064 C 
ATOM     27  C   UNL     1      -8.706  51.242  11.371  0.00  0.00    +0.066 C 
ENDBRANCH  19  20
ENDBRANCH  18  19
ENDBRANCH  14  15
ENDBRANCH  12  13
TORSDOF 6
ENDMDL
MODEL 2
REMARK VINA RESULT:      -8.7      2.230      4.282
REMARK  Name = C:\Users\Docking\Desktop\test protocol\1iep_ligandH.pdb
REMARK  8 active torsions:
REMARK  status: ('A' for Active; 'I' for Inactive)
REMARK    1  A    between atoms: _5  and  _11
REMARK    2  A    between atoms: _19  and  _21
REMARK    3  A    between atoms: _22  and  _66
REMARK    4  A    between atoms: _27  and  _30
REMARK    5  A    between atoms: _32  and  _33
REMARK    6  A    between atoms: _38  and  _43
REMARK    7  A    between atoms: _43  and  _46
REMARK    8  A    between atoms: _53  and  _55
REMARK                            x       y       z     vdW  Elec       q    Type
REMARK                         _______ _______ _______ _____ _____    ______ ____
ROOT
ATOM     10  C   UNL     1     -17.030  51.336  15.599  0.00  0.00    +0.038 A 
ATOM     11  C   UNL     1     -15.695  51.228  15.132  0.00  0.00    +0.047 A 
ATOM     12  C   UNL     1     -14.826  50.151  15.581  0.00  0.00    +0.035 A 
ATOM     32  C   UNL     1     -15.350  49.200  16.503  0.00  0.00    +0.024 A 
ATOM     33  C   UNL     1     -16.704  49.295  16.989  0.00  0.00    +0.007 A 
ATOM     34  C   UNL     1     -17.565  50.356  16.552  0.00  0.00    -0.029 A 
ATOM     35  C   UNL     1     -19.006  50.413  17.111  0.00  0.00    +0.045 C 
ENDROOT
BRANCH  10   9
ATOM      4  C   UNL     1     -20.139  53.240  12.477  0.00  0.00    +0.077 A 
ATOM      5  C   UNL     1     -20.171  52.043  11.688  0.00  0.00    +0.048 A 
ATOM      6  C   UNL     1     -19.367  50.962  12.116  0.00  0.00    +0.116 A 
ATOM      7  N   UNL     1     -18.593  51.081  13.250  0.00  0.00    -0.223 NA
ATOM      8  C   UNL     1     -18.585  52.251  13.987  0.00  0.00    +0.220 A 
ATOM      9  N   UNL     1     -17.820  52.390  15.136  0.00  0.00    -0.283 N 
ATOM     36  H   UNL     1     -17.836  53.272  15.648  0.00  0.00    +0.155 HD
ATOM     37  N   UNL     1     -19.342  53.298  13.599  0.00  0.00    -0.214 NA
BRANCH   4   3
ATOM      1  C   UNL     1     -21.926  56.709  12.753  0.00  0.00    +0.020 A 
ATOM      2  C   UNL     1     -21.149  55.545  13.113  0.00  0.00    +0.013 A 
ATOM      3  C   UNL     1     -20.935  54.467  12.157  0.00  0.00    +0.019 A 
ATOM     38  C   UNL     1     -21.526  54.598  10.833  0.00  0.00    +0.120 A 
ATOM     39  N   UNL     1     -22.271  55.729  10.515  0.00  0.00    -0.263 NA
ATOM     40  C   UNL     1     -22.484  56.773  11.428  0.00  0.00    +0.111 A 
ENDBRANCH   4   3
ENDBRANCH  10   9
BRANCH  12  13
ATOM     13  N   UNL     1     -13.459  49.995  15.148  0.00  0.00    -0.281 N 
ATOM     14  C   UNL     1     -12.983  49.246  14.084  0.00  0.00    +0.248 C 
ATOM     30  O   UNL     1     -13.643  48.421  13.469  0.00  0.00    -0.270 OA
ATOM     31  H   UNL     1     -12.758  50.498  15.691  0.00  0.00    +0.155 HD
BRANCH  14  15
ATOM     15  C   UNL     1     -11.565  49.430  13.649  0.00  0.00    +0.037 A 
ATOM     16  C   UNL     1     -11.228  50.255  12.486  0.00  0.00    +0.013 A 
ATOM     17  C   UNL     1      -9.853  50.401  12.078  0.00  0.00    +0.005 A 
ATOM     18  C   UNL     1      -8.805  49.721  12.835  0.00  0.00    -0.033 A 
ATOM     28  C   UNL     1      -9.167  48.913  13.987  0.00  0.00    +0.005 A 
ATOM     29  C   UNL     1     -10.514  48.766  14.390  0.00  0.00    +0.013 A 
BRANCH  18  19
ATOM     19  C   UNL     1      -7.314  49.804  12.459  0.00  0.00    +0.119 C 
BRANCH  19  20
ATOM     20  N   UNL     1      -6.750  48.684  11.648  0.00  0.00    -0.302 NA
ATOM     21  C   UNL     1      -5.259  48.880  11.355  0.00  0.00    +0.066 C 
ATOM     22  C   UNL     1      -4.680  47.688  10.526  0.00  0.00    -0.064 C 
ATOM     23  N   UNL     1      -5.473  47.542   9.226  0.00  0.00    +0.379 N 
ATOM     24  C   UNL     1      -4.895  46.459   8.418  0.00  0.00    -0.096 C 
ATOM     25  H   UNL     1      -5.359  48.491   8.652  0.00  0.00    -0.082 HD
ATOM     26  C   UNL     1      -6.957  47.349   9.508  0.00  0.00    -0.064 C 
ATOM     27  C   UNL     1      -7.515  48.524  10.358  0.00  0.00    +0.066 C 
ENDBRANCH  19  20
ENDBRANCH  18  19
ENDBRANCH  14  15
ENDBRANCH  12  13
TORSDOF 6
ENDMDL
MODEL 3
REMARK VINA RESULT:      -8.7      8.493     13.210
REMARK  Name = C:\Users\Docking\Desktop\test protocol\1iep_ligandH.pdb
REMARK  8 active torsions:
REMARK  status: ('A' for Active; 'I' for Inactive)
REMARK    1  A    between atoms: _5  and  _11
REMARK    2  A    between atoms: _19  and  _21
REMARK    3  A    between atoms: _22  and  _66
REMARK    4  A    between atoms: _27  and  _30
REMARK    5  A    between atoms: _32  and  _33
REMARK    6  A    between atoms: _38  and  _43
REMARK    7  A    between atoms: _43  and  _46
REMARK    8  A    between atoms: _53  and  _55
REMARK                            x       y       z     vdW  Elec       q    Type
REMARK                         _______ _______ _______ _____ _____    ______ ____
ROOT
ATOM     10  C   UNL     1     -10.944  48.875  13.521  0.00  0.00    +0.038 A 
ATOM     11  C   UNL     1     -10.555  49.150  14.857  0.00  0.00    +0.047 A 
ATOM     12  C   UNL     1     -11.421  49.900  15.753  0.00  0.00    +0.035 A 
ATOM     32  C   UNL     1     -12.678  50.353  15.256  0.00  0.00    +0.024 A 
ATOM     33  C   UNL     1     -13.088  50.084  13.900  0.00  0.00    +0.007 A 
ATOM     34  C   UNL     1     -12.237  49.346  13.011  0.00  0.00    -0.029 A 
ATOM     35  C   UNL     1     -12.725  49.091  11.566  0.00  0.00    +0.045 C 
ENDROOT
BRANCH  10   9
ATOM      4  C   UNL     1      -7.361  48.608  10.338  0.00  0.00    +0.077 A 
ATOM      5  C   UNL     1      -7.230  50.036  10.277  0.00  0.00    +0.048 A 
ATOM      6  C   UNL     1      -8.109  50.803  11.075  0.00  0.00    +0.116 A 
ATOM      7  N   UNL     1      -9.045  50.178  11.871  0.00  0.00    -0.223 NA
ATOM      8  C   UNL     1      -9.145  48.799  11.905  0.00  0.00    +0.220 A 
ATOM      9  N   UNL     1     -10.073  48.150  12.705  0.00  0.00    -0.283 N 
ATOM     36  H   UNL     1     -10.120  47.131  12.696  0.00  0.00    +0.155 HD
ATOM     37  N   UNL     1      -8.318  48.045  11.152  0.00  0.00    -0.214 NA
BRANCH   4   3
ATOM      1  C   UNL     1      -6.097  45.476   8.365  0.00  0.00    +0.020 A 
ATOM      2  C   UNL     1      -6.965  46.352   9.118  0.00  0.00    +0.013 A 
ATOM      3  C   UNL     1      -6.503  47.663   9.557  0.00  0.00    +0.019 A 
ATOM     38  C   UNL     1      -5.146  48.061   9.213  0.00  0.00    +0.120 A 
ATOM     39  N   UNL     1      -4.332  47.196   8.489  0.00  0.00    -0.263 NA
ATOM     40  C   UNL     1      -4.766  45.932   8.063  0.00  0.00    +0.111 A 
ENDBRANCH   4   3
ENDBRANCH  10   9
BRANCH  12  13
ATOM     13  N   UNL     1     -11.077  50.217  17.117  0.00  0.00    -0.281 N 
ATOM     14  C   UNL     1     -10.751  49.340  18.139  0.00  0.00    +0.248 C 
ATOM     30  O   UNL     1     -10.915  48.130  18.090  0.00  0.00    -0.270 OA
ATOM     31  H   UNL     1     -11.073  51.208  17.359  0.00  0.00    +0.155 HD
BRANCH  14  15
ATOM     15  C   UNL     1     -10.173  49.888  19.404  0.00  0.00    +0.037 A 
ATOM     16  C   UNL     1     -10.047  49.057  20.604  0.00  0.00    +0.013 A 
ATOM     17  C   UNL     1      -9.501  49.615  21.816  0.00  0.00    +0.005 A 
ATOM     18  C   UNL     1      -9.076  51.013  21.832  0.00  0.00    -0.033 A 
ATOM     28  C   UNL     1      -9.208  51.813  20.626  0.00  0.00    +0.005 A 
ATOM     29  C   UNL     1      -9.743  51.269  19.437  0.00  0.00    +0.013 A 
BRANCH  18  19
ATOM     19  C   UNL     1      -8.502  51.698  23.087  0.00  0.00    +0.119 C 
BRANCH  19  20
ATOM     20  N   UNL     1      -7.153  52.327  22.966  0.00  0.00    -0.302 NA
ATOM     21  C   UNL     1      -6.076  51.308  22.583  0.00  0.00    +0.066 C 
ATOM     22  C   UNL     1      -4.676  51.987  22.439  0.00  0.00    -0.064 C 
ATOM     23  N   UNL     1      -4.315  52.689  23.749  0.00  0.00    +0.379 N 
ATOM     24  C   UNL     1      -2.974  53.280  23.636  0.00  0.00    -0.096 C 
ATOM     25  H   UNL     1      -4.277  51.914  24.549  0.00  0.00    -0.082 HD
ATOM     26  C   UNL     1      -5.382  53.702  24.139  0.00  0.00    -0.064 C 
ATOM     27  C   UNL     1      -6.775  53.022  24.251  0.00  0.00    +0.066 C 
ENDBRANCH  19  20
ENDBRANCH  18  19
ENDBRANCH  14  15
ENDBRANCH  12  13
TORSDOF 6
ENDMDL
