MODEL 1
REMARK VINA RESULT:      -8.6      0.000      0.000
REMARK  Name = C:\Users\Docking\Desktop\test protocol\1iep_ligandH.pdb
REMARK  8 active torsions:
REMARK  status: ('A' for Active; 'I' for Inactive)
REMARK    1  A    between atoms: _5  and  _11
REMARK    2  A    between atoms: _19  and  _21
REMARK    3  A    between atoms: _22  and  _66
REMARK    4  A    between atoms: _27  and  _30
REMARK    5  A    between atoms: _32  and  _33
REMARK    6  A    between atoms: _38  and  _43
REMARK    7  A    between atoms: _43  and  _46
REMARK    8  A    between atoms: _53  and  _55
REMARK                            x       y       z     vdW  Elec       q    Type
REMARK                         _______ _______ _______ _____ _____    ______ ____
ROOT
ATOM     10  C   UNL     1     -87.916 -69.617  20.766  0.00  0.00    +0.038 A 
ATOM     11  C   UNL     1     -86.679 -69.022  21.121  0.00  0.00    +0.047 A 
ATOM     12  C   UNL     1     -86.323 -67.690  20.657  0.00  0.00    +0.035 A 
ATOM     32  C   UNL     1     -87.254 -66.991  19.834  0.00  0.00    +0.024 A 
ATOM     33  C   UNL     1     -88.515 -67.581  19.462  0.00  0.00    +0.007 A 
ATOM     34  C   UNL     1     -88.870 -68.896  19.915  0.00  0.00    -0.029 A 
ATOM     35  C   UNL     1     -90.234 -69.481  19.479  0.00  0.00    +0.045 C 
ENDROOT
BRANCH  10   9
ATOM      4  C   UNL     1     -89.209 -72.647  24.257  0.00  0.00    +0.077 A 
ATOM      5  C   UNL     1     -89.287 -71.591  25.225  0.00  0.00    +0.048 A 
ATOM      6  C   UNL     1     -88.980 -70.284  24.786  0.00  0.00    +0.116 A 
ATOM      7  N   UNL     1     -88.623 -70.060  23.474  0.00  0.00    -0.223 NA
ATOM      8  C   UNL     1     -88.556 -71.101  22.566  0.00  0.00    +0.220 A 
ATOM      9  N   UNL     1     -88.206 -70.898  21.240  0.00  0.00    -0.283 N 
ATOM     36  H   UNL     1     -88.161 -71.694  20.603  0.00  0.00    +0.155 HD
ATOM     37  N   UNL     1     -88.843 -72.359  22.961  0.00  0.00    -0.214 NA
BRANCH   4   3
ATOM      1  C   UNL     1     -89.296 -76.150  25.994  0.00  0.00    +0.020 A 
ATOM      2  C   UNL     1     -88.977 -74.764  25.740  0.00  0.00    +0.013 A 
ATOM      3  C   UNL     1     -89.507 -74.081  24.567  0.00  0.00    +0.019 A 
ATOM     38  C   UNL     1     -90.364 -74.834  23.664  0.00  0.00    +0.120 A 
ATOM     39  N   UNL     1     -90.653 -76.168  23.933  0.00  0.00    -0.263 NA
ATOM     40  C   UNL     1     -90.147 -76.837  25.058  0.00  0.00    +0.111 A 
ENDBRANCH   4   3
ENDBRANCH  10   9
BRANCH  12  13
ATOM     13  N   UNL     1     -85.078 -67.038  20.979  0.00  0.00    -0.281 N 
ATOM     14  C   UNL     1     -84.579 -66.726  22.233  0.00  0.00    +0.248 C 
ATOM     30  O   UNL     1     -85.231 -66.770  23.266  0.00  0.00    -0.270 OA
ATOM     31  H   UNL     1     -84.493 -66.775  20.186  0.00  0.00    +0.155 HD
BRANCH  14  15
ATOM     15  C   UNL     1     -83.155 -66.290  22.356  0.00  0.00    +0.037 A 
ATOM     16  C   UNL     1     -82.090 -67.248  22.660  0.00  0.00    +0.013 A 
ATOM     17  C   UNL     1     -80.727 -66.798  22.790  0.00  0.00    +0.005 A 
ATOM     18  C   UNL     1     -80.422 -65.380  22.613  0.00  0.00    -0.033 A 
ATOM     28  C   UNL     1     -81.497 -64.452  22.306  0.00  0.00    +0.005 A 
ATOM     29  C   UNL     1     -82.834 -64.889  22.179  0.00  0.00    +0.013 A 
BRANCH  18  19
ATOM     19  C   UNL     1     -78.999 -64.807  22.754  0.00  0.00    +0.119 C 
BRANCH  19  20
ATOM     20  N   UNL     1     -78.390 -64.816  24.118  0.00  0.00    -0.302 NA
ATOM     21  C   UNL     1     -77.683 -63.497  24.440  0.00  0.00    +0.066 C 
ATOM     22  C   UNL     1     -77.071 -63.516  25.879  0.00  0.00    -0.064 C 
ATOM     23  N   UNL     1     -76.103 -64.694  26.003  0.00  0.00    +0.379 N 
ATOM     24  C   UNL     1     -75.483 -64.680  27.336  0.00  0.00    -0.096 C 
ATOM     25  H   UNL     1     -75.293 -64.546  25.251  0.00  0.00    -0.082 HD
ATOM     26  C   UNL     1     -76.798 -66.009  25.682  0.00  0.00    -0.064 C 
ATOM     27  C   UNL     1     -77.427 -65.969  24.261  0.00  0.00    +0.066 C 
ENDBRANCH  19  20
ENDBRANCH  18  19
ENDBRANCH  14  15
ENDBRANCH  12  13
TORSDOF 6
ENDMDL
MODEL 2
REMARK VINA RESULT:      -8.5      3.360     12.434
REMARK  Name = C:\Users\Docking\Desktop\test protocol\1iep_ligandH.pdb
REMARK  8 active torsions:
REMARK  status: ('A' for Active; 'I' for Inactive)
REMARK    1  A    between atoms: _5  and  _11
REMARK    2  A    between atoms: _19  and  _21
REMARK    3  A    between atoms: _22  and  _66
REMARK    4  A    between atoms: _27  and  _30
REMARK    5  A    between atoms: _32  and  _33
REMARK    6  A    between atoms: _38  and  _43
REMARK    7  A    between atoms: _43  and  _46
REMARK    8  A    between atoms: _53  and  _55
REMARK                            x       y       z     vdW  Elec       q    Type
REMARK                         _______ _______ _______ _____ _____    ______ ____
ROOT
ATOM     10  C   UNL     1     -85.271 -66.755  24.417  0.00  0.00    +0.038 A 
ATOM     11  C   UNL     1     -85.919 -67.544  23.433  0.00  0.00    +0.047 A 
ATOM     12  C   UNL     1     -87.362 -67.491  23.257  0.00  0.00    +0.035 A 
ATOM     32  C   UNL     1     -88.114 -66.621  24.099  0.00  0.00    +0.024 A 
ATOM     33  C   UNL     1     -87.471 -65.812  25.105  0.00  0.00    +0.007 A 
ATOM     34  C   UNL     1     -86.049 -65.862  25.285  0.00  0.00    -0.029 A 
ATOM     35  C   UNL     1     -85.414 -64.978  26.383  0.00  0.00    +0.045 C 
ENDROOT
BRANCH  10   9
ATOM      4  C   UNL     1     -80.824 -65.236  23.436  0.00  0.00    +0.077 A 
ATOM      5  C   UNL     1     -81.307 -64.192  22.579  0.00  0.00    +0.048 A 
ATOM      6  C   UNL     1     -82.706 -64.084  22.411  0.00  0.00    +0.116 A 
ATOM      7  N   UNL     1     -83.550 -64.960  23.058  0.00  0.00    -0.223 NA
ATOM      8  C   UNL     1     -83.052 -65.957  23.876  0.00  0.00    +0.220 A 
ATOM      9  N   UNL     1     -83.883 -66.845  24.543  0.00  0.00    -0.283 N 
ATOM     36  H   UNL     1     -83.476 -67.571  25.132  0.00  0.00    +0.155 HD
ATOM     37  N   UNL     1     -81.720 -66.082  24.052  0.00  0.00    -0.214 NA
BRANCH   4   3
ATOM      1  C   UNL     1     -77.493 -66.627  24.942  0.00  0.00    +0.020 A 
ATOM      2  C   UNL     1     -78.906 -66.433  24.711  0.00  0.00    +0.013 A 
ATOM      3  C   UNL     1     -79.373 -65.476  23.716  0.00  0.00    +0.019 A 
ATOM     38  C   UNL     1     -78.377 -64.727  22.965  0.00  0.00    +0.120 A 
ATOM     39  N   UNL     1     -77.023 -64.934  23.210  0.00  0.00    -0.263 NA
ATOM     40  C   UNL     1     -76.562 -65.851  24.166  0.00  0.00    +0.111 A 
ENDBRANCH   4   3
ENDBRANCH  10   9
BRANCH  12  13
ATOM     13  N   UNL     1     -88.076 -68.275  22.280  0.00  0.00    -0.281 N 
ATOM     14  C   UNL     1     -88.131 -68.084  20.909  0.00  0.00    +0.248 C 
ATOM     30  O   UNL     1     -87.744 -67.076  20.336  0.00  0.00    -0.270 OA
ATOM     31  H   UNL     1     -88.606 -69.068  22.644  0.00  0.00    +0.155 HD
BRANCH  14  15
ATOM     15  C   UNL     1     -88.713 -69.162  20.052  0.00  0.00    +0.037 A 
ATOM     16  C   UNL     1     -87.864 -70.183  19.435  0.00  0.00    +0.013 A 
ATOM     17  C   UNL     1     -88.449 -71.201  18.599  0.00  0.00    +0.005 A 
ATOM     18  C   UNL     1     -89.893 -71.203  18.377  0.00  0.00    -0.033 A 
ATOM     28  C   UNL     1     -90.712 -70.181  19.006  0.00  0.00    +0.005 A 
ATOM     29  C   UNL     1     -90.142 -69.181  19.825  0.00  0.00    +0.013 A 
BRANCH  18  19
ATOM     19  C   UNL     1     -90.600 -72.239  17.483  0.00  0.00    +0.119 C 
BRANCH  19  20
ATOM     20  N   UNL     1     -90.693 -73.638  17.998  0.00  0.00    -0.302 NA
ATOM     21  C   UNL     1     -90.885 -74.654  16.870  0.00  0.00    +0.066 C 
ATOM     22  C   UNL     1     -90.957 -76.114  17.425  0.00  0.00    -0.064 C 
ATOM     23  N   UNL     1     -92.094 -76.214  18.443  0.00  0.00    +0.379 N 
ATOM     24  C   UNL     1     -92.202 -77.599  18.924  0.00  0.00    -0.096 C 
ATOM     25  H   UNL     1     -93.044 -75.964  17.915  0.00  0.00    -0.082 HD
ATOM     26  C   UNL     1     -91.912 -75.204  19.567  0.00  0.00    -0.064 C 
ATOM     27  C   UNL     1     -91.812 -73.760  19.003  0.00  0.00    +0.066 C 
ENDBRANCH  19  20
ENDBRANCH  18  19
ENDBRANCH  14  15
ENDBRANCH  12  13
TORSDOF 6
ENDMDL
MODEL 3
REMARK VINA RESULT:      -8.4      7.590     16.809
REMARK  Name = C:\Users\Docking\Desktop\test protocol\1iep_ligandH.pdb
REMARK  8 active torsions:
REMARK  status: ('A' for Active; 'I' for Inactive)
REMARK    1  A    between atoms: _5  and  _11
REMARK    2  A    between atoms: _19  and  _21
REMARK    3  A    between atoms: _22  and  _66
REMARK    4  A    between atoms: _27  and  _30
REMARK    5  A    between atoms: _32  and  _33
REMARK    6  A    between atoms: _38  and  _43
REMARK    7  A    between atoms: _43  and  _46
REMARK    8  A    between atoms: _53  and  _55
REMARK                            x       y       z     vdW  Elec       q    Type
REMARK                         _______ _______ _______ _____ _____    ______ ____
ROOT
ATOM     10  C   UNL     1     -90.920 -75.033  18.750  0.00  0.00    +0.038 A 
ATOM     11  C   UNL     1     -92.268 -75.290  19.111  0.00  0.00    +0.047 A 
ATOM     12  C   UNL     1     -92.781 -76.649  19.183  0.00  0.00    +0.035 A 
ATOM     32  C   UNL     1     -91.893 -77.723  18.884  0.00  0.00    +0.024 A 
ATOM     33  C   UNL     1     -90.521 -77.480  18.515  0.00  0.00    +0.007 A 
ATOM     34  C   UNL     1     -90.010 -76.141  18.439  0.00  0.00    -0.029 A 
ATOM     35  C   UNL     1     -88.532 -75.939  18.032  0.00  0.00    +0.045 C 
ENDROOT
BRANCH  10   9
ATOM      4  C   UNL     1     -88.921 -71.153  20.747  0.00  0.00    +0.077 A 
ATOM      5  C   UNL     1     -88.764 -71.812  22.012  0.00  0.00    +0.048 A 
ATOM      6  C   UNL     1     -89.217 -73.147  22.109  0.00  0.00    +0.116 A 
ATOM      7  N   UNL     1     -89.783 -73.767  21.016  0.00  0.00    -0.223 NA
ATOM      8  C   UNL     1     -89.921 -73.102  19.811  0.00  0.00    +0.220 A 
ATOM      9  N   UNL     1     -90.481 -73.708  18.697  0.00  0.00    -0.283 N 
ATOM     36  H   UNL     1     -90.571 -73.181  17.829  0.00  0.00    +0.155 HD
ATOM     37  N   UNL     1     -89.498 -71.826  19.694  0.00  0.00    -0.214 NA
BRANCH   4   3
ATOM      1  C   UNL     1     -87.089 -67.705  20.989  0.00  0.00    +0.020 A 
ATOM      2  C   UNL     1     -87.471 -69.067  21.282  0.00  0.00    +0.013 A 
ATOM      3  C   UNL     1     -88.488 -69.744  20.487  0.00  0.00    +0.019 A 
ATOM     38  C   UNL     1     -89.104 -69.008  19.392  0.00  0.00    +0.120 A 
ATOM     39  N   UNL     1     -88.717 -67.697  19.134  0.00  0.00    -0.263 NA
ATOM     40  C   UNL     1     -87.740 -67.035  19.894  0.00  0.00    +0.111 A 
ENDBRANCH   4   3
ENDBRANCH  10   9
BRANCH  12  13
ATOM     13  N   UNL     1     -94.142 -76.971  19.536  0.00  0.00    -0.281 N 
ATOM     14  C   UNL     1     -94.722 -76.958  20.794  0.00  0.00    +0.248 C 
ATOM     30  O   UNL     1     -94.098 -76.872  21.841  0.00  0.00    -0.270 OA
ATOM     31  H   UNL     1     -94.751 -77.242  18.764  0.00  0.00    +0.155 HD
BRANCH  14  15
ATOM     15  C   UNL     1     -96.208 -77.070  20.905  0.00  0.00    +0.037 A 
ATOM     16  C   UNL     1     -97.007 -76.005  21.518  0.00  0.00    +0.013 A 
ATOM     17  C   UNL     1     -98.437 -76.147  21.628  0.00  0.00    +0.005 A 
ATOM     18  C   UNL     1     -99.078 -77.358  21.122  0.00  0.00    -0.033 A 
ATOM     28  C   UNL     1     -98.262 -78.396  20.514  0.00  0.00    +0.005 A 
ATOM     29  C   UNL     1     -96.860 -78.262  20.405  0.00  0.00    +0.013 A 
BRANCH  18  19
ATOM     19  C   UNL     1    -100.596 -77.603  21.217  0.00  0.00    +0.119 C 
BRANCH  19  20
ATOM     20  N   UNL     1    -101.223 -77.495  22.568  0.00  0.00    -0.302 NA
ATOM     21  C   UNL     1    -102.373 -78.490  22.748  0.00  0.00    +0.066 C 
ATOM     22  C   UNL     1    -103.002 -78.379  24.175  0.00  0.00    -0.064 C 
ATOM     23  N   UNL     1    -103.485 -76.946  24.407  0.00  0.00    +0.379 N 
ATOM     24  C   UNL     1    -104.129 -76.853  25.724  0.00  0.00    -0.096 C 
ATOM     25  H   UNL     1    -104.257 -76.721  23.635  0.00  0.00    -0.082 HD
ATOM     26  C   UNL     1    -102.348 -75.950  24.226  0.00  0.00    -0.064 C 
ATOM     27  C   UNL     1    -101.710 -76.089  22.816  0.00  0.00    +0.066 C 
ENDBRANCH  19  20
ENDBRANCH  18  19
ENDBRANCH  14  15
ENDBRANCH  12  13
TORSDOF 6
ENDMDL
