MODEL 1
REMARK VINA RESULT:      -8.5      0.000      0.000
REMARK  Name = C:\Users\Docking\Desktop\test protocol\1iep_ligandH.pdb
REMARK  8 active torsions:
REMARK  status: ('A' for Active; 'I' for Inactive)
REMARK    1  A    between atoms: _5  and  _11
REMARK    2  A    between atoms: _19  and  _21
REMARK    3  A    between atoms: _22  and  _66
REMARK    4  A    between atoms: _27  and  _30
REMARK    5  A    between atoms: _32  and  _33
REMARK    6  A    between atoms: _38  and  _43
REMARK    7  A    between atoms: _43  and  _46
REMARK    8  A    between atoms: _53  and  _55
REMARK                            x       y       z     vdW  Elec       q    Type
REMARK                         _______ _______ _______ _____ _____    ______ ____
ROOT
ATOM     10  C   UNL     1      14.177  21.108   1.290  0.00  0.00    +0.038 A 
ATOM     11  C   UNL     1      14.087  21.596   2.618  0.00  0.00    +0.047 A 
ATOM     12  C   UNL     1      15.088  21.255   3.616  0.00  0.00    +0.035 A 
ATOM     32  C   UNL     1      16.172  20.415   3.225  0.00  0.00    +0.024 A 
ATOM     33  C   UNL     1      16.279  19.908   1.879  0.00  0.00    +0.007 A 
ATOM     34  C   UNL     1      15.292  20.240   0.892  0.00  0.00    -0.029 A 
ATOM     35  C   UNL     1      15.454  19.663  -0.534  0.00  0.00    +0.045 C 
ENDROOT
BRANCH  10   9
ATOM      4  C   UNL     1       9.612  21.211  -0.187  0.00  0.00    +0.077 A 
ATOM      5  C   UNL     1       9.164  20.462   0.951  0.00  0.00    +0.048 A 
ATOM      6  C   UNL     1      10.142  20.063   1.890  0.00  0.00    +0.116 A 
ATOM      7  N   UNL     1      11.465  20.394   1.695  0.00  0.00    -0.223 NA
ATOM      8  C   UNL     1      11.863  21.116   0.585  0.00  0.00    +0.220 A 
ATOM      9  N   UNL     1      13.187  21.468   0.372  0.00  0.00    -0.283 N 
ATOM     36  H   UNL     1      13.442  21.995  -0.463  0.00  0.00    +0.155 HD
ATOM     37  N   UNL     1      10.949  21.508  -0.327  0.00  0.00    -0.214 NA
BRANCH   4   3
ATOM      1  C   UNL     1       6.523  22.697  -2.072  0.00  0.00    +0.020 A 
ATOM      2  C   UNL     1       7.365  22.229  -0.995  0.00  0.00    +0.013 A 
ATOM      3  C   UNL     1       8.698  21.707  -1.265  0.00  0.00    +0.019 A 
ATOM     38  C   UNL     1       9.154  21.672  -2.647  0.00  0.00    +0.120 A 
ATOM     39  N   UNL     1       8.320  22.127  -3.663  0.00  0.00    -0.263 NA
ATOM     40  C   UNL     1       7.034  22.630  -3.416  0.00  0.00    +0.111 A 
ENDBRANCH   4   3
ENDBRANCH  10   9
BRANCH  12  13
ATOM     13  N   UNL     1      15.044  21.714   4.982  0.00  0.00    -0.281 N 
ATOM     14  C   UNL     1      14.977  23.020   5.439  0.00  0.00    +0.248 C 
ATOM     30  O   UNL     1      15.161  24.007   4.742  0.00  0.00    -0.270 OA
ATOM     31  H   UNL     1      15.065  20.989   5.698  0.00  0.00    +0.155 HD
BRANCH  14  15
ATOM     15  C   UNL     1      14.677  23.265   6.882  0.00  0.00    +0.037 A 
ATOM     16  C   UNL     1      15.106  22.323   7.919  0.00  0.00    +0.013 A 
ATOM     17  C   UNL     1      14.788  22.574   9.302  0.00  0.00    +0.005 A 
ATOM     18  C   UNL     1      14.037  23.777   9.657  0.00  0.00    -0.033 A 
ATOM     28  C   UNL     1      13.629  24.698   8.609  0.00  0.00    +0.005 A 
ATOM     29  C   UNL     1      13.938  24.454   7.252  0.00  0.00    +0.013 A 
BRANCH  18  19
ATOM     19  C   UNL     1      13.636  24.115  11.105  0.00  0.00    +0.119 C 
BRANCH  19  20
ATOM     20  N   UNL     1      14.385  25.214  11.783  0.00  0.00    -0.302 NA
ATOM     21  C   UNL     1      13.643  26.551  11.701  0.00  0.00    +0.066 C 
ATOM     22  C   UNL     1      14.430  27.685  12.435  0.00  0.00    -0.064 C 
ATOM     23  N   UNL     1      15.829  27.805  11.829  0.00  0.00    +0.379 N 
ATOM     24  C   UNL     1      16.551  28.909  12.478  0.00  0.00    -0.096 C 
ATOM     25  H   UNL     1      15.710  28.066  10.752  0.00  0.00    -0.082 HD
ATOM     26  C   UNL     1      16.573  26.480  11.904  0.00  0.00    -0.064 C 
ATOM     27  C   UNL     1      15.769  25.353  11.197  0.00  0.00    +0.066 C 
ENDBRANCH  19  20
ENDBRANCH  18  19
ENDBRANCH  14  15
ENDBRANCH  12  13
TORSDOF 6
ENDMDL
MODEL 2
REMARK VINA RESULT:      -8.3      2.198     12.234
REMARK  Name = C:\Users\Docking\Desktop\test protocol\1iep_ligandH.pdb
REMARK  8 active torsions:
REMARK  status: ('A' for Active; 'I' for Inactive)
REMARK    1  A    between atoms: _5  and  _11
REMARK    2  A    between atoms: _19  and  _21
REMARK    3  A    between atoms: _22  and  _66
REMARK    4  A    between atoms: _27  and  _30
REMARK    5  A    between atoms: _32  and  _33
REMARK    6  A    between atoms: _38  and  _43
REMARK    7  A    between atoms: _43  and  _46
REMARK    8  A    between atoms: _53  and  _55
REMARK                            x       y       z     vdW  Elec       q    Type
REMARK                         _______ _______ _______ _____ _____    ______ ____
ROOT
ATOM     10  C   UNL     1      15.204  24.264   5.728  0.00  0.00    +0.038 A 
ATOM     11  C   UNL     1      14.150  23.934   4.838  0.00  0.00    +0.047 A 
ATOM     12  C   UNL     1      14.326  22.926   3.804  0.00  0.00    +0.035 A 
ATOM     32  C   UNL     1      15.588  22.272   3.706  0.00  0.00    +0.024 A 
ATOM     33  C   UNL     1      16.671  22.596   4.601  0.00  0.00    +0.007 A 
ATOM     34  C   UNL     1      16.504  23.591   5.621  0.00  0.00    -0.029 A 
ATOM     35  C   UNL     1      17.702  23.903   6.549  0.00  0.00    +0.045 C 
ENDROOT
BRANCH  10   9
ATOM      4  C   UNL     1      13.878  25.614  10.139  0.00  0.00    +0.077 A 
ATOM      5  C   UNL     1      13.581  24.265  10.526  0.00  0.00    +0.048 A 
ATOM      6  C   UNL     1      13.776  23.254   9.559  0.00  0.00    +0.116 A 
ATOM      7  N   UNL     1      14.235  23.579   8.300  0.00  0.00    -0.223 NA
ATOM      8  C   UNL     1      14.510  24.890   7.959  0.00  0.00    +0.220 A 
ATOM      9  N   UNL     1      14.980  25.239   6.702  0.00  0.00    -0.283 N 
ATOM     36  H   UNL     1      15.165  26.219   6.487  0.00  0.00    +0.155 HD
ATOM     37  N   UNL     1      14.331  25.874   8.865  0.00  0.00    -0.214 NA
BRANCH   4   3
ATOM      1  C   UNL     1      13.240  27.833  13.296  0.00  0.00    +0.020 A 
ATOM      2  C   UNL     1      13.374  26.663  12.459  0.00  0.00    +0.013 A 
ATOM      3  C   UNL     1      13.726  26.791  11.050  0.00  0.00    +0.019 A 
ATOM     38  C   UNL     1      13.939  28.128  10.516  0.00  0.00    +0.120 A 
ATOM     39  N   UNL     1      13.801  29.236  11.347  0.00  0.00    -0.263 NA
ATOM     40  C   UNL     1      13.461  29.125  12.703  0.00  0.00    +0.111 A 
ENDBRANCH   4   3
ENDBRANCH  10   9
BRANCH  12  13
ATOM     13  N   UNL     1      13.294  22.555   2.868  0.00  0.00    -0.281 N 
ATOM     14  C   UNL     1      12.957  21.284   2.432  0.00  0.00    +0.248 C 
ATOM     30  O   UNL     1      13.637  20.285   2.620  0.00  0.00    -0.270 OA
ATOM     31  H   UNL     1      12.746  23.322   2.479  0.00  0.00    +0.155 HD
BRANCH  14  15
ATOM     15  C   UNL     1      11.689  21.096   1.663  0.00  0.00    +0.037 A 
ATOM     16  C   UNL     1      11.492  21.730   0.356  0.00  0.00    +0.013 A 
ATOM     17  C   UNL     1      10.253  21.547  -0.357  0.00  0.00    +0.005 A 
ATOM     18  C   UNL     1       9.201  20.725   0.236  0.00  0.00    -0.033 A 
ATOM     28  C   UNL     1       9.425  20.104   1.531  0.00  0.00    +0.005 A 
ATOM     29  C   UNL     1      10.638  20.282   2.233  0.00  0.00    +0.013 A 
BRANCH  18  19
ATOM     19  C   UNL     1       7.838  20.492  -0.445  0.00  0.00    +0.119 C 
BRANCH  19  20
ATOM     20  N   UNL     1       7.547  21.281  -1.679  0.00  0.00    -0.302 NA
ATOM     21  C   UNL     1       6.155  21.919  -1.637  0.00  0.00    +0.066 C 
ATOM     22  C   UNL     1       5.876  22.759  -2.926  0.00  0.00    -0.064 C 
ATOM     23  N   UNL     1       6.025  21.863  -4.157  0.00  0.00    +0.379 N 
ATOM     24  C   UNL     1       5.706  22.635  -5.367  0.00  0.00    -0.096 C 
ATOM     25  H   UNL     1       5.274  21.043  -4.071  0.00  0.00    -0.082 HD
ATOM     26  C   UNL     1       7.405  21.223  -4.205  0.00  0.00    -0.064 C 
ATOM     27  C   UNL     1       7.684  20.415  -2.907  0.00  0.00    +0.066 C 
ENDBRANCH  19  20
ENDBRANCH  18  19
ENDBRANCH  14  15
ENDBRANCH  12  13
TORSDOF 6
ENDMDL
MODEL 3
REMARK VINA RESULT:      -8.3      0.938      1.244
REMARK  Name = C:\Users\Docking\Desktop\test protocol\1iep_ligandH.pdb
REMARK  8 active torsions:
REMARK  status: ('A' for Active; 'I' for Inactive)
REMARK    1  A    between atoms: _5  and  _11
REMARK    2  A    between atoms: _19  and  _21
REMARK    3  A    between atoms: _22  and  _66
REMARK    4  A    between atoms: _27  and  _30
REMARK    5  A    between atoms: _32  and  _33
REMARK    6  A    between atoms: _38  and  _43
REMARK    7  A    between atoms: _43  and  _46
REMARK    8  A    between atoms: _53  and  _55
REMARK                            x       y       z     vdW  Elec       q    Type
REMARK                         _______ _______ _______ _____ _____    ______ ____
ROOT
ATOM     10  C   UNL     1      14.204  20.984   1.353  0.00  0.00    +0.038 A 
ATOM     11  C   UNL     1      14.134  21.533   2.658  0.00  0.00    +0.047 A 
ATOM     12  C   UNL     1      15.250  21.416   3.585  0.00  0.00    +0.035 A 
ATOM     32  C   UNL     1      16.423  20.736   3.147  0.00  0.00    +0.024 A 
ATOM     33  C   UNL     1      16.511  20.170   1.824  0.00  0.00    +0.007 A 
ATOM     34  C   UNL     1      15.413  20.280   0.906  0.00  0.00    -0.029 A 
ATOM     35  C   UNL     1      15.560  19.649  -0.498  0.00  0.00    +0.045 C 
ENDROOT
BRANCH  10   9
ATOM      4  C   UNL     1       9.606  20.203   0.219  0.00  0.00    +0.077 A 
ATOM      5  C   UNL     1       9.385  19.425   1.404  0.00  0.00    +0.048 A 
ATOM      6  C   UNL     1      10.482  19.244   2.275  0.00  0.00    +0.116 A 
ATOM      7  N   UNL     1      11.705  19.803   1.975  0.00  0.00    -0.223 NA
ATOM      8  C   UNL     1      11.885  20.547   0.823  0.00  0.00    +0.220 A 
ATOM      9  N   UNL     1      13.104  21.125   0.504  0.00  0.00    -0.283 N 
ATOM     36  H   UNL     1      13.198  21.660  -0.359  0.00  0.00    +0.155 HD
ATOM     37  N   UNL     1      10.853  20.733  -0.027  0.00  0.00    -0.214 NA
BRANCH   4   3
ATOM      1  C   UNL     1       6.231  21.240  -1.465  0.00  0.00    +0.020 A 
ATOM      2  C   UNL     1       7.220  20.982  -0.444  0.00  0.00    +0.013 A 
ATOM      3  C   UNL     1       8.545  20.487  -0.798  0.00  0.00    +0.019 A 
ATOM     38  C   UNL     1       8.839  20.263  -2.205  0.00  0.00    +0.120 A 
ATOM     39  N   UNL     1       7.866  20.519  -3.166  0.00  0.00    -0.263 NA
ATOM     40  C   UNL     1       6.587  20.994  -2.837  0.00  0.00    +0.111 A 
ENDBRANCH   4   3
ENDBRANCH  10   9
BRANCH  12  13
ATOM     13  N   UNL     1      15.233  21.947   4.925  0.00  0.00    -0.281 N 
ATOM     14  C   UNL     1      14.823  23.204   5.339  0.00  0.00    +0.248 C 
ATOM     30  O   UNL     1      14.607  24.143   4.586  0.00  0.00    -0.270 OA
ATOM     31  H   UNL     1      15.564  21.320   5.659  0.00  0.00    +0.155 HD
BRANCH  14  15
ATOM     15  C   UNL     1      14.640  23.459   6.800  0.00  0.00    +0.037 A 
ATOM     16  C   UNL     1      15.008  22.453   7.799  0.00  0.00    +0.013 A 
ATOM     17  C   UNL     1      14.805  22.719   9.201  0.00  0.00    +0.005 A 
ATOM     18  C   UNL     1      14.232  23.998   9.613  0.00  0.00    -0.033 A 
ATOM     28  C   UNL     1      13.880  24.980   8.600  0.00  0.00    +0.005 A 
ATOM     29  C   UNL     1      14.077  24.723   7.225  0.00  0.00    +0.013 A 
BRANCH  18  19
ATOM     19  C   UNL     1      13.960  24.358  11.085  0.00  0.00    +0.119 C 
BRANCH  19  20
ATOM     20  N   UNL     1      14.561  25.624  11.601  0.00  0.00    -0.302 NA
ATOM     21  C   UNL     1      15.777  25.361  12.495  0.00  0.00    +0.066 C 
ATOM     22  C   UNL     1      16.407  26.697  13.008  0.00  0.00    -0.064 C 
ATOM     23  N   UNL     1      15.345  27.502  13.760  0.00  0.00    +0.379 N 
ATOM     24  C   UNL     1      15.949  28.731  14.293  0.00  0.00    -0.096 C 
ATOM     25  H   UNL     1      15.007  26.888  14.627  0.00  0.00    -0.082 HD
ATOM     26  C   UNL     1      14.132  27.766  12.879  0.00  0.00    -0.064 C 
ATOM     27  C   UNL     1      13.532  26.433  12.351  0.00  0.00    +0.066 C 
ENDBRANCH  19  20
ENDBRANCH  18  19
ENDBRANCH  14  15
ENDBRANCH  12  13
TORSDOF 6
ENDMDL
MODEL 4
REMARK VINA RESULT:      -8.2      7.040     12.699
REMARK  Name = C:\Users\Docking\Desktop\test protocol\1iep_ligandH.pdb
REMARK  8 active torsions:
REMARK  status: ('A' for Active; 'I' for Inactive)
REMARK    1  A    between atoms: _5  and  _11
REMARK    2  A    between atoms: _19  and  _21
REMARK    3  A    between atoms: _22  and  _66
REMARK    4  A    between atoms: _27  and  _30
REMARK    5  A    between atoms: _32  and  _33
REMARK    6  A    between atoms: _38  and  _43
REMARK    7  A    between atoms: _43  and  _46
REMARK    8  A    between atoms: _53  and  _55
REMARK                            x       y       z     vdW  Elec       q    Type
REMARK                         _______ _______ _______ _____ _____    ______ ____
ROOT
ATOM     10  C   UNL     1      11.818  18.096   1.255  0.00  0.00    +0.038 A 
ATOM     11  C   UNL     1      10.678  18.629   0.601  0.00  0.00    +0.047 A 
ATOM     12  C   UNL     1       9.735  19.482   1.307  0.00  0.00    +0.035 A 
ATOM     32  C   UNL     1       9.985  19.774   2.679  0.00  0.00    +0.024 A 
ATOM     33  C   UNL     1      11.138  19.240   3.361  0.00  0.00    +0.007 A 
ATOM     34  C   UNL     1      12.070  18.396   2.670  0.00  0.00    -0.029 A 
ATOM     35  C   UNL     1      13.285  17.846   3.453  0.00  0.00    +0.045 C 
ENDROOT
BRANCH  10   9
ATOM      4  C   UNL     1      15.854  17.391  -1.245  0.00  0.00    +0.077 A 
ATOM      5  C   UNL     1      16.244  18.766  -1.116  0.00  0.00    +0.048 A 
ATOM      6  C   UNL     1      15.374  19.623  -0.405  0.00  0.00    +0.116 A 
ATOM      7  N   UNL     1      14.205  19.131   0.133  0.00  0.00    -0.223 NA
ATOM      8  C   UNL     1      13.858  17.800  -0.011  0.00  0.00    +0.220 A 
ATOM      9  N   UNL     1      12.691  17.282   0.529  0.00  0.00    -0.283 N 
ATOM     36  H   UNL     1      12.467  16.297   0.395  0.00  0.00    +0.155 HD
ATOM     37  N   UNL     1      14.671  16.962  -0.686  0.00  0.00    -0.214 NA
BRANCH   4   3
ATOM      1  C   UNL     1      18.395  15.667  -3.667  0.00  0.00    +0.020 A 
ATOM      2  C   UNL     1      17.634  16.699  -3.003  0.00  0.00    +0.013 A 
ATOM      3  C   UNL     1      16.669  16.362  -1.964  0.00  0.00    +0.019 A 
ATOM     38  C   UNL     1      16.498  14.959  -1.618  0.00  0.00    +0.120 A 
ATOM     39  N   UNL     1      17.244  13.986  -2.275  0.00  0.00    -0.263 NA
ATOM     40  C   UNL     1      18.175  14.299  -3.278  0.00  0.00    +0.111 A 
ENDBRANCH   4   3
ENDBRANCH  10   9
BRANCH  12  13
ATOM     13  N   UNL     1       8.556  20.045   0.696  0.00  0.00    -0.281 N 
ATOM     14  C   UNL     1       8.444  21.240   0.004  0.00  0.00    +0.248 C 
ATOM     30  O   UNL     1       9.299  22.112  -0.011  0.00  0.00    -0.270 OA
ATOM     31  H   UNL     1       7.701  19.496   0.785  0.00  0.00    +0.155 HD
BRANCH  14  15
ATOM     15  C   UNL     1       7.195  21.510  -0.771  0.00  0.00    +0.037 A 
ATOM     16  C   UNL     1       7.035  22.742  -1.548  0.00  0.00    +0.013 A 
ATOM     17  C   UNL     1       5.813  22.986  -2.273  0.00  0.00    +0.005 A 
ATOM     18  C   UNL     1       4.742  21.993  -2.226  0.00  0.00    -0.033 A 
ATOM     28  C   UNL     1       4.929  20.778  -1.451  0.00  0.00    +0.005 A 
ATOM     29  C   UNL     1       6.125  20.536  -0.738  0.00  0.00    +0.013 A 
BRANCH  18  19
ATOM     19  C   UNL     1       3.396  22.180  -2.951  0.00  0.00    +0.119 C 
BRANCH  19  20
ATOM     20  N   UNL     1       2.153  21.916  -2.166  0.00  0.00    -0.302 NA
ATOM     21  C   UNL     1       1.259  20.871  -2.839  0.00  0.00    +0.066 C 
ATOM     22  C   UNL     1      -0.025  20.591  -1.993  0.00  0.00    -0.064 C 
ATOM     23  N   UNL     1      -0.788  21.899  -1.781  0.00  0.00    +0.379 N 
ATOM     24  C   UNL     1      -2.026  21.630  -1.035  0.00  0.00    -0.096 C 
ATOM     25  H   UNL     1      -1.075  22.290  -2.784  0.00  0.00    -0.082 HD
ATOM     26  C   UNL     1       0.095  22.946  -1.114  0.00  0.00    -0.064 C 
ATOM     27  C   UNL     1       1.382  23.195  -1.948  0.00  0.00    +0.066 C 
ENDBRANCH  19  20
ENDBRANCH  18  19
ENDBRANCH  14  15
ENDBRANCH  12  13
TORSDOF 6
ENDMDL
MODEL 5
REMARK VINA RESULT:      -8.1      1.782      2.279
REMARK  Name = C:\Users\Docking\Desktop\test protocol\1iep_ligandH.pdb
REMARK  8 active torsions:
REMARK  status: ('A' for Active; 'I' for Inactive)
REMARK    1  A    between atoms: _5  and  _11
REMARK    2  A    between atoms: _19  and  _21
REMARK    3  A    between atoms: _22  and  _66
REMARK    4  A    between atoms: _27  and  _30
REMARK    5  A    between atoms: _32  and  _33
REMARK    6  A    between atoms: _38  and  _43
REMARK    7  A    between atoms: _43  and  _46
REMARK    8  A    between atoms: _53  and  _55
REMARK                            x       y       z     vdW  Elec       q    Type
REMARK                         _______ _______ _______ _____ _____    ______ ____
ROOT
ATOM     10  C   UNL     1      15.038  20.340   0.513  0.00  0.00    +0.038 A 
ATOM     11  C   UNL     1      14.804  20.974   1.760  0.00  0.00    +0.047 A 
ATOM     12  C   UNL     1      15.475  20.527   2.970  0.00  0.00    +0.035 A 
ATOM     32  C   UNL     1      16.381  19.432   2.875  0.00  0.00    +0.024 A 
ATOM     33  C   UNL     1      16.631  18.774   1.616  0.00  0.00    +0.007 A 
ATOM     34  C   UNL     1      15.970  19.209   0.419  0.00  0.00    -0.029 A 
ATOM     35  C   UNL     1      16.271  18.463  -0.901  0.00  0.00    +0.045 C 
ENDROOT
BRANCH  10   9
ATOM      4  C   UNL     1      11.259  20.402  -2.445  0.00  0.00    +0.077 A 
ATOM      5  C   UNL     1      10.576  19.392  -1.689  0.00  0.00    +0.048 A 
ATOM      6  C   UNL     1      11.235  18.877  -0.549  0.00  0.00    +0.116 A 
ATOM      7  N   UNL     1      12.483  19.346  -0.201  0.00  0.00    -0.223 NA
ATOM      8  C   UNL     1      13.115  20.319  -0.953  0.00  0.00    +0.220 A 
ATOM      9  N   UNL     1      14.367  20.810  -0.617  0.00  0.00    -0.283 N 
ATOM     36  H   UNL     1      14.802  21.523  -1.202  0.00  0.00    +0.155 HD
ATOM     37  N   UNL     1      12.507  20.825  -2.047  0.00  0.00    -0.214 NA
BRANCH   4   3
ATOM      1  C   UNL     1      10.601  21.411  -6.166  0.00  0.00    +0.020 A 
ATOM      2  C   UNL     1      11.184  20.762  -5.014  0.00  0.00    +0.013 A 
ATOM      3  C   UNL     1      10.692  21.045  -3.672  0.00  0.00    +0.019 A 
ATOM     38  C   UNL     1       9.600  21.996  -3.528  0.00  0.00    +0.120 A 
ATOM     39  N   UNL     1       9.059  22.606  -4.656  0.00  0.00    -0.263 NA
ATOM     40  C   UNL     1       9.525  22.343  -5.953  0.00  0.00    +0.111 A 
ENDBRANCH   4   3
ENDBRANCH  10   9
BRANCH  12  13
ATOM     13  N   UNL     1      15.270  21.128   4.265  0.00  0.00    -0.281 N 
ATOM     14  C   UNL     1      15.566  22.422   4.660  0.00  0.00    +0.248 C 
ATOM     30  O   UNL     1      16.253  23.201   4.016  0.00  0.00    -0.270 OA
ATOM     31  H   UNL     1      14.856  20.526   4.977  0.00  0.00    +0.155 HD
BRANCH  14  15
ATOM     15  C   UNL     1      15.034  22.918   5.966  0.00  0.00    +0.037 A 
ATOM     16  C   UNL     1      15.318  22.214   7.219  0.00  0.00    +0.013 A 
ATOM     17  C   UNL     1      14.778  22.704   8.462  0.00  0.00    +0.005 A 
ATOM     18  C   UNL     1      13.950  23.908   8.458  0.00  0.00    -0.033 A 
ATOM     28  C   UNL     1      13.688  24.590   7.202  0.00  0.00    +0.005 A 
ATOM     29  C   UNL     1      14.215  24.111   5.981  0.00  0.00    +0.013 A 
BRANCH  18  19
ATOM     19  C   UNL     1      13.315  24.490   9.735  0.00  0.00    +0.119 C 
BRANCH  19  20
ATOM     20  N   UNL     1      14.061  25.579  10.434  0.00  0.00    -0.302 NA
ATOM     21  C   UNL     1      13.816  25.564  11.946  0.00  0.00    +0.066 C 
ATOM     22  C   UNL     1      14.622  26.695  12.664  0.00  0.00    -0.064 C 
ATOM     23  N   UNL     1      14.238  28.050  12.066  0.00  0.00    +0.379 N 
ATOM     24  C   UNL     1      14.951  29.120  12.779  0.00  0.00    -0.096 C 
ATOM     25  H   UNL     1      13.146  28.197  12.238  0.00  0.00    -0.082 HD
ATOM     26  C   UNL     1      14.476  28.072  10.563  0.00  0.00    -0.064 C 
ATOM     27  C   UNL     1      13.694  26.926   9.862  0.00  0.00    +0.066 C 
ENDBRANCH  19  20
ENDBRANCH  18  19
ENDBRANCH  14  15
ENDBRANCH  12  13
TORSDOF 6
ENDMDL
