MODEL 1
REMARK VINA RESULT:      -8.3      0.000      0.000
REMARK  Name = C:\Users\Docking\Desktop\test protocol\1iep_ligandH.pdb
REMARK  8 active torsions:
REMARK  status: ('A' for Active; 'I' for Inactive)
REMARK    1  A    between atoms: _5  and  _11
REMARK    2  A    between atoms: _19  and  _21
REMARK    3  A    between atoms: _22  and  _66
REMARK    4  A    between atoms: _27  and  _30
REMARK    5  A    between atoms: _32  and  _33
REMARK    6  A    between atoms: _38  and  _43
REMARK    7  A    between atoms: _43  and  _46
REMARK    8  A    between atoms: _53  and  _55
REMARK                            x       y       z     vdW  Elec       q    Type
REMARK                         _______ _______ _______ _____ _____    ______ ____
ROOT
ATOM     10  C   UNL     1       9.298 -13.404   6.291  0.00  0.00    +0.038 A 
ATOM     11  C   UNL     1       8.849 -13.833   5.015  0.00  0.00    +0.047 A 
ATOM     12  C   UNL     1       9.676 -14.684   4.174  0.00  0.00    +0.035 A 
ATOM     32  C   UNL     1      10.954 -15.082   4.665  0.00  0.00    +0.024 A 
ATOM     33  C   UNL     1      11.426 -14.654   5.958  0.00  0.00    +0.007 A 
ATOM     34  C   UNL     1      10.616 -13.812   6.791  0.00  0.00    -0.029 A 
ATOM     35  C   UNL     1      11.176 -13.379   8.166  0.00  0.00    +0.045 C 
ENDROOT
BRANCH  10   9
ATOM      4  C   UNL     1       7.645  -9.097   7.614  0.00  0.00    +0.077 A 
ATOM      5  C   UNL     1       8.539  -8.414   6.724  0.00  0.00    +0.048 A 
ATOM      6  C   UNL     1       9.414  -9.208   5.948  0.00  0.00    +0.116 A 
ATOM      7  N   UNL     1       9.387 -10.581   6.062  0.00  0.00    -0.223 NA
ATOM      8  C   UNL     1       8.513 -11.207   6.932  0.00  0.00    +0.220 A 
ATOM      9  N   UNL     1       8.463 -12.587   7.057  0.00  0.00    -0.283 N 
ATOM     36  H   UNL     1       7.809 -13.011   7.715  0.00  0.00    +0.155 HD
ATOM     37  N   UNL     1       7.669 -10.472   7.685  0.00  0.00    -0.214 NA
BRANCH   4   3
ATOM      1  C   UNL     1       5.726  -7.780  10.759  0.00  0.00    +0.020 A 
ATOM      2  C   UNL     1       6.702  -8.476   9.952  0.00  0.00    +0.013 A 
ATOM      3  C   UNL     1       6.659  -8.397   8.497  0.00  0.00    +0.019 A 
ATOM     38  C   UNL     1       5.607  -7.599   7.886  0.00  0.00    +0.120 A 
ATOM     39  N   UNL     1       4.680  -6.941   8.688  0.00  0.00    -0.263 NA
ATOM     40  C   UNL     1       4.711  -7.011  10.089  0.00  0.00    +0.111 A 
ENDBRANCH   4   3
ENDBRANCH  10   9
BRANCH  12  13
ATOM     13  N   UNL     1       9.277 -15.145   2.867  0.00  0.00    -0.281 N 
ATOM     14  C   UNL     1       8.816 -16.402   2.512  0.00  0.00    +0.248 C 
ATOM     30  O   UNL     1       8.879 -17.390   3.228  0.00  0.00    -0.270 OA
ATOM     31  H   UNL     1       9.343 -14.461   2.113  0.00  0.00    +0.155 HD
BRANCH  14  15
ATOM     15  C   UNL     1       8.210 -16.592   1.159  0.00  0.00    +0.037 A 
ATOM     16  C   UNL     1       8.122 -15.485   0.203  0.00  0.00    +0.013 A 
ATOM     17  C   UNL     1       7.518 -15.692  -1.090  0.00  0.00    +0.005 A 
ATOM     18  C   UNL     1       6.997 -17.013  -1.434  0.00  0.00    -0.033 A 
ATOM     28  C   UNL     1       7.102 -18.094  -0.468  0.00  0.00    +0.005 A 
ATOM     29  C   UNL     1       7.693 -17.895   0.800  0.00  0.00    +0.013 A 
BRANCH  18  19
ATOM     19  C   UNL     1       6.317 -17.318  -2.781  0.00  0.00    +0.119 C 
BRANCH  19  20
ATOM     20  N   UNL     1       4.827 -17.228  -2.831  0.00  0.00    -0.302 NA
ATOM     21  C   UNL     1       4.239 -18.064  -3.971  0.00  0.00    +0.066 C 
ATOM     22  C   UNL     1       2.678 -17.976  -3.995  0.00  0.00    -0.064 C 
ATOM     23  N   UNL     1       2.255 -16.511  -4.123  0.00  0.00    +0.379 N 
ATOM     24  C   UNL     1       0.789 -16.429  -4.204  0.00  0.00    -0.096 C 
ATOM     25  H   UNL     1       2.669 -16.123  -5.083  0.00  0.00    -0.082 HD
ATOM     26  C   UNL     1       2.838 -15.672  -2.995  0.00  0.00    -0.064 C 
ATOM     27  C   UNL     1       4.387 -15.790  -2.962  0.00  0.00    +0.066 C 
ENDBRANCH  19  20
ENDBRANCH  18  19
ENDBRANCH  14  15
ENDBRANCH  12  13
TORSDOF 6
ENDMDL
MODEL 2
REMARK VINA RESULT:      -8.1      7.018     14.162
REMARK  Name = C:\Users\Docking\Desktop\test protocol\1iep_ligandH.pdb
REMARK  8 active torsions:
REMARK  status: ('A' for Active; 'I' for Inactive)
REMARK    1  A    between atoms: _5  and  _11
REMARK    2  A    between atoms: _19  and  _21
REMARK    3  A    between atoms: _22  and  _66
REMARK    4  A    between atoms: _27  and  _30
REMARK    5  A    between atoms: _32  and  _33
REMARK    6  A    between atoms: _38  and  _43
REMARK    7  A    between atoms: _43  and  _46
REMARK    8  A    between atoms: _53  and  _55
REMARK                            x       y       z     vdW  Elec       q    Type
REMARK                         _______ _______ _______ _____ _____    ______ ____
ROOT
ATOM     10  C   UNL     1       3.848  -8.837   5.504  0.00  0.00    +0.038 A 
ATOM     11  C   UNL     1       3.020  -8.325   6.536  0.00  0.00    +0.047 A 
ATOM     12  C   UNL     1       1.972  -7.358   6.250  0.00  0.00    +0.035 A 
ATOM     32  C   UNL     1       1.793  -6.935   4.901  0.00  0.00    +0.024 A 
ATOM     33  C   UNL     1       2.626  -7.444   3.839  0.00  0.00    +0.007 A 
ATOM     34  C   UNL     1       3.663  -8.397   4.116  0.00  0.00    -0.029 A 
ATOM     35  C   UNL     1       4.529  -8.903   2.940  0.00  0.00    +0.045 C 
ENDROOT
BRANCH  10   9
ATOM      4  C   UNL     1       8.367  -9.973   6.654  0.00  0.00    +0.077 A 
ATOM      5  C   UNL     1       8.796  -8.608   6.561  0.00  0.00    +0.048 A 
ATOM      6  C   UNL     1       7.825  -7.644   6.208  0.00  0.00    +0.116 A 
ATOM      7  N   UNL     1       6.524  -8.029   5.968  0.00  0.00    -0.223 NA
ATOM      8  C   UNL     1       6.143  -9.355   6.064  0.00  0.00    +0.220 A 
ATOM      9  N   UNL     1       4.838  -9.764   5.835  0.00  0.00    -0.283 N 
ATOM     36  H   UNL     1       4.599 -10.753   5.908  0.00  0.00    +0.155 HD
ATOM     37  N   UNL     1       7.052 -10.294   6.398  0.00  0.00    -0.214 NA
BRANCH   4   3
ATOM      1  C   UNL     1      11.530 -12.235   7.074  0.00  0.00    +0.020 A 
ATOM      2  C   UNL     1      10.697 -11.117   6.698  0.00  0.00    +0.013 A 
ATOM      3  C   UNL     1       9.275 -11.106   7.020  0.00  0.00    +0.019 A 
ATOM     38  C   UNL     1       8.724 -12.250   7.729  0.00  0.00    +0.120 A 
ATOM     39  N   UNL     1       9.551 -13.314   8.078  0.00  0.00    -0.263 NA
ATOM     40  C   UNL     1      10.920 -13.336   7.772  0.00  0.00    +0.111 A 
ENDBRANCH   4   3
ENDBRANCH  10   9
BRANCH  12  13
ATOM     13  N   UNL     1       1.107  -6.797   7.258  0.00  0.00    -0.281 N 
ATOM     14  C   UNL     1       1.462  -6.275   8.491  0.00  0.00    +0.248 C 
ATOM     30  O   UNL     1       2.562  -6.407   9.006  0.00  0.00    -0.270 OA
ATOM     31  H   UNL     1       0.111  -6.784   7.035  0.00  0.00    +0.155 HD
BRANCH  14  15
ATOM     15  C   UNL     1       0.443  -5.508   9.271  0.00  0.00    +0.037 A 
ATOM     16  C   UNL     1      -0.884  -6.067   9.543  0.00  0.00    +0.013 A 
ATOM     17  C   UNL     1      -1.854  -5.299  10.283  0.00  0.00    +0.005 A 
ATOM     18  C   UNL     1      -1.499  -3.964  10.758  0.00  0.00    -0.033 A 
ATOM     28  C   UNL     1      -0.174  -3.436  10.477  0.00  0.00    +0.005 A 
ATOM     29  C   UNL     1       0.779  -4.185   9.752  0.00  0.00    +0.013 A 
BRANCH  18  19
ATOM     19  C   UNL     1      -2.478  -3.065  11.536  0.00  0.00    +0.119 C 
BRANCH  19  20
ATOM     20  N   UNL     1      -3.840  -2.874  10.956  0.00  0.00    -0.302 NA
ATOM     21  C   UNL     1      -3.792  -2.170   9.596  0.00  0.00    +0.066 C 
ATOM     22  C   UNL     1      -5.223  -1.999   8.993  0.00  0.00    -0.064 C 
ATOM     23  N   UNL     1      -6.098  -1.218   9.975  0.00  0.00    +0.379 N 
ATOM     24  C   UNL     1      -7.428  -1.005   9.386  0.00  0.00    -0.096 C 
ATOM     25  H   UNL     1      -5.629  -0.218  10.124  0.00  0.00    -0.082 HD
ATOM     26  C   UNL     1      -6.150  -1.909  11.331  0.00  0.00    -0.064 C 
ATOM     27  C   UNL     1      -4.719  -2.101  11.908  0.00  0.00    +0.066 C 
ENDBRANCH  19  20
ENDBRANCH  18  19
ENDBRANCH  14  15
ENDBRANCH  12  13
TORSDOF 6
ENDMDL
MODEL 3
REMARK VINA RESULT:      -8.1     19.512     21.173
REMARK  Name = C:\Users\Docking\Desktop\test protocol\1iep_ligandH.pdb
REMARK  8 active torsions:
REMARK  status: ('A' for Active; 'I' for Inactive)
REMARK    1  A    between atoms: _5  and  _11
REMARK    2  A    between atoms: _19  and  _21
REMARK    3  A    between atoms: _22  and  _66
REMARK    4  A    between atoms: _27  and  _30
REMARK    5  A    between atoms: _32  and  _33
REMARK    6  A    between atoms: _38  and  _43
REMARK    7  A    between atoms: _43  and  _46
REMARK    8  A    between atoms: _53  and  _55
REMARK                            x       y       z     vdW  Elec       q    Type
REMARK                         _______ _______ _______ _____ _____    ______ ____
ROOT
ATOM     10  C   UNL     1      29.906 -13.078   4.208  0.00  0.00    +0.038 A 
ATOM     11  C   UNL     1      28.986 -13.084   3.128  0.00  0.00    +0.047 A 
ATOM     12  C   UNL     1      29.446 -13.096   1.748  0.00  0.00    +0.035 A 
ATOM     32  C   UNL     1      30.850 -13.104   1.504  0.00  0.00    +0.024 A 
ATOM     33  C   UNL     1      31.799 -13.097   2.589  0.00  0.00    +0.007 A 
ATOM     34  C   UNL     1      31.352 -13.083   3.953  0.00  0.00    -0.029 A 
ATOM     35  C   UNL     1      32.414 -13.069   5.076  0.00  0.00    +0.045 C 
ENDROOT
BRANCH  10   9
ATOM      4  C   UNL     1      28.241 -15.301   8.122  0.00  0.00    +0.077 A 
ATOM      5  C   UNL     1      28.344 -16.592   7.505  0.00  0.00    +0.048 A 
ATOM      6  C   UNL     1      28.823 -16.640   6.177  0.00  0.00    +0.116 A 
ATOM      7  N   UNL     1      29.171 -15.477   5.524  0.00  0.00    -0.223 NA
ATOM      8  C   UNL     1      29.058 -14.248   6.148  0.00  0.00    +0.220 A 
ATOM      9  N   UNL     1      29.410 -13.067   5.513  0.00  0.00    -0.283 N 
ATOM     36  H   UNL     1      29.305 -12.179   6.005  0.00  0.00    +0.155 HD
ATOM     37  N   UNL     1      28.602 -14.175   7.415  0.00  0.00    -0.214 NA
BRANCH   4   3
ATOM      1  C   UNL     1      26.094 -15.430  11.389  0.00  0.00    +0.020 A 
ATOM      2  C   UNL     1      26.518 -15.667  10.029  0.00  0.00    +0.013 A 
ATOM      3  C   UNL     1      27.755 -15.087   9.522  0.00  0.00    +0.019 A 
ATOM     38  C   UNL     1      28.547 -14.265  10.425  0.00  0.00    +0.120 A 
ATOM     39  N   UNL     1      28.113 -14.053  11.730  0.00  0.00    -0.263 NA
ATOM     40  C   UNL     1      26.923 -14.605  12.228  0.00  0.00    +0.111 A 
ENDBRANCH   4   3
ENDBRANCH  10   9
BRANCH  12  13
ATOM     13  N   UNL     1      28.559 -13.094   0.611  0.00  0.00    -0.281 N 
ATOM     14  C   UNL     1      27.590 -12.158   0.288  0.00  0.00    +0.248 C 
ATOM     30  O   UNL     1      27.191 -11.287   1.047  0.00  0.00    -0.270 OA
ATOM     31  H   UNL     1      28.658 -13.878  -0.034  0.00  0.00    +0.155 HD
BRANCH  14  15
ATOM     15  C   UNL     1      26.963 -12.206  -1.067  0.00  0.00    +0.037 A 
ATOM     16  C   UNL     1      27.621 -12.888  -2.185  0.00  0.00    +0.013 A 
ATOM     17  C   UNL     1      27.002 -12.905  -3.487  0.00  0.00    +0.005 A 
ATOM     18  C   UNL     1      25.716 -12.238  -3.678  0.00  0.00    -0.033 A 
ATOM     28  C   UNL     1      25.083 -11.574  -2.550  0.00  0.00    +0.005 A 
ATOM     29  C   UNL     1      25.687 -11.554  -1.273  0.00  0.00    +0.013 A 
BRANCH  18  19
ATOM     19  C   UNL     1      24.994 -12.188  -5.037  0.00  0.00    +0.119 C 
BRANCH  19  20
ATOM     20  N   UNL     1      25.165 -13.360  -5.946  0.00  0.00    -0.302 NA
ATOM     21  C   UNL     1      26.182 -13.082  -7.056  0.00  0.00    +0.066 C 
ATOM     22  C   UNL     1      26.365 -14.327  -7.985  0.00  0.00    -0.064 C 
ATOM     23  N   UNL     1      25.011 -14.722  -8.577  0.00  0.00    +0.379 N 
ATOM     24  C   UNL     1      25.189 -15.856  -9.496  0.00  0.00    -0.096 C 
ATOM     25  H   UNL     1      24.639 -13.857  -9.174  0.00  0.00    -0.082 HD
ATOM     26  C   UNL     1      23.993 -14.997  -7.480  0.00  0.00    -0.064 C 
ATOM     27  C   UNL     1      23.840 -13.764  -6.545  0.00  0.00    +0.066 C 
ENDBRANCH  19  20
ENDBRANCH  18  19
ENDBRANCH  14  15
ENDBRANCH  12  13
TORSDOF 6
ENDMDL
MODEL 4
REMARK VINA RESULT:      -7.8     14.686     17.956
REMARK  Name = C:\Users\Docking\Desktop\test protocol\1iep_ligandH.pdb
REMARK  8 active torsions:
REMARK  status: ('A' for Active; 'I' for Inactive)
REMARK    1  A    between atoms: _5  and  _11
REMARK    2  A    between atoms: _19  and  _21
REMARK    3  A    between atoms: _22  and  _66
REMARK    4  A    between atoms: _27  and  _30
REMARK    5  A    between atoms: _32  and  _33
REMARK    6  A    between atoms: _38  and  _43
REMARK    7  A    between atoms: _43  and  _46
REMARK    8  A    between atoms: _53  and  _55
REMARK                            x       y       z     vdW  Elec       q    Type
REMARK                         _______ _______ _______ _____ _____    ______ ____
ROOT
ATOM     10  C   UNL     1       4.112 -10.746 -12.121  0.00  0.00    +0.038 A 
ATOM     11  C   UNL     1       3.299 -10.268 -11.062  0.00  0.00    +0.047 A 
ATOM     12  C   UNL     1       1.852 -10.195 -11.198  0.00  0.00    +0.035 A 
ATOM     32  C   UNL     1       1.267 -10.620 -12.426  0.00  0.00    +0.024 A 
ATOM     33  C   UNL     1       2.080 -11.108 -13.513  0.00  0.00    +0.007 A 
ATOM     34  C   UNL     1       3.507 -11.179 -13.386  0.00  0.00    -0.029 A 
ATOM     35  C   UNL     1       4.329 -11.704 -14.586  0.00  0.00    +0.045 C 
ENDROOT
BRANCH  10   9
ATOM      4  C   UNL     1       8.480  -8.764 -12.307  0.00  0.00    +0.077 A 
ATOM      5  C   UNL     1       7.965  -7.537 -12.845  0.00  0.00    +0.048 A 
ATOM      6  C   UNL     1       6.572  -7.460 -13.065  0.00  0.00    +0.116 A 
ATOM      7  N   UNL     1       5.763  -8.535 -12.766  0.00  0.00    -0.223 NA
ATOM      8  C   UNL     1       6.292  -9.704 -12.251  0.00  0.00    +0.220 A 
ATOM      9  N   UNL     1       5.496 -10.794 -11.935  0.00  0.00    -0.283 N 
ATOM     36  H   UNL     1       5.925 -11.641 -11.564  0.00  0.00    +0.155 HD
ATOM     37  N   UNL     1       7.619  -9.803 -12.032  0.00  0.00    -0.214 NA
BRANCH   4   3
ATOM      1  C   UNL     1      11.854  -9.417 -10.440  0.00  0.00    +0.020 A 
ATOM      2  C   UNL     1      10.445  -9.193 -10.667  0.00  0.00    +0.013 A 
ATOM      3  C   UNL     1       9.930  -8.998 -12.016  0.00  0.00    +0.019 A 
ATOM     38  C   UNL     1      10.874  -9.036 -13.123  0.00  0.00    +0.120 A 
ATOM     39  N   UNL     1      12.226  -9.251 -12.874  0.00  0.00    -0.263 NA
ATOM     40  C   UNL     1      12.734  -9.439 -11.579  0.00  0.00    +0.111 A 
ENDBRANCH   4   3
ENDBRANCH  10   9
BRANCH  12  13
ATOM     13  N   UNL     1       0.976  -9.711 -10.160  0.00  0.00    -0.281 N 
ATOM     14  C   UNL     1       0.630  -8.399  -9.881  0.00  0.00    +0.248 C 
ATOM     30  O   UNL     1       1.194  -7.421 -10.349  0.00  0.00    -0.270 OA
ATOM     31  H   UNL     1       0.560 -10.423  -9.559  0.00  0.00    +0.155 HD
BRANCH  14  15
ATOM     15  C   UNL     1      -0.494  -8.136  -8.932  0.00  0.00    +0.037 A 
ATOM     16  C   UNL     1      -1.389  -9.211  -8.496  0.00  0.00    +0.013 A 
ATOM     17  C   UNL     1      -2.476  -8.926  -7.594  0.00  0.00    +0.005 A 
ATOM     18  C   UNL     1      -2.675  -7.558  -7.121  0.00  0.00    -0.033 A 
ATOM     28  C   UNL     1      -1.769  -6.511  -7.566  0.00  0.00    +0.005 A 
ATOM     29  C   UNL     1      -0.703  -6.787  -8.451  0.00  0.00    +0.013 A 
BRANCH  18  19
ATOM     19  C   UNL     1      -3.822  -7.158  -6.174  0.00  0.00    +0.119 C 
BRANCH  19  20
ATOM     20  N   UNL     1      -3.837  -7.782  -4.817  0.00  0.00    -0.302 NA
ATOM     21  C   UNL     1      -4.643  -9.084  -4.792  0.00  0.00    +0.066 C 
ATOM     22  C   UNL     1      -4.629  -9.734  -3.370  0.00  0.00    -0.064 C 
ATOM     23  N   UNL     1      -5.180  -8.736  -2.350  0.00  0.00    +0.379 N 
ATOM     24  C   UNL     1      -5.223  -9.365  -1.022  0.00  0.00    -0.096 C 
ATOM     25  H   UNL     1      -6.228  -8.496  -2.645  0.00  0.00    -0.082 HD
ATOM     26  C   UNL     1      -4.386  -7.438  -2.371  0.00  0.00    -0.064 C 
ATOM     27  C   UNL     1      -4.381  -6.815  -3.795  0.00  0.00    +0.066 C 
ENDBRANCH  19  20
ENDBRANCH  18  19
ENDBRANCH  14  15
ENDBRANCH  12  13
TORSDOF 6
ENDMDL
MODEL 5
REMARK VINA RESULT:      -7.8     18.649     23.919
REMARK  Name = C:\Users\Docking\Desktop\test protocol\1iep_ligandH.pdb
REMARK  8 active torsions:
REMARK  status: ('A' for Active; 'I' for Inactive)
REMARK    1  A    between atoms: _5  and  _11
REMARK    2  A    between atoms: _19  and  _21
REMARK    3  A    between atoms: _22  and  _66
REMARK    4  A    between atoms: _27  and  _30
REMARK    5  A    between atoms: _32  and  _33
REMARK    6  A    between atoms: _38  and  _43
REMARK    7  A    between atoms: _43  and  _46
REMARK    8  A    between atoms: _53  and  _55
REMARK                            x       y       z     vdW  Elec       q    Type
REMARK                         _______ _______ _______ _____ _____    ______ ____
ROOT
ATOM     10  C   UNL     1      29.132 -13.525  -0.483  0.00  0.00    +0.038 A 
ATOM     11  C   UNL     1      28.835 -13.501   0.904  0.00  0.00    +0.047 A 
ATOM     12  C   UNL     1      29.753 -12.904   1.861  0.00  0.00    +0.035 A 
ATOM     32  C   UNL     1      30.965 -12.336   1.370  0.00  0.00    +0.024 A 
ATOM     33  C   UNL     1      31.284 -12.352  -0.036  0.00  0.00    +0.007 A 
ATOM     34  C   UNL     1      30.383 -12.942  -0.984  0.00  0.00    -0.029 A 
ATOM     35  C   UNL     1      30.780 -12.937  -2.479  0.00  0.00    +0.045 C 
ENDROOT
BRANCH  10   9
ATOM      4  C   UNL     1      25.093 -13.422  -3.073  0.00  0.00    +0.077 A 
ATOM      5  C   UNL     1      24.769 -12.098  -2.625  0.00  0.00    +0.048 A 
ATOM      6  C   UNL     1      25.665 -11.481  -1.723  0.00  0.00    +0.116 A 
ATOM      7  N   UNL     1      26.797 -12.148  -1.307  0.00  0.00    -0.223 NA
ATOM      8  C   UNL     1      27.078 -13.425  -1.756  0.00  0.00    +0.220 A 
ATOM      9  N   UNL     1      28.215 -14.111  -1.357  0.00  0.00    -0.283 N 
ATOM     36  H   UNL     1      28.383 -15.055  -1.705  0.00  0.00    +0.155 HD
ATOM     37  N   UNL     1      26.238 -14.037  -2.617  0.00  0.00    -0.214 NA
BRANCH   4   3
ATOM      1  C   UNL     1      23.448 -14.783  -6.351  0.00  0.00    +0.020 A 
ATOM      2  C   UNL     1      24.286 -14.000  -5.471  0.00  0.00    +0.013 A 
ATOM      3  C   UNL     1      24.247 -14.205  -4.029  0.00  0.00    +0.019 A 
ATOM     38  C   UNL     1      23.343 -15.218  -3.504  0.00  0.00    +0.120 A 
ATOM     39  N   UNL     1      22.548 -15.955  -4.375  0.00  0.00    -0.263 NA
ATOM     40  C   UNL     1      22.575 -15.766  -5.765  0.00  0.00    +0.111 A 
ENDBRANCH   4   3
ENDBRANCH  10   9
BRANCH  12  13
ATOM     13  N   UNL     1      29.508 -12.858   3.281  0.00  0.00    -0.281 N 
ATOM     14  C   UNL     1      29.784 -13.834   4.225  0.00  0.00    +0.248 C 
ATOM     30  O   UNL     1      30.089 -14.987   3.957  0.00  0.00    -0.270 OA
ATOM     31  H   UNL     1      29.080 -12.002   3.634  0.00  0.00    +0.155 HD
BRANCH  14  15
ATOM     15  C   UNL     1      29.693 -13.483   5.675  0.00  0.00    +0.037 A 
ATOM     16  C   UNL     1      30.373 -12.303   6.215  0.00  0.00    +0.013 A 
ATOM     17  C   UNL     1      30.283 -11.997   7.620  0.00  0.00    +0.005 A 
ATOM     18  C   UNL     1      29.508 -12.872   8.496  0.00  0.00    -0.033 A 
ATOM     28  C   UNL     1      28.839 -14.034   7.933  0.00  0.00    +0.005 A 
ATOM     29  C   UNL     1      28.926 -14.338   6.556  0.00  0.00    +0.013 A 
BRANCH  18  19
ATOM     19  C   UNL     1      29.375 -12.634  10.012  0.00  0.00    +0.119 C 
BRANCH  19  20
ATOM     20  N   UNL     1      29.086 -13.823  10.868  0.00  0.00    -0.302 NA
ATOM     21  C   UNL     1      27.693 -13.751  11.500  0.00  0.00    +0.066 C 
ATOM     22  C   UNL     1      27.399 -15.013  12.374  0.00  0.00    -0.064 C 
ATOM     23  N   UNL     1      28.476 -15.146  13.452  0.00  0.00    +0.379 N 
ATOM     24  C   UNL     1      28.170 -16.299  14.312  0.00  0.00    -0.096 C 
ATOM     25  H   UNL     1      28.434 -14.230  14.086  0.00  0.00    -0.082 HD
ATOM     26  C   UNL     1      29.865 -15.216  12.832  0.00  0.00    -0.064 C 
ATOM     27  C   UNL     1      30.136 -13.971  11.942  0.00  0.00    +0.066 C 
ENDBRANCH  19  20
ENDBRANCH  18  19
ENDBRANCH  14  15
ENDBRANCH  12  13
TORSDOF 6
ENDMDL
