MODEL 1
REMARK VINA RESULT:      -6.2      0.000      0.000
REMARK  Name = C:\Users\Docking\Desktop\test protocol\1iep_ligandH.pdb
REMARK  8 active torsions:
REMARK  status: ('A' for Active; 'I' for Inactive)
REMARK    1  A    between atoms: _5  and  _11
REMARK    2  A    between atoms: _19  and  _21
REMARK    3  A    between atoms: _22  and  _66
REMARK    4  A    between atoms: _27  and  _30
REMARK    5  A    between atoms: _32  and  _33
REMARK    6  A    between atoms: _38  and  _43
REMARK    7  A    between atoms: _43  and  _46
REMARK    8  A    between atoms: _53  and  _55
REMARK                            x       y       z     vdW  Elec       q    Type
REMARK                         _______ _______ _______ _____ _____    ______ ____
ROOT
ATOM     10  C   UNL     1      17.486  20.703  -8.612  0.00  0.00    +0.038 A 
ATOM     11  C   UNL     1      16.931  19.681  -9.425  0.00  0.00    +0.047 A 
ATOM     12  C   UNL     1      15.952  19.988 -10.456  0.00  0.00    +0.035 A 
ATOM     32  C   UNL     1      15.563  21.348 -10.634  0.00  0.00    +0.024 A 
ATOM     33  C   UNL     1      16.115  22.399  -9.816  0.00  0.00    +0.007 A 
ATOM     34  C   UNL     1      17.079  22.101  -8.796  0.00  0.00    -0.029 A 
ATOM     35  C   UNL     1      17.634  23.267  -7.944  0.00  0.00    +0.045 C 
ENDROOT
BRANCH  10   9
ATOM      4  C   UNL     1      21.979  19.795  -7.191  0.00  0.00    +0.077 A 
ATOM      5  C   UNL     1      22.503  20.013  -8.509  0.00  0.00    +0.048 A 
ATOM      6  C   UNL     1      21.582  20.350  -9.526  0.00  0.00    +0.116 A 
ATOM      7  N   UNL     1      20.239  20.458  -9.235  0.00  0.00    -0.223 NA
ATOM      8  C   UNL     1      19.767  20.240  -7.954  0.00  0.00    +0.220 A 
ATOM      9  N   UNL     1      18.422  20.351  -7.637  0.00  0.00    -0.283 N 
ATOM     36  H   UNL     1      18.112  20.175  -6.682  0.00  0.00    +0.155 HD
ATOM     37  N   UNL     1      20.626  19.915  -6.965  0.00  0.00    -0.214 NA
BRANCH   4   3
ATOM      1  C   UNL     1      23.656  17.814  -4.264  0.00  0.00    +0.020 A 
ATOM      2  C   UNL     1      22.817  18.110  -5.403  0.00  0.00    +0.013 A 
ATOM      3  C   UNL     1      22.827  19.435  -6.010  0.00  0.00    +0.019 A 
ATOM     38  C   UNL     1      23.703  20.445  -5.438  0.00  0.00    +0.120 A 
ATOM     39  N   UNL     1      24.498  20.132  -4.340  0.00  0.00    -0.263 NA
ATOM     40  C   UNL     1      24.496  18.861  -3.745  0.00  0.00    +0.111 A 
ENDBRANCH   4   3
ENDBRANCH  10   9
BRANCH  12  13
ATOM     13  N   UNL     1      15.349  18.992 -11.307  0.00  0.00    -0.281 N 
ATOM     14  C   UNL     1      14.083  18.439 -11.204  0.00  0.00    +0.248 C 
ATOM     30  O   UNL     1      13.351  18.563 -10.234  0.00  0.00    -0.270 OA
ATOM     31  H   UNL     1      15.925  18.654 -12.077  0.00  0.00    +0.155 HD
BRANCH  14  15
ATOM     15  C   UNL     1      13.559  17.619 -12.339  0.00  0.00    +0.037 A 
ATOM     16  C   UNL     1      14.462  17.034 -13.333  0.00  0.00    +0.013 A 
ATOM     17  C   UNL     1      13.930  16.261 -14.427  0.00  0.00    +0.005 A 
ATOM     18  C   UNL     1      12.486  16.067 -14.531  0.00  0.00    -0.033 A 
ATOM     28  C   UNL     1      11.613  16.654 -13.528  0.00  0.00    +0.005 A 
ATOM     29  C   UNL     1      12.131  17.413 -12.455  0.00  0.00    +0.013 A 
BRANCH  18  19
ATOM     19  C   UNL     1      11.829  15.274 -15.677  0.00  0.00    +0.119 C 
BRANCH  19  20
ATOM     20  N   UNL     1      12.141  13.816 -15.767  0.00  0.00    -0.302 NA
ATOM     21  C   UNL     1      11.787  13.236 -17.139  0.00  0.00    +0.066 C 
ATOM     22  C   UNL     1      12.141  11.716 -17.223  0.00  0.00    -0.064 C 
ATOM     23  N   UNL     1      11.409  10.962 -16.111  0.00  0.00    +0.379 N 
ATOM     24  C   UNL     1      11.695   9.524 -16.223  0.00  0.00    -0.096 C 
ATOM     25  H   UNL     1      10.315  11.104 -16.270  0.00  0.00    -0.082 HD
ATOM     26  C   UNL     1      11.754  11.534 -14.743  0.00  0.00    -0.064 C 
ATOM     27  C   UNL     1      11.426  13.052 -14.680  0.00  0.00    +0.066 C 
ENDBRANCH  19  20
ENDBRANCH  18  19
ENDBRANCH  14  15
ENDBRANCH  12  13
TORSDOF 6
ENDMDL
MODEL 2
REMARK VINA RESULT:      -6.2      2.069     12.465
REMARK  Name = C:\Users\Docking\Desktop\test protocol\1iep_ligandH.pdb
REMARK  8 active torsions:
REMARK  status: ('A' for Active; 'I' for Inactive)
REMARK    1  A    between atoms: _5  and  _11
REMARK    2  A    between atoms: _19  and  _21
REMARK    3  A    between atoms: _22  and  _66
REMARK    4  A    between atoms: _27  and  _30
REMARK    5  A    between atoms: _32  and  _33
REMARK    6  A    between atoms: _38  and  _43
REMARK    7  A    between atoms: _43  and  _46
REMARK    8  A    between atoms: _53  and  _55
REMARK                            x       y       z     vdW  Elec       q    Type
REMARK                         _______ _______ _______ _____ _____    ______ ____
ROOT
ATOM     10  C   UNL     1      13.652  18.536 -11.326  0.00  0.00    +0.038 A 
ATOM     11  C   UNL     1      15.001  18.410 -10.907  0.00  0.00    +0.047 A 
ATOM     12  C   UNL     1      15.717  19.535 -10.326  0.00  0.00    +0.035 A 
ATOM     32  C   UNL     1      15.027  20.774 -10.184  0.00  0.00    +0.024 A 
ATOM     33  C   UNL     1      13.656  20.920 -10.607  0.00  0.00    +0.007 A 
ATOM     34  C   UNL     1      12.946  19.815 -11.183  0.00  0.00    -0.029 A 
ATOM     35  C   UNL     1      11.480  20.031 -11.623  0.00  0.00    +0.045 C 
ENDROOT
BRANCH  10   9
ATOM      4  C   UNL     1      12.559  15.686 -15.030  0.00  0.00    +0.077 A 
ATOM      5  C   UNL     1      13.301  16.498 -15.951  0.00  0.00    +0.048 A 
ATOM      6  C   UNL     1      13.944  17.645 -15.432  0.00  0.00    +0.116 A 
ATOM      7  N   UNL     1      13.845  17.947 -14.091  0.00  0.00    -0.223 NA
ATOM      8  C   UNL     1      13.120  17.143 -13.231  0.00  0.00    +0.220 A 
ATOM      9  N   UNL     1      13.013  17.423 -11.877  0.00  0.00    -0.283 N 
ATOM     36  H   UNL     1      12.463  16.809 -11.277  0.00  0.00    +0.155 HD
ATOM     37  N   UNL     1      12.495  16.043 -13.702  0.00  0.00    -0.214 NA
BRANCH   4   3
ATOM      1  C   UNL     1      11.742  11.990 -16.018  0.00  0.00    +0.020 A 
ATOM      2  C   UNL     1      12.495  13.163 -15.637  0.00  0.00    +0.013 A 
ATOM      3  C   UNL     1      11.827  14.441 -15.426  0.00  0.00    +0.019 A 
ATOM     38  C   UNL     1      10.385  14.499 -15.609  0.00  0.00    +0.120 A 
ATOM     39  N   UNL     1       9.686  13.354 -15.977  0.00  0.00    -0.263 NA
ATOM     40  C   UNL     1      10.318  12.119 -16.185  0.00  0.00    +0.111 A 
ENDBRANCH   4   3
ENDBRANCH  10   9
BRANCH  12  13
ATOM     13  N   UNL     1      17.090  19.469  -9.889  0.00  0.00    -0.281 N 
ATOM     14  C   UNL     1      18.131  20.321 -10.219  0.00  0.00    +0.248 C 
ATOM     30  O   UNL     1      18.086  21.151 -11.115  0.00  0.00    -0.270 OA
ATOM     31  H   UNL     1      17.322  18.700  -9.260  0.00  0.00    +0.155 HD
BRANCH  14  15
ATOM     15  C   UNL     1      19.410  20.228  -9.453  0.00  0.00    +0.037 A 
ATOM     16  C   UNL     1      20.707  20.375 -10.119  0.00  0.00    +0.013 A 
ATOM     17  C   UNL     1      21.927  20.264  -9.359  0.00  0.00    +0.005 A 
ATOM     18  C   UNL     1      21.855  20.007  -7.922  0.00  0.00    -0.033 A 
ATOM     28  C   UNL     1      20.555  19.871  -7.286  0.00  0.00    +0.005 A 
ATOM     29  C   UNL     1      19.358  19.978  -8.028  0.00  0.00    +0.013 A 
BRANCH  18  19
ATOM     19  C   UNL     1      23.106  19.853  -7.037  0.00  0.00    +0.119 C 
BRANCH  19  20
ATOM     20  N   UNL     1      23.331  18.522  -6.397  0.00  0.00    -0.302 NA
ATOM     21  C   UNL     1      23.309  18.608  -4.869  0.00  0.00    +0.066 C 
ATOM     22  C   UNL     1      23.524  17.204  -4.216  0.00  0.00    -0.064 C 
ATOM     23  N   UNL     1      24.847  16.614  -4.707  0.00  0.00    +0.379 N 
ATOM     24  C   UNL     1      25.080  15.319  -4.051  0.00  0.00    -0.096 C 
ATOM     25  H   UNL     1      25.663  17.305  -4.391  0.00  0.00    -0.082 HD
ATOM     26  C   UNL     1      24.879  16.527  -6.226  0.00  0.00    -0.064 C 
ATOM     27  C   UNL     1      24.635  17.923  -6.864  0.00  0.00    +0.066 C 
ENDBRANCH  19  20
ENDBRANCH  18  19
ENDBRANCH  14  15
ENDBRANCH  12  13
TORSDOF 6
ENDMDL
MODEL 3
REMARK VINA RESULT:      -6.1     29.010     33.508
REMARK  Name = C:\Users\Docking\Desktop\test protocol\1iep_ligandH.pdb
REMARK  8 active torsions:
REMARK  status: ('A' for Active; 'I' for Inactive)
REMARK    1  A    between atoms: _5  and  _11
REMARK    2  A    between atoms: _19  and  _21
REMARK    3  A    between atoms: _22  and  _66
REMARK    4  A    between atoms: _27  and  _30
REMARK    5  A    between atoms: _32  and  _33
REMARK    6  A    between atoms: _38  and  _43
REMARK    7  A    between atoms: _43  and  _46
REMARK    8  A    between atoms: _53  and  _55
REMARK                            x       y       z     vdW  Elec       q    Type
REMARK                         _______ _______ _______ _____ _____    ______ ____
ROOT
ATOM     10  C   UNL     1      15.418  16.762  19.001  0.00  0.00    +0.038 A 
ATOM     11  C   UNL     1      16.708  16.565  19.558  0.00  0.00    +0.047 A 
ATOM     12  C   UNL     1      17.669  15.669  18.932  0.00  0.00    +0.035 A 
ATOM     32  C   UNL     1      17.283  14.993  17.738  0.00  0.00    +0.024 A 
ATOM     33  C   UNL     1      15.976  15.181  17.159  0.00  0.00    +0.007 A 
ATOM     34  C   UNL     1      15.024  16.061  17.773  0.00  0.00    -0.029 A 
ATOM     35  C   UNL     1      13.635  16.220  17.112  0.00  0.00    +0.045 C 
ENDROOT
BRANCH  10   9
ATOM      4  C   UNL     1      13.662  21.149  19.841  0.00  0.00    +0.077 A 
ATOM      5  C   UNL     1      14.600  21.761  18.944  0.00  0.00    +0.048 A 
ATOM      6  C   UNL     1      15.522  20.912  18.292  0.00  0.00    +0.116 A 
ATOM      7  N   UNL     1      15.499  19.554  18.526  0.00  0.00    -0.223 NA
ATOM      8  C   UNL     1      14.582  18.997  19.399  0.00  0.00    +0.220 A 
ATOM      9  N   UNL     1      14.536  17.633  19.644  0.00  0.00    -0.283 N 
ATOM     36  H   UNL     1      13.849  17.262  20.300  0.00  0.00    +0.155 HD
ATOM     37  N   UNL     1      13.692  19.786  20.035  0.00  0.00    -0.214 NA
BRANCH   4   3
ATOM      1  C   UNL     1      11.189  22.317  22.638  0.00  0.00    +0.020 A 
ATOM      2  C   UNL     1      12.197  21.546  21.946  0.00  0.00    +0.013 A 
ATOM      3  C   UNL     1      12.623  21.912  20.601  0.00  0.00    +0.019 A 
ATOM     38  C   UNL     1      12.005  23.074  19.980  0.00  0.00    +0.120 A 
ATOM     39  N   UNL     1      11.037  23.797  20.669  0.00  0.00    -0.263 NA
ATOM     40  C   UNL     1      10.618  23.453  21.963  0.00  0.00    +0.111 A 
ENDBRANCH   4   3
ENDBRANCH  10   9
BRANCH  12  13
ATOM     13  N   UNL     1      18.989  15.423  19.456  0.00  0.00    -0.281 N 
ATOM     14  C   UNL     1      19.346  14.609  20.519  0.00  0.00    +0.248 C 
ATOM     30  O   UNL     1      18.555  14.133  21.320  0.00  0.00    -0.270 OA
ATOM     31  H   UNL     1      19.754  15.908  18.986  0.00  0.00    +0.155 HD
BRANCH  14  15
ATOM     15  C   UNL     1      20.790  14.290  20.730  0.00  0.00    +0.037 A 
ATOM     16  C   UNL     1      21.629  13.799  19.634  0.00  0.00    +0.013 A 
ATOM     17  C   UNL     1      23.015  13.482  19.870  0.00  0.00    +0.005 A 
ATOM     18  C   UNL     1      23.572  13.657  21.209  0.00  0.00    -0.033 A 
ATOM     28  C   UNL     1      22.719  14.151  22.277  0.00  0.00    +0.005 A 
ATOM     29  C   UNL     1      21.360  14.462  22.050  0.00  0.00    +0.013 A 
BRANCH  18  19
ATOM     19  C   UNL     1      25.035  13.324  21.556  0.00  0.00    +0.119 C 
BRANCH  19  20
ATOM     20  N   UNL     1      25.522  13.715  22.913  0.00  0.00    -0.302 NA
ATOM     21  C   UNL     1      26.865  14.448  22.853  0.00  0.00    +0.066 C 
ATOM     22  C   UNL     1      27.348  14.869  24.279  0.00  0.00    -0.064 C 
ATOM     23  N   UNL     1      27.448  13.628  25.167  0.00  0.00    +0.379 N 
ATOM     24  C   UNL     1      27.958  14.013  26.492  0.00  0.00    -0.096 C 
ATOM     25  H   UNL     1      28.194  12.941  24.704  0.00  0.00    -0.082 HD
ATOM     26  C   UNL     1      26.118  12.891  25.231  0.00  0.00    -0.064 C 
ATOM     27  C   UNL     1      25.633  12.503  23.806  0.00  0.00    +0.066 C 
ENDBRANCH  19  20
ENDBRANCH  18  19
ENDBRANCH  14  15
ENDBRANCH  12  13
TORSDOF 6
ENDMDL
