MODEL 1
REMARK VINA RESULT:      -9.0      0.000      0.000
REMARK  Name = C:\Users\Docking\Desktop\test protocol\1iep_ligandH.pdb
REMARK  8 active torsions:
REMARK  status: ('A' for Active; 'I' for Inactive)
REMARK    1  A    between atoms: _5  and  _11
REMARK    2  A    between atoms: _19  and  _21
REMARK    3  A    between atoms: _22  and  _66
REMARK    4  A    between atoms: _27  and  _30
REMARK    5  A    between atoms: _32  and  _33
REMARK    6  A    between atoms: _38  and  _43
REMARK    7  A    between atoms: _43  and  _46
REMARK    8  A    between atoms: _53  and  _55
REMARK                            x       y       z     vdW  Elec       q    Type
REMARK                         _______ _______ _______ _____ _____    ______ ____
ROOT
ATOM     10  C   UNL     1      62.553 -14.417  38.434  0.00  0.00    +0.038 A 
ATOM     11  C   UNL     1      62.203 -13.043  38.440  0.00  0.00    +0.047 A 
ATOM     12  C   UNL     1      61.522 -12.435  37.307  0.00  0.00    +0.035 A 
ATOM     32  C   UNL     1      61.211 -13.257  36.185  0.00  0.00    +0.024 A 
ATOM     33  C   UNL     1      61.561 -14.655  36.162  0.00  0.00    +0.007 A 
ATOM     34  C   UNL     1      62.234 -15.260  37.275  0.00  0.00    -0.029 A 
ATOM     35  C   UNL     1      62.591 -16.763  37.193  0.00  0.00    +0.045 C 
ENDROOT
BRANCH  10   9
ATOM      4  C   UNL     1      62.621 -15.853  43.013  0.00  0.00    +0.077 A 
ATOM      5  C   UNL     1      61.247 -15.488  43.210  0.00  0.00    +0.048 A 
ATOM      6  C   UNL     1      60.561 -14.927  42.109  0.00  0.00    +0.116 A 
ATOM      7  N   UNL     1      61.210 -14.749  40.907  0.00  0.00    -0.223 NA
ATOM      8  C   UNL     1      62.536 -15.111  40.751  0.00  0.00    +0.220 A 
ATOM      9  N   UNL     1      63.206 -14.949  39.548  0.00  0.00    -0.283 N 
ATOM     36  H   UNL     1      64.186 -15.221  39.476  0.00  0.00    +0.155 HD
ATOM     37  N   UNL     1      63.213 -15.647  41.787  0.00  0.00    -0.214 NA
BRANCH   4   3
ATOM      1  C   UNL     1      64.647 -16.397  46.314  0.00  0.00    +0.020 A 
ATOM      2  C   UNL     1      63.815 -15.766  45.316  0.00  0.00    +0.013 A 
ATOM      3  C   UNL     1      63.479 -16.460  44.080  0.00  0.00    +0.019 A 
ATOM     38  C   UNL     1      64.004 -17.802  43.883  0.00  0.00    +0.120 A 
ATOM     39  N   UNL     1      64.804 -18.384  44.861  0.00  0.00    -0.263 NA
ATOM     40  C   UNL     1      65.136 -17.725  46.054  0.00  0.00    +0.111 A 
ENDBRANCH   4   3
ENDBRANCH  10   9
BRANCH  12  13
ATOM     13  N   UNL     1      61.149 -11.043  37.253  0.00  0.00    -0.281 N 
ATOM     14  C   UNL     1      60.188 -10.449  36.451  0.00  0.00    +0.248 C 
ATOM     30  O   UNL     1      59.649 -10.995  35.500  0.00  0.00    -0.270 OA
ATOM     31  H   UNL     1      61.654 -10.420  37.883  0.00  0.00    +0.155 HD
BRANCH  14  15
ATOM     15  C   UNL     1      59.777  -9.041  36.738  0.00  0.00    +0.037 A 
ATOM     16  C   UNL     1      59.849  -8.490  38.094  0.00  0.00    +0.013 A 
ATOM     17  C   UNL     1      59.430  -7.134  38.346  0.00  0.00    +0.005 A 
ATOM     18  C   UNL     1      58.937  -6.319  37.239  0.00  0.00    -0.033 A 
ATOM     28  C   UNL     1      58.881  -6.889  35.903  0.00  0.00    +0.005 A 
ATOM     29  C   UNL     1      59.289  -8.218  35.652  0.00  0.00    +0.013 A 
BRANCH  18  19
ATOM     19  C   UNL     1      58.449  -4.869  37.420  0.00  0.00    +0.119 C 
BRANCH  19  20
ATOM     20  N   UNL     1      58.926  -4.133  38.628  0.00  0.00    -0.302 NA
ATOM     21  C   UNL     1      57.877  -4.119  39.744  0.00  0.00    +0.066 C 
ATOM     22  C   UNL     1      58.401  -3.365  41.009  0.00  0.00    -0.064 C 
ATOM     23  N   UNL     1      58.798  -1.939  40.621  0.00  0.00    +0.379 N 
ATOM     24  C   UNL     1      59.237  -1.209  41.819  0.00  0.00    -0.096 C 
ATOM     25  H   UNL     1      57.888  -1.430  40.228  0.00  0.00    -0.082 HD
ATOM     26  C   UNL     1      59.839  -1.944  39.510  0.00  0.00    -0.064 C 
ATOM     27  C   UNL     1      59.320  -2.722  38.269  0.00  0.00    +0.066 C 
ENDBRANCH  19  20
ENDBRANCH  18  19
ENDBRANCH  14  15
ENDBRANCH  12  13
TORSDOF 6
ENDMDL
MODEL 2
REMARK VINA RESULT:      -8.9      1.793     11.646
REMARK  Name = C:\Users\Docking\Desktop\test protocol\1iep_ligandH.pdb
REMARK  8 active torsions:
REMARK  status: ('A' for Active; 'I' for Inactive)
REMARK    1  A    between atoms: _5  and  _11
REMARK    2  A    between atoms: _19  and  _21
REMARK    3  A    between atoms: _22  and  _66
REMARK    4  A    between atoms: _27  and  _30
REMARK    5  A    between atoms: _32  and  _33
REMARK    6  A    between atoms: _38  and  _43
REMARK    7  A    between atoms: _43  and  _46
REMARK    8  A    between atoms: _53  and  _55
REMARK                            x       y       z     vdW  Elec       q    Type
REMARK                         _______ _______ _______ _____ _____    ______ ____
ROOT
ATOM     10  C   UNL     1      59.128  -5.969  35.859  0.00  0.00    +0.038 A 
ATOM     11  C   UNL     1      59.570  -7.176  36.460  0.00  0.00    +0.047 A 
ATOM     12  C   UNL     1      59.318  -8.464  35.834  0.00  0.00    +0.035 A 
ATOM     32  C   UNL     1      58.615  -8.487  34.594  0.00  0.00    +0.024 A 
ATOM     33  C   UNL     1      58.158  -7.270  33.970  0.00  0.00    +0.007 A 
ATOM     34  C   UNL     1      58.401  -5.996  34.584  0.00  0.00    -0.029 A 
ATOM     35  C   UNL     1      57.882  -4.725  33.873  0.00  0.00    +0.045 C 
ENDROOT
BRANCH  10   9
ATOM      4  C   UNL     1      59.353  -3.229  39.793  0.00  0.00    +0.077 A 
ATOM      5  C   UNL     1      58.867  -4.287  40.631  0.00  0.00    +0.048 A 
ATOM      6  C   UNL     1      58.565  -5.520  40.009  0.00  0.00    +0.116 A 
ATOM      7  N   UNL     1      58.739  -5.670  38.650  0.00  0.00    -0.223 NA
ATOM      8  C   UNL     1      59.207  -4.628  37.871  0.00  0.00    +0.220 A 
ATOM      9  N   UNL     1      59.397  -4.760  36.504  0.00  0.00    -0.283 N 
ATOM     36  H   UNL     1      59.738  -3.965  35.964  0.00  0.00    +0.155 HD
ATOM     37  N   UNL     1      59.502  -3.441  38.441  0.00  0.00    -0.214 NA
BRANCH   4   3
ATOM      1  C   UNL     1      60.886   0.358  40.094  0.00  0.00    +0.020 A 
ATOM      2  C   UNL     1      60.562  -0.944  39.557  0.00  0.00    +0.013 A 
ATOM      3  C   UNL     1      59.719  -1.869  40.303  0.00  0.00    +0.019 A 
ATOM     38  C   UNL     1      59.215  -1.444  41.600  0.00  0.00    +0.120 A 
ATOM     39  N   UNL     1      59.545  -0.185  42.093  0.00  0.00    -0.263 NA
ATOM     40  C   UNL     1      60.357   0.714  41.384  0.00  0.00    +0.111 A 
ENDBRANCH   4   3
ENDBRANCH  10   9
BRANCH  12  13
ATOM     13  N   UNL     1      59.736  -9.723  36.401  0.00  0.00    -0.281 N 
ATOM     14  C   UNL     1      60.042 -10.897  35.733  0.00  0.00    +0.248 C 
ATOM     30  O   UNL     1      59.796 -11.107  34.555  0.00  0.00    -0.270 OA
ATOM     31  H   UNL     1      59.815  -9.751  37.417  0.00  0.00    +0.155 HD
BRANCH  14  15
ATOM     15  C   UNL     1      60.704 -12.005  36.488  0.00  0.00    +0.037 A 
ATOM     16  C   UNL     1      60.278 -13.397  36.324  0.00  0.00    +0.013 A 
ATOM     17  C   UNL     1      60.922 -14.444  37.077  0.00  0.00    +0.005 A 
ATOM     18  C   UNL     1      62.002 -14.102  38.000  0.00  0.00    -0.033 A 
ATOM     28  C   UNL     1      62.408 -12.713  38.139  0.00  0.00    +0.005 A 
ATOM     29  C   UNL     1      61.778 -11.684  37.403  0.00  0.00    +0.013 A 
BRANCH  18  19
ATOM     19  C   UNL     1      62.732 -15.151  38.859  0.00  0.00    +0.119 C 
BRANCH  19  20
ATOM     20  N   UNL     1      62.569 -15.055  40.340  0.00  0.00    -0.302 NA
ATOM     21  C   UNL     1      63.267 -16.205  41.071  0.00  0.00    +0.066 C 
ATOM     22  C   UNL     1      63.106 -16.077  42.621  0.00  0.00    -0.064 C 
ATOM     23  N   UNL     1      61.618 -16.034  42.974  0.00  0.00    +0.379 N 
ATOM     24  C   UNL     1      61.463 -15.972  44.435  0.00  0.00    -0.096 C 
ATOM     25  H   UNL     1      61.161 -16.989  42.626  0.00  0.00    -0.082 HD
ATOM     26  C   UNL     1      60.916 -14.895  42.250  0.00  0.00    -0.064 C 
ATOM     27  C   UNL     1      61.107 -15.016  40.712  0.00  0.00    +0.066 C 
ENDBRANCH  19  20
ENDBRANCH  18  19
ENDBRANCH  14  15
ENDBRANCH  12  13
TORSDOF 6
ENDMDL
MODEL 3
REMARK VINA RESULT:      -8.9      5.344      9.627
REMARK  Name = C:\Users\Docking\Desktop\test protocol\1iep_ligandH.pdb
REMARK  8 active torsions:
REMARK  status: ('A' for Active; 'I' for Inactive)
REMARK    1  A    between atoms: _5  and  _11
REMARK    2  A    between atoms: _19  and  _21
REMARK    3  A    between atoms: _22  and  _66
REMARK    4  A    between atoms: _27  and  _30
REMARK    5  A    between atoms: _32  and  _33
REMARK    6  A    between atoms: _38  and  _43
REMARK    7  A    between atoms: _43  and  _46
REMARK    8  A    between atoms: _53  and  _55
REMARK                            x       y       z     vdW  Elec       q    Type
REMARK                         _______ _______ _______ _____ _____    ______ ____
ROOT
ATOM     10  C   UNL     1      59.461  -6.232  39.003  0.00  0.00    +0.038 A 
ATOM     11  C   UNL     1      59.391  -5.332  37.909  0.00  0.00    +0.047 A 
ATOM     12  C   UNL     1      58.968  -3.952  38.097  0.00  0.00    +0.035 A 
ATOM     32  C   UNL     1      58.627  -3.523  39.413  0.00  0.00    +0.024 A 
ATOM     33  C   UNL     1      58.692  -4.426  40.535  0.00  0.00    +0.007 A 
ATOM     34  C   UNL     1      59.106  -5.788  40.356  0.00  0.00    -0.029 A 
ATOM     35  C   UNL     1      59.151  -6.713  41.594  0.00  0.00    +0.045 C 
ENDROOT
BRANCH  10   9
ATOM      4  C   UNL     1      59.911 -10.081  36.171  0.00  0.00    +0.077 A 
ATOM      5  C   UNL     1      59.243  -9.431  35.080  0.00  0.00    +0.048 A 
ATOM      6  C   UNL     1      58.794  -8.108  35.292  0.00  0.00    +0.116 A 
ATOM      7  N   UNL     1      59.001  -7.492  36.506  0.00  0.00    -0.223 NA
ATOM      8  C   UNL     1      59.647  -8.149  37.538  0.00  0.00    +0.220 A 
ATOM      9  N   UNL     1      59.874  -7.545  38.765  0.00  0.00    -0.283 N 
ATOM     36  H   UNL     1      60.348  -8.066  39.503  0.00  0.00    +0.155 HD
ATOM     37  N   UNL     1      60.085  -9.413  37.362  0.00  0.00    -0.214 NA
BRANCH   4   3
ATOM      1  C   UNL     1      61.984 -13.324  36.871  0.00  0.00    +0.020 A 
ATOM      2  C   UNL     1      61.503 -11.966  36.979  0.00  0.00    +0.013 A 
ATOM      3  C   UNL     1      60.447 -11.478  36.101  0.00  0.00    +0.019 A 
ATOM     38  C   UNL     1      59.895 -12.396  35.117  0.00  0.00    +0.120 A 
ATOM     39  N   UNL     1      60.379 -13.698  35.035  0.00  0.00    -0.263 NA
ATOM     40  C   UNL     1      61.396 -14.178  35.873  0.00  0.00    +0.111 A 
ENDBRANCH   4   3
ENDBRANCH  10   9
BRANCH  12  13
ATOM     13  N   UNL     1      58.869  -2.995  37.023  0.00  0.00    -0.281 N 
ATOM     14  C   UNL     1      59.695  -2.864  35.920  0.00  0.00    +0.248 C 
ATOM     30  O   UNL     1      60.778  -3.419  35.797  0.00  0.00    -0.270 OA
ATOM     31  H   UNL     1      58.095  -2.332  37.085  0.00  0.00    +0.155 HD
BRANCH  14  15
ATOM     15  C   UNL     1      59.265  -1.978  34.795  0.00  0.00    +0.037 A 
ATOM     16  C   UNL     1      58.760  -2.537  33.538  0.00  0.00    +0.013 A 
ATOM     17  C   UNL     1      58.367  -1.660  32.464  0.00  0.00    +0.005 A 
ATOM     18  C   UNL     1      58.476  -0.214  32.643  0.00  0.00    -0.033 A 
ATOM     28  C   UNL     1      58.975   0.313  33.902  0.00  0.00    +0.005 A 
ATOM     29  C   UNL     1      59.362  -0.543  34.957  0.00  0.00    +0.013 A 
BRANCH  18  19
ATOM     19  C   UNL     1      58.100   0.795  31.542  0.00  0.00    +0.119 C 
BRANCH  19  20
ATOM     20  N   UNL     1      56.645   1.033  31.301  0.00  0.00    -0.302 NA
ATOM     21  C   UNL     1      56.400   1.851  30.030  0.00  0.00    +0.066 C 
ATOM     22  C   UNL     1      54.872   2.071  29.781  0.00  0.00    -0.064 C 
ATOM     23  N   UNL     1      54.254   2.763  30.997  0.00  0.00    +0.379 N 
ATOM     24  C   UNL     1      52.830   3.023  30.743  0.00  0.00    -0.096 C 
ATOM     25  H   UNL     1      54.762   3.748  31.120  0.00  0.00    -0.082 HD
ATOM     26  C   UNL     1      54.496   1.957  32.266  0.00  0.00    -0.064 C 
ATOM     27  C   UNL     1      56.016   1.719  32.489  0.00  0.00    +0.066 C 
ENDBRANCH  19  20
ENDBRANCH  18  19
ENDBRANCH  14  15
ENDBRANCH  12  13
TORSDOF 6
ENDMDL
