MODEL 1
REMARK VINA RESULT:      -8.2      0.000      0.000
REMARK  Name = C:\Users\Docking\Desktop\test protocol\1iep_ligandH.pdb
REMARK  8 active torsions:
REMARK  status: ('A' for Active; 'I' for Inactive)
REMARK    1  A    between atoms: _5  and  _11
REMARK    2  A    between atoms: _19  and  _21
REMARK    3  A    between atoms: _22  and  _66
REMARK    4  A    between atoms: _27  and  _30
REMARK    5  A    between atoms: _32  and  _33
REMARK    6  A    between atoms: _38  and  _43
REMARK    7  A    between atoms: _43  and  _46
REMARK    8  A    between atoms: _53  and  _55
REMARK                            x       y       z     vdW  Elec       q    Type
REMARK                         _______ _______ _______ _____ _____    ______ ____
ROOT
ATOM     10  C   UNL     1      20.393  26.134   3.698  0.00  0.00    +0.038 A 
ATOM     11  C   UNL     1      19.065  26.076   4.192  0.00  0.00    +0.047 A 
ATOM     12  C   UNL     1      18.299  24.839   4.150  0.00  0.00    +0.035 A 
ATOM     32  C   UNL     1      18.919  23.680   3.600  0.00  0.00    +0.024 A 
ATOM     33  C   UNL     1      20.268  23.721   3.092  0.00  0.00    +0.007 A 
ATOM     34  C   UNL     1      21.027  24.939   3.129  0.00  0.00    -0.029 A 
ATOM     35  C   UNL     1      22.467  24.927   2.565  0.00  0.00    +0.045 C 
ENDROOT
BRANCH  10   9
ATOM      4  C   UNL     1      21.849  30.283   1.774  0.00  0.00    +0.077 A 
ATOM      5  C   UNL     1      21.206  29.997   0.524  0.00  0.00    +0.048 A 
ATOM      6  C   UNL     1      20.518  28.768   0.415  0.00  0.00    +0.116 A 
ATOM      7  N   UNL     1      20.480  27.898   1.483  0.00  0.00    -0.223 NA
ATOM      8  C   UNL     1      21.112  28.204   2.674  0.00  0.00    +0.220 A 
ATOM      9  N   UNL     1      21.081  27.347   3.763  0.00  0.00    -0.283 N 
ATOM     36  H   UNL     1      21.566  27.606   4.622  0.00  0.00    +0.155 HD
ATOM     37  N   UNL     1      21.778  29.371   2.803  0.00  0.00    -0.214 NA
BRANCH   4   3
ATOM      1  C   UNL     1      23.488  33.339   3.585  0.00  0.00    +0.020 A 
ATOM      2  C   UNL     1      22.738  32.122   3.377  0.00  0.00    +0.013 A 
ATOM      3  C   UNL     1      22.613  31.542   2.046  0.00  0.00    +0.019 A 
ATOM     38  C   UNL     1      23.266  32.223   0.938  0.00  0.00    +0.120 A 
ATOM     39  N   UNL     1      23.980  33.394   1.168  0.00  0.00    -0.263 NA
ATOM     40  C   UNL     1      24.105  33.963   2.445  0.00  0.00    +0.111 A 
ENDBRANCH   4   3
ENDBRANCH  10   9
BRANCH  12  13
ATOM     13  N   UNL     1      16.944  24.722   4.629  0.00  0.00    -0.281 N 
ATOM     14  C   UNL     1      16.002  23.763   4.293  0.00  0.00    +0.248 C 
ATOM     30  O   UNL     1      16.115  22.980   3.362  0.00  0.00    -0.270 OA
ATOM     31  H   UNL     1      16.643  25.432   5.296  0.00  0.00    +0.155 HD
BRANCH  14  15
ATOM     15  C   UNL     1      14.748  23.671   5.100  0.00  0.00    +0.037 A 
ATOM     16  C   UNL     1      14.758  23.130   6.462  0.00  0.00    +0.013 A 
ATOM     17  C   UNL     1      13.531  23.036   7.212  0.00  0.00    +0.005 A 
ATOM     18  C   UNL     1      12.282  23.485   6.601  0.00  0.00    -0.033 A 
ATOM     28  C   UNL     1      12.301  24.022   5.250  0.00  0.00    +0.005 A 
ATOM     29  C   UNL     1      13.502  24.115   4.511  0.00  0.00    +0.013 A 
BRANCH  18  19
ATOM     19  C   UNL     1      10.922  23.402   7.319  0.00  0.00    +0.119 C 
BRANCH  19  20
ATOM     20  N   UNL     1      10.238  24.690   7.639  0.00  0.00    -0.302 NA
ATOM     21  C   UNL     1      11.142  25.641   8.427  0.00  0.00    +0.066 C 
ATOM     22  C   UNL     1      10.418  26.993   8.733  0.00  0.00    -0.064 C 
ATOM     23  N   UNL     1       9.126  26.713   9.502  0.00  0.00    +0.379 N 
ATOM     24  C   UNL     1       8.472  27.985   9.841  0.00  0.00    -0.096 C 
ATOM     25  H   UNL     1       9.403  26.209  10.457  0.00  0.00    -0.082 HD
ATOM     26  C   UNL     1       8.221  25.766   8.726  0.00  0.00    -0.064 C 
ATOM     27  C   UNL     1       8.960  24.438   8.401  0.00  0.00    +0.066 C 
ENDBRANCH  19  20
ENDBRANCH  18  19
ENDBRANCH  14  15
ENDBRANCH  12  13
TORSDOF 6
ENDMDL
MODEL 2
REMARK VINA RESULT:      -8.2      1.346      1.552
REMARK  Name = C:\Users\Docking\Desktop\test protocol\1iep_ligandH.pdb
REMARK  8 active torsions:
REMARK  status: ('A' for Active; 'I' for Inactive)
REMARK    1  A    between atoms: _5  and  _11
REMARK    2  A    between atoms: _19  and  _21
REMARK    3  A    between atoms: _22  and  _66
REMARK    4  A    between atoms: _27  and  _30
REMARK    5  A    between atoms: _32  and  _33
REMARK    6  A    between atoms: _38  and  _43
REMARK    7  A    between atoms: _43  and  _46
REMARK    8  A    between atoms: _53  and  _55
REMARK                            x       y       z     vdW  Elec       q    Type
REMARK                         _______ _______ _______ _____ _____    ______ ____
ROOT
ATOM     10  C   UNL     1      20.276  26.082   3.772  0.00  0.00    +0.038 A 
ATOM     11  C   UNL     1      18.908  26.065   4.145  0.00  0.00    +0.047 A 
ATOM     12  C   UNL     1      18.133  24.834   4.110  0.00  0.00    +0.035 A 
ATOM     32  C   UNL     1      18.785  23.638   3.693  0.00  0.00    +0.024 A 
ATOM     33  C   UNL     1      20.175  23.637   3.309  0.00  0.00    +0.007 A 
ATOM     34  C   UNL     1      20.944  24.849   3.339  0.00  0.00    -0.029 A 
ATOM     35  C   UNL     1      22.428  24.790   2.911  0.00  0.00    +0.045 C 
ENDROOT
BRANCH  10   9
ATOM      4  C   UNL     1      21.787  30.185   1.792  0.00  0.00    +0.077 A 
ATOM      5  C   UNL     1      21.161  29.880   0.539  0.00  0.00    +0.048 A 
ATOM      6  C   UNL     1      20.465  28.654   0.442  0.00  0.00    +0.116 A 
ATOM      7  N   UNL     1      20.407  27.804   1.526  0.00  0.00    -0.223 NA
ATOM      8  C   UNL     1      21.024  28.128   2.720  0.00  0.00    +0.220 A 
ATOM      9  N   UNL     1      20.972  27.292   3.825  0.00  0.00    -0.283 N 
ATOM     36  H   UNL     1      21.446  27.564   4.686  0.00  0.00    +0.155 HD
ATOM     37  N   UNL     1      21.696  29.292   2.837  0.00  0.00    -0.214 NA
BRANCH   4   3
ATOM      1  C   UNL     1      23.412  33.269   3.567  0.00  0.00    +0.020 A 
ATOM      2  C   UNL     1      22.657  32.053   3.371  0.00  0.00    +0.013 A 
ATOM      3  C   UNL     1      22.556  31.443   2.051  0.00  0.00    +0.019 A 
ATOM     38  C   UNL     1      23.238  32.093   0.942  0.00  0.00    +0.120 A 
ATOM     39  N   UNL     1      23.957  33.264   1.161  0.00  0.00    -0.263 NA
ATOM     40  C   UNL     1      24.059  33.861   2.426  0.00  0.00    +0.111 A 
ENDBRANCH   4   3
ENDBRANCH  10   9
BRANCH  12  13
ATOM     13  N   UNL     1      16.739  24.758   4.470  0.00  0.00    -0.281 N 
ATOM     14  C   UNL     1      15.658  24.511   3.639  0.00  0.00    +0.248 C 
ATOM     30  O   UNL     1      15.706  24.531   2.418  0.00  0.00    -0.270 OA
ATOM     31  H   UNL     1      16.523  24.903   5.456  0.00  0.00    +0.155 HD
BRANCH  14  15
ATOM     15  C   UNL     1      14.328  24.214   4.254  0.00  0.00    +0.037 A 
ATOM     16  C   UNL     1      14.071  22.940   4.930  0.00  0.00    +0.013 A 
ATOM     17  C   UNL     1      12.775  22.672   5.500  0.00  0.00    +0.005 A 
ATOM     18  C   UNL     1      11.725  23.683   5.397  0.00  0.00    -0.033 A 
ATOM     28  C   UNL     1      12.008  24.940   4.726  0.00  0.00    +0.005 A 
ATOM     29  C   UNL     1      13.278  25.206   4.165  0.00  0.00    +0.013 A 
BRANCH  18  19
ATOM     19  C   UNL     1      10.305  23.474   5.957  0.00  0.00    +0.119 C 
BRANCH  19  20
ATOM     20  N   UNL     1      10.117  23.656   7.427  0.00  0.00    -0.302 NA
ATOM     21  C   UNL     1      11.054  24.724   7.999  0.00  0.00    +0.066 C 
ATOM     22  C   UNL     1      10.827  24.917   9.534  0.00  0.00    -0.064 C 
ATOM     23  N   UNL     1      11.030  23.580  10.249  0.00  0.00    +0.379 N 
ATOM     24  C   UNL     1      10.875  23.770  11.698  0.00  0.00    -0.096 C 
ATOM     25  H   UNL     1      12.079  23.252  10.060  0.00  0.00    -0.082 HD
ATOM     26  C   UNL     1      10.105  22.511   9.685  0.00  0.00    -0.064 C 
ATOM     27  C   UNL     1      10.317  22.348   8.154  0.00  0.00    +0.066 C 
ENDBRANCH  19  20
ENDBRANCH  18  19
ENDBRANCH  14  15
ENDBRANCH  12  13
TORSDOF 6
ENDMDL
MODEL 3
REMARK VINA RESULT:      -7.7      2.553     12.278
REMARK  Name = C:\Users\Docking\Desktop\test protocol\1iep_ligandH.pdb
REMARK  8 active torsions:
REMARK  status: ('A' for Active; 'I' for Inactive)
REMARK    1  A    between atoms: _5  and  _11
REMARK    2  A    between atoms: _19  and  _21
REMARK    3  A    between atoms: _22  and  _66
REMARK    4  A    between atoms: _27  and  _30
REMARK    5  A    between atoms: _32  and  _33
REMARK    6  A    between atoms: _38  and  _43
REMARK    7  A    between atoms: _43  and  _46
REMARK    8  A    between atoms: _53  and  _55
REMARK                            x       y       z     vdW  Elec       q    Type
REMARK                         _______ _______ _______ _____ _____    ______ ____
ROOT
ATOM     10  C   UNL     1      12.881  23.042   7.892  0.00  0.00    +0.038 A 
ATOM     11  C   UNL     1      14.027  23.522   7.208  0.00  0.00    +0.047 A 
ATOM     12  C   UNL     1      15.368  23.166   7.645  0.00  0.00    +0.035 A 
ATOM     32  C   UNL     1      15.504  22.316   8.782  0.00  0.00    +0.024 A 
ATOM     33  C   UNL     1      14.350  21.820   9.489  0.00  0.00    +0.007 A 
ATOM     34  C   UNL     1      13.025  22.171   9.064  0.00  0.00    -0.029 A 
ATOM     35  C   UNL     1      11.824  21.615   9.864  0.00  0.00    +0.045 C 
ENDROOT
BRANCH  10   9
ATOM      4  C   UNL     1       9.266  26.178   7.520  0.00  0.00    +0.077 A 
ATOM      5  C   UNL     1       9.940  27.143   8.340  0.00  0.00    +0.048 A 
ATOM      6  C   UNL     1      11.212  26.790   8.844  0.00  0.00    +0.116 A 
ATOM      7  N   UNL     1      11.760  25.562   8.543  0.00  0.00    -0.223 NA
ATOM      8  C   UNL     1      11.082  24.654   7.750  0.00  0.00    +0.220 A 
ATOM      9  N   UNL     1      11.617  23.416   7.428  0.00  0.00    -0.283 N 
ATOM     36  H   UNL     1      11.082  22.771   6.847  0.00  0.00    +0.155 HD
ATOM     37  N   UNL     1       9.865  24.966   7.258  0.00  0.00    -0.214 NA
BRANCH   4   3
ATOM      1  C   UNL     1       5.448  26.899   7.066  0.00  0.00    +0.020 A 
ATOM      2  C   UNL     1       6.727  26.687   7.704  0.00  0.00    +0.013 A 
ATOM      3  C   UNL     1       7.917  26.404   6.911  0.00  0.00    +0.019 A 
ATOM     38  C   UNL     1       7.777  26.342   5.464  0.00  0.00    +0.120 A 
ATOM     39  N   UNL     1       6.532  26.549   4.878  0.00  0.00    -0.263 NA
ATOM     40  C   UNL     1       5.380  26.820   5.631  0.00  0.00    +0.111 A 
ENDBRANCH   4   3
ENDBRANCH  10   9
BRANCH  12  13
ATOM     13  N   UNL     1      16.569  23.629   6.996  0.00  0.00    -0.281 N 
ATOM     14  C   UNL     1      17.394  22.928   6.132  0.00  0.00    +0.248 C 
ATOM     30  O   UNL     1      17.341  21.720   5.952  0.00  0.00    -0.270 OA
ATOM     31  H   UNL     1      16.845  24.590   7.198  0.00  0.00    +0.155 HD
BRANCH  14  15
ATOM     15  C   UNL     1      18.439  23.674   5.367  0.00  0.00    +0.037 A 
ATOM     16  C   UNL     1      19.835  23.230   5.356  0.00  0.00    +0.013 A 
ATOM     17  C   UNL     1      20.827  23.978   4.624  0.00  0.00    +0.005 A 
ATOM     18  C   UNL     1      20.424  25.178   3.895  0.00  0.00    -0.033 A 
ATOM     28  C   UNL     1      19.031  25.593   3.918  0.00  0.00    +0.005 A 
ATOM     29  C   UNL     1      18.057  24.863   4.635  0.00  0.00    +0.013 A 
BRANCH  18  19
ATOM     19  C   UNL     1      21.418  26.049   3.104  0.00  0.00    +0.119 C 
BRANCH  19  20
ATOM     20  N   UNL     1      20.859  26.917   2.025  0.00  0.00    -0.302 NA
ATOM     21  C   UNL     1      20.968  26.260   0.646  0.00  0.00    +0.066 C 
ATOM     22  C   UNL     1      20.358  27.171  -0.469  0.00  0.00    -0.064 C 
ATOM     23  N   UNL     1      21.064  28.528  -0.457  0.00  0.00    +0.379 N 
ATOM     24  C   UNL     1      20.532  29.367  -1.541  0.00  0.00    -0.096 C 
ATOM     25  H   UNL     1      22.144  28.349  -0.667  0.00  0.00    -0.082 HD
ATOM     26  C   UNL     1      20.962  29.187   0.911  0.00  0.00    -0.064 C 
ATOM     27  C   UNL     1      21.545  28.260   2.015  0.00  0.00    +0.066 C 
ENDBRANCH  19  20
ENDBRANCH  18  19
ENDBRANCH  14  15
ENDBRANCH  12  13
TORSDOF 6
ENDMDL
MODEL 4
REMARK VINA RESULT:      -7.7      9.681     14.243
REMARK  Name = C:\Users\Docking\Desktop\test protocol\1iep_ligandH.pdb
REMARK  8 active torsions:
REMARK  status: ('A' for Active; 'I' for Inactive)
REMARK    1  A    between atoms: _5  and  _11
REMARK    2  A    between atoms: _19  and  _21
REMARK    3  A    between atoms: _22  and  _66
REMARK    4  A    between atoms: _27  and  _30
REMARK    5  A    between atoms: _32  and  _33
REMARK    6  A    between atoms: _38  and  _43
REMARK    7  A    between atoms: _43  and  _46
REMARK    8  A    between atoms: _53  and  _55
REMARK                            x       y       z     vdW  Elec       q    Type
REMARK                         _______ _______ _______ _____ _____    ______ ____
ROOT
ATOM     10  C   UNL     1       9.387  25.379   8.127  0.00  0.00    +0.038 A 
ATOM     11  C   UNL     1       7.997  25.662   8.100  0.00  0.00    +0.047 A 
ATOM     12  C   UNL     1       7.510  27.031   8.025  0.00  0.00    +0.035 A 
ATOM     32  C   UNL     1       8.466  28.087   7.976  0.00  0.00    +0.024 A 
ATOM     33  C   UNL     1       9.882  27.817   8.004  0.00  0.00    +0.007 A 
ATOM     34  C   UNL     1      10.369  26.470   8.080  0.00  0.00    -0.029 A 
ATOM     35  C   UNL     1      11.898  26.240   8.113  0.00  0.00    +0.045 C 
ENDROOT
BRANCH  10   9
ATOM      4  C   UNL     1      10.954  21.561  10.578  0.00  0.00    +0.077 A 
ATOM      5  C   UNL     1      10.978  22.290  11.813  0.00  0.00    +0.048 A 
ATOM      6  C   UNL     1      10.587  23.647  11.774  0.00  0.00    +0.116 A 
ATOM      7  N   UNL     1      10.201  24.222  10.582  0.00  0.00    -0.223 NA
ATOM      8  C   UNL     1      10.191  23.491   9.408  0.00  0.00    +0.220 A 
ATOM      9  N   UNL     1       9.800  24.047   8.200  0.00  0.00    -0.283 N 
ATOM     36  H   UNL     1       9.813  23.476   7.355  0.00  0.00    +0.155 HD
ATOM     37  N   UNL     1      10.562  22.194   9.419  0.00  0.00    -0.214 NA
BRANCH   4   3
ATOM      1  C   UNL     1      12.916  18.273   9.777  0.00  0.00    +0.020 A 
ATOM      2  C   UNL     1      12.595  19.679   9.868  0.00  0.00    +0.013 A 
ATOM      3  C   UNL     1      11.336  20.119  10.458  0.00  0.00    +0.019 A 
ATOM     38  C   UNL     1      10.418  19.103  10.950  0.00  0.00    +0.120 A 
ATOM     39  N   UNL     1      10.754  17.756  10.847  0.00  0.00    -0.263 NA
ATOM     40  C   UNL     1      11.961  17.321  10.280  0.00  0.00    +0.111 A 
ENDBRANCH   4   3
ENDBRANCH  10   9
BRANCH  12  13
ATOM     13  N   UNL     1       6.111  27.380   8.003  0.00  0.00    -0.281 N 
ATOM     14  C   UNL     1       5.155  27.008   7.072  0.00  0.00    +0.248 C 
ATOM     30  O   UNL     1       5.405  26.490   5.993  0.00  0.00    -0.270 OA
ATOM     31  H   UNL     1       5.786  27.973   8.766  0.00  0.00    +0.155 HD
BRANCH  14  15
ATOM     15  C   UNL     1       3.714  27.260   7.376  0.00  0.00    +0.037 A 
ATOM     16  C   UNL     1       2.688  26.257   7.081  0.00  0.00    +0.013 A 
ATOM     17  C   UNL     1       1.302  26.532   7.369  0.00  0.00    +0.005 A 
ATOM     18  C   UNL     1       0.935  27.818   7.958  0.00  0.00    -0.033 A 
ATOM     28  C   UNL     1       1.974  28.794   8.245  0.00  0.00    +0.005 A 
ATOM     29  C   UNL     1       3.333  28.527   7.963  0.00  0.00    +0.013 A 
BRANCH  18  19
ATOM     19  C   UNL     1      -0.520  28.206   8.278  0.00  0.00    +0.119 C 
BRANCH  19  20
ATOM     20  N   UNL     1      -0.796  28.765   9.636  0.00  0.00    -0.302 NA
ATOM     21  C   UNL     1      -1.442  27.731  10.562  0.00  0.00    +0.066 C 
ATOM     22  C   UNL     1      -1.703  28.325  11.984  0.00  0.00    -0.064 C 
ATOM     23  N   UNL     1      -2.585  29.568  11.861  0.00  0.00    +0.379 N 
ATOM     24  C   UNL     1      -2.880  30.096  13.201  0.00  0.00    -0.096 C 
ATOM     25  H   UNL     1      -3.551  29.253  11.401  0.00  0.00    -0.082 HD
ATOM     26  C   UNL     1      -1.951  30.600  10.939  0.00  0.00    -0.064 C 
ATOM     27  C   UNL     1      -1.669  29.991   9.537  0.00  0.00    +0.066 C 
ENDBRANCH  19  20
ENDBRANCH  18  19
ENDBRANCH  14  15
ENDBRANCH  12  13
TORSDOF 6
ENDMDL
MODEL 5
REMARK VINA RESULT:      -7.7      6.196     10.740
REMARK  Name = C:\Users\Docking\Desktop\test protocol\1iep_ligandH.pdb
REMARK  8 active torsions:
REMARK  status: ('A' for Active; 'I' for Inactive)
REMARK    1  A    between atoms: _5  and  _11
REMARK    2  A    between atoms: _19  and  _21
REMARK    3  A    between atoms: _22  and  _66
REMARK    4  A    between atoms: _27  and  _30
REMARK    5  A    between atoms: _32  and  _33
REMARK    6  A    between atoms: _38  and  _43
REMARK    7  A    between atoms: _43  and  _46
REMARK    8  A    between atoms: _53  and  _55
REMARK                            x       y       z     vdW  Elec       q    Type
REMARK                         _______ _______ _______ _____ _____    ______ ____
ROOT
ATOM     10  C   UNL     1      25.224  35.478   0.056  0.00  0.00    +0.038 A 
ATOM     11  C   UNL     1      24.426  34.395   0.503  0.00  0.00    +0.047 A 
ATOM     12  C   UNL     1      24.415  33.125  -0.206  0.00  0.00    +0.035 A 
ATOM     32  C   UNL     1      25.232  32.993  -1.367  0.00  0.00    +0.024 A 
ATOM     33  C   UNL     1      26.049  34.084  -1.836  0.00  0.00    +0.007 A 
ATOM     34  C   UNL     1      26.062  35.340  -1.142  0.00  0.00    -0.029 A 
ATOM     35  C   UNL     1      26.952  36.478  -1.694  0.00  0.00    +0.045 C 
ENDROOT
BRANCH  10   9
ATOM      4  C   UNL     1      24.842  37.943   4.157  0.00  0.00    +0.077 A 
ATOM      5  C   UNL     1      24.654  36.748   4.927  0.00  0.00    +0.048 A 
ATOM      6  C   UNL     1      24.656  35.519   4.229  0.00  0.00    +0.116 A 
ATOM      7  N   UNL     1      24.833  35.500   2.862  0.00  0.00    -0.223 NA
ATOM      8  C   UNL     1      25.009  36.671   2.149  0.00  0.00    +0.220 A 
ATOM      9  N   UNL     1      25.197  36.675   0.776  0.00  0.00    -0.283 N 
ATOM     36  H   UNL     1      25.316  37.561   0.285  0.00  0.00    +0.155 HD
ATOM     37  N   UNL     1      25.010  37.858   2.793  0.00  0.00    -0.214 NA
BRANCH   4   3
ATOM      1  C   UNL     1      24.476  40.946   6.637  0.00  0.00    +0.020 A 
ATOM      2  C   UNL     1      24.430  39.601   6.111  0.00  0.00    +0.013 A 
ATOM      3  C   UNL     1      24.868  39.317   4.751  0.00  0.00    +0.019 A 
ATOM     38  C   UNL     1      25.352  40.426   3.942  0.00  0.00    +0.120 A 
ATOM     39  N   UNL     1      25.383  41.711   4.474  0.00  0.00    -0.263 NA
ATOM     40  C   UNL     1      24.963  41.996   5.782  0.00  0.00    +0.111 A 
ENDBRANCH   4   3
ENDBRANCH  10   9
BRANCH  12  13
ATOM     13  N   UNL     1      23.619  31.992   0.196  0.00  0.00    -0.281 N 
ATOM     14  C   UNL     1      22.822  31.868   1.323  0.00  0.00    +0.248 C 
ATOM     30  O   UNL     1      22.841  32.639   2.271  0.00  0.00    -0.270 OA
ATOM     31  H   UNL     1      23.646  31.184  -0.425  0.00  0.00    +0.155 HD
BRANCH  14  15
ATOM     15  C   UNL     1      21.878  30.714   1.416  0.00  0.00    +0.037 A 
ATOM     16  C   UNL     1      21.227  30.365   2.681  0.00  0.00    +0.013 A 
ATOM     17  C   UNL     1      20.333  29.235   2.747  0.00  0.00    +0.005 A 
ATOM     18  C   UNL     1      20.085  28.447   1.542  0.00  0.00    -0.033 A 
ATOM     28  C   UNL     1      20.740  28.819   0.299  0.00  0.00    +0.005 A 
ATOM     29  C   UNL     1      21.617  29.924   0.231  0.00  0.00    +0.013 A 
BRANCH  18  19
ATOM     19  C   UNL     1      19.163  27.213   1.526  0.00  0.00    +0.119 C 
BRANCH  19  20
ATOM     20  N   UNL     1      19.568  26.046   2.364  0.00  0.00    -0.302 NA
ATOM     21  C   UNL     1      18.995  26.131   3.782  0.00  0.00    +0.066 C 
ATOM     22  C   UNL     1      19.410  24.890   4.638  0.00  0.00    -0.064 C 
ATOM     23  N   UNL     1      20.936  24.787   4.676  0.00  0.00    +0.379 N 
ATOM     24  C   UNL     1      21.330  23.656   5.528  0.00  0.00    -0.096 C 
ATOM     25  H   UNL     1      21.326  25.718   5.148  0.00  0.00    -0.082 HD
ATOM     26  C   UNL     1      21.514  24.705   3.270  0.00  0.00    -0.064 C 
ATOM     27  C   UNL     1      21.071  25.928   2.418  0.00  0.00    +0.066 C 
ENDBRANCH  19  20
ENDBRANCH  18  19
ENDBRANCH  14  15
ENDBRANCH  12  13
TORSDOF 6
ENDMDL
