MODEL 1
REMARK VINA RESULT:      -8.2      0.000      0.000
REMARK  Name = C:\Users\Docking\Desktop\test protocol\1iep_ligandH.pdb
REMARK  8 active torsions:
REMARK  status: ('A' for Active; 'I' for Inactive)
REMARK    1  A    between atoms: _5  and  _11
REMARK    2  A    between atoms: _19  and  _21
REMARK    3  A    between atoms: _22  and  _66
REMARK    4  A    between atoms: _27  and  _30
REMARK    5  A    between atoms: _32  and  _33
REMARK    6  A    between atoms: _38  and  _43
REMARK    7  A    between atoms: _43  and  _46
REMARK    8  A    between atoms: _53  and  _55
REMARK                            x       y       z     vdW  Elec       q    Type
REMARK                         _______ _______ _______ _____ _____    ______ ____
ROOT
ATOM     10  C   UNL     1       9.972  31.842  32.652  0.00  0.00    +0.038 A 
ATOM     11  C   UNL     1       9.272  30.856  33.394  0.00  0.00    +0.047 A 
ATOM     12  C   UNL     1       8.258  31.226  34.368  0.00  0.00    +0.035 A 
ATOM     32  C   UNL     1       7.979  32.611  34.560  0.00  0.00    +0.024 A 
ATOM     33  C   UNL     1       8.681  33.626  33.815  0.00  0.00    +0.007 A 
ATOM     34  C   UNL     1       9.685  33.267  32.854  0.00  0.00    -0.029 A 
ATOM     35  C   UNL     1      10.410  34.398  32.089  0.00  0.00    +0.045 C 
ENDROOT
BRANCH  10   9
ATOM      4  C   UNL     1      14.336  30.176  31.548  0.00  0.00    +0.077 A 
ATOM      5  C   UNL     1      14.739  30.150  32.924  0.00  0.00    +0.048 A 
ATOM      6  C   UNL     1      13.796  30.580  33.885  0.00  0.00    +0.116 A 
ATOM      7  N   UNL     1      12.546  31.002  33.487  0.00  0.00    -0.223 NA
ATOM      8  C   UNL     1      12.190  31.017  32.151  0.00  0.00    +0.220 A 
ATOM      9  N   UNL     1      10.936  31.430  31.729  0.00  0.00    -0.283 N 
ATOM     36  H   UNL     1      10.714  31.432  30.733  0.00  0.00    +0.155 HD
ATOM     37  N   UNL     1      13.073  30.612  31.214  0.00  0.00    -0.214 NA
BRANCH   4   3
ATOM      1  C   UNL     1      16.457  28.003  29.083  0.00  0.00    +0.020 A 
ATOM      2  C   UNL     1      15.602  28.362  30.191  0.00  0.00    +0.013 A 
ATOM      3  C   UNL     1      15.219  29.750  30.417  0.00  0.00    +0.019 A 
ATOM     38  C   UNL     1      15.721  30.758  29.495  0.00  0.00    +0.120 A 
ATOM     39  N   UNL     1      16.544  30.383  28.438  0.00  0.00    -0.263 NA
ATOM     40  C   UNL     1      16.921  29.050  28.212  0.00  0.00    +0.111 A 
ENDBRANCH   4   3
ENDBRANCH  10   9
BRANCH  12  13
ATOM     13  N   UNL     1       7.521  30.270  35.157  0.00  0.00    -0.281 N 
ATOM     14  C   UNL     1       7.629  30.023  36.516  0.00  0.00    +0.248 C 
ATOM     30  O   UNL     1       8.532  30.442  37.225  0.00  0.00    -0.270 OA
ATOM     31  H   UNL     1       6.837  29.706  34.652  0.00  0.00    +0.155 HD
BRANCH  14  15
ATOM     15  C   UNL     1       6.591  29.177  37.180  0.00  0.00    +0.037 A 
ATOM     16  C   UNL     1       5.287  28.943  36.555  0.00  0.00    +0.013 A 
ATOM     17  C   UNL     1       4.298  28.137  37.226  0.00  0.00    +0.005 A 
ATOM     18  C   UNL     1       4.611  27.558  38.530  0.00  0.00    -0.033 A 
ATOM     28  C   UNL     1       5.914  27.803  39.125  0.00  0.00    +0.005 A 
ATOM     29  C   UNL     1       6.886  28.593  38.471  0.00  0.00    +0.013 A 
BRANCH  18  19
ATOM     19  C   UNL     1       3.608  26.702  39.327  0.00  0.00    +0.119 C 
BRANCH  19  20
ATOM     20  N   UNL     1       3.789  25.221  39.286  0.00  0.00    -0.302 NA
ATOM     21  C   UNL     1       2.741  24.539  38.402  0.00  0.00    +0.066 C 
ATOM     22  C   UNL     1       2.958  22.991  38.352  0.00  0.00    -0.064 C 
ATOM     23  N   UNL     1       2.919  22.427  39.773  0.00  0.00    +0.379 N 
ATOM     24  C   UNL     1       3.065  20.965  39.724  0.00  0.00    -0.096 C 
ATOM     25  H   UNL     1       1.913  22.652  40.198  0.00  0.00    -0.082 HD
ATOM     26  C   UNL     1       3.956  23.101  40.659  0.00  0.00    -0.064 C 
ATOM     27  C   UNL     1       3.749  24.642  40.679  0.00  0.00    +0.066 C 
ENDBRANCH  19  20
ENDBRANCH  18  19
ENDBRANCH  14  15
ENDBRANCH  12  13
TORSDOF 6
ENDMDL
MODEL 2
REMARK VINA RESULT:      -8.2      2.364     12.716
REMARK  Name = C:\Users\Docking\Desktop\test protocol\1iep_ligandH.pdb
REMARK  8 active torsions:
REMARK  status: ('A' for Active; 'I' for Inactive)
REMARK    1  A    between atoms: _5  and  _11
REMARK    2  A    between atoms: _19  and  _21
REMARK    3  A    between atoms: _22  and  _66
REMARK    4  A    between atoms: _27  and  _30
REMARK    5  A    between atoms: _32  and  _33
REMARK    6  A    between atoms: _38  and  _43
REMARK    7  A    between atoms: _43  and  _46
REMARK    8  A    between atoms: _53  and  _55
REMARK                            x       y       z     vdW  Elec       q    Type
REMARK                         _______ _______ _______ _____ _____    ______ ____
ROOT
ATOM     10  C   UNL     1       6.976  28.693  38.468  0.00  0.00    +0.038 A 
ATOM     11  C   UNL     1       8.095  28.506  37.617  0.00  0.00    +0.047 A 
ATOM     12  C   UNL     1       9.002  29.602  37.315  0.00  0.00    +0.035 A 
ATOM     32  C   UNL     1       8.741  30.876  37.899  0.00  0.00    +0.024 A 
ATOM     33  C   UNL     1       7.608  31.084  38.766  0.00  0.00    +0.007 A 
ATOM     34  C   UNL     1       6.708  30.007  39.066  0.00  0.00    -0.029 A 
ATOM     35  C   UNL     1       5.506  30.289  39.997  0.00  0.00    +0.045 C 
ENDROOT
BRANCH  10   9
ATOM      4  C   UNL     1       3.311  25.813  37.325  0.00  0.00    +0.077 A 
ATOM      5  C   UNL     1       3.025  26.553  36.130  0.00  0.00    +0.048 A 
ATOM      6  C   UNL     1       3.840  27.672  35.849  0.00  0.00    +0.116 A 
ATOM      7  N   UNL     1       4.863  28.016  36.707  0.00  0.00    -0.223 NA
ATOM      8  C   UNL     1       5.110  27.282  37.852  0.00  0.00    +0.220 A 
ATOM      9  N   UNL     1       6.138  27.606  38.725  0.00  0.00    -0.283 N 
ATOM     36  H   UNL     1       6.283  27.044  39.563  0.00  0.00    +0.155 HD
ATOM     37  N   UNL     1       4.345  26.210  38.143  0.00  0.00    -0.214 NA
BRANCH   4   3
ATOM      1  C   UNL     1       2.374  22.316  38.808  0.00  0.00    +0.020 A 
ATOM      2  C   UNL     1       3.163  23.459  38.411  0.00  0.00    +0.013 A 
ATOM      3  C   UNL     1       2.541  24.603  37.757  0.00  0.00    +0.019 A 
ATOM     38  C   UNL     1       1.106  24.560  37.518  0.00  0.00    +0.120 A 
ATOM     39  N   UNL     1       0.372  23.445  37.911  0.00  0.00    -0.263 NA
ATOM     40  C   UNL     1       0.960  22.337  38.539  0.00  0.00    +0.111 A 
ENDBRANCH   4   3
ENDBRANCH  10   9
BRANCH  12  13
ATOM     13  N   UNL     1      10.150  29.474  36.451  0.00  0.00    -0.281 N 
ATOM     14  C   UNL     1      10.242  29.790  35.105  0.00  0.00    +0.248 C 
ATOM     30  O   UNL     1       9.285  30.032  34.385  0.00  0.00    -0.270 OA
ATOM     31  H   UNL     1      10.996  29.106  36.884  0.00  0.00    +0.155 HD
BRANCH  14  15
ATOM     15  C   UNL     1      11.592  29.828  34.464  0.00  0.00    +0.037 A 
ATOM     16  C   UNL     1      12.716  29.067  35.014  0.00  0.00    +0.013 A 
ATOM     17  C   UNL     1      14.012  29.135  34.385  0.00  0.00    +0.005 A 
ATOM     18  C   UNL     1      14.189  29.968  33.198  0.00  0.00    -0.033 A 
ATOM     28  C   UNL     1      13.055  30.709  32.671  0.00  0.00    +0.005 A 
ATOM     29  C   UNL     1      11.784  30.645  33.285  0.00  0.00    +0.013 A 
BRANCH  18  19
ATOM     19  C   UNL     1      15.541  30.117  32.475  0.00  0.00    +0.119 C 
BRANCH  19  20
ATOM     20  N   UNL     1      15.603  29.687  31.046  0.00  0.00    -0.302 NA
ATOM     21  C   UNL     1      16.253  28.310  30.888  0.00  0.00    +0.066 C 
ATOM     22  C   UNL     1      16.289  27.866  29.389  0.00  0.00    -0.064 C 
ATOM     23  N   UNL     1      17.039  28.916  28.567  0.00  0.00    +0.379 N 
ATOM     24  C   UNL     1      17.125  28.474  27.168  0.00  0.00    -0.096 C 
ATOM     25  H   UNL     1      18.077  28.979  28.967  0.00  0.00    -0.082 HD
ATOM     26  C   UNL     1      16.401  30.289  28.721  0.00  0.00    -0.064 C 
ATOM     27  C   UNL     1      16.343  30.708  30.217  0.00  0.00    +0.066 C 
ENDBRANCH  19  20
ENDBRANCH  18  19
ENDBRANCH  14  15
ENDBRANCH  12  13
TORSDOF 6
ENDMDL
MODEL 3
REMARK VINA RESULT:      -7.7     23.921     30.994
REMARK  Name = C:\Users\Docking\Desktop\test protocol\1iep_ligandH.pdb
REMARK  8 active torsions:
REMARK  status: ('A' for Active; 'I' for Inactive)
REMARK    1  A    between atoms: _5  and  _11
REMARK    2  A    between atoms: _19  and  _21
REMARK    3  A    between atoms: _22  and  _66
REMARK    4  A    between atoms: _27  and  _30
REMARK    5  A    between atoms: _32  and  _33
REMARK    6  A    between atoms: _38  and  _43
REMARK    7  A    between atoms: _43  and  _46
REMARK    8  A    between atoms: _53  and  _55
REMARK                            x       y       z     vdW  Elec       q    Type
REMARK                         _______ _______ _______ _____ _____    ______ ____
ROOT
ATOM     10  C   UNL     1      29.130  32.369  18.505  0.00  0.00    +0.038 A 
ATOM     11  C   UNL     1      28.936  33.190  17.364  0.00  0.00    +0.047 A 
ATOM     12  C   UNL     1      29.225  32.699  16.026  0.00  0.00    +0.035 A 
ATOM     32  C   UNL     1      29.708  31.365  15.885  0.00  0.00    +0.024 A 
ATOM     33  C   UNL     1      29.913  30.518  17.034  0.00  0.00    +0.007 A 
ATOM     34  C   UNL     1      29.632  30.998  18.357  0.00  0.00    -0.029 A 
ATOM     35  C   UNL     1      29.876  30.047  19.552  0.00  0.00    +0.045 C 
ENDROOT
BRANCH  10   9
ATOM      4  C   UNL     1      30.340  34.787  22.471  0.00  0.00    +0.077 A 
ATOM      5  C   UNL     1      31.678  35.004  22.002  0.00  0.00    +0.048 A 
ATOM      6  C   UNL     1      32.017  34.471  20.738  0.00  0.00    +0.116 A 
ATOM      7  N   UNL     1      31.079  33.775  20.006  0.00  0.00    -0.223 NA
ATOM      8  C   UNL     1      29.798  33.582  20.489  0.00  0.00    +0.220 A 
ATOM      9  N   UNL     1      28.837  32.892  19.766  0.00  0.00    -0.283 N 
ATOM     36  H   UNL     1      27.905  32.765  20.160  0.00  0.00    +0.155 HD
ATOM     37  N   UNL     1      29.450  34.080  21.693  0.00  0.00    -0.214 NA
BRANCH   4   3
ATOM      1  C   UNL     1      29.904  35.446  26.302  0.00  0.00    +0.020 A 
ATOM      2  C   UNL     1      30.435  34.931  25.061  0.00  0.00    +0.013 A 
ATOM      3  C   UNL     1      29.830  35.291  23.785  0.00  0.00    +0.019 A 
ATOM     38  C   UNL     1      28.679  36.181  23.800  0.00  0.00    +0.120 A 
ATOM     39  N   UNL     1      28.188  36.660  25.010  0.00  0.00    -0.263 NA
ATOM     40  C   UNL     1      28.761  36.320  26.244  0.00  0.00    +0.111 A 
ENDBRANCH   4   3
ENDBRANCH  10   9
BRANCH  12  13
ATOM     13  N   UNL     1      29.054  33.488  14.832  0.00  0.00    -0.281 N 
ATOM     14  C   UNL     1      29.781  34.598  14.434  0.00  0.00    +0.248 C 
ATOM     30  O   UNL     1      30.555  35.212  15.153  0.00  0.00    -0.270 OA
ATOM     31  H   UNL     1      28.307  33.193  14.203  0.00  0.00    +0.155 HD
BRANCH  14  15
ATOM     15  C   UNL     1      29.614  35.109  13.039  0.00  0.00    +0.037 A 
ATOM     16  C   UNL     1      29.696  36.541  12.739  0.00  0.00    +0.013 A 
ATOM     17  C   UNL     1      29.513  37.008  11.388  0.00  0.00    +0.005 A 
ATOM     18  C   UNL     1      29.249  36.041  10.325  0.00  0.00    -0.033 A 
ATOM     28  C   UNL     1      29.178  34.626  10.650  0.00  0.00    +0.005 A 
ATOM     29  C   UNL     1      29.355  34.164  11.973  0.00  0.00    +0.013 A 
BRANCH  18  19
ATOM     19  C   UNL     1      29.020  36.452   8.858  0.00  0.00    +0.119 C 
BRANCH  19  20
ATOM     20  N   UNL     1      29.768  35.693   7.811  0.00  0.00    -0.302 NA
ATOM     21  C   UNL     1      30.237  36.600   6.670  0.00  0.00    +0.066 C 
ATOM     22  C   UNL     1      31.036  35.794   5.595  0.00  0.00    -0.064 C 
ATOM     23  N   UNL     1      30.164  34.657   5.060  0.00  0.00    +0.379 N 
ATOM     24  C   UNL     1      30.892  33.933   4.008  0.00  0.00    -0.096 C 
ATOM     25  H   UNL     1      29.261  35.115   4.594  0.00  0.00    -0.082 HD
ATOM     26  C   UNL     1      29.691  33.752   6.189  0.00  0.00    -0.064 C 
ATOM     27  C   UNL     1      28.923  34.568   7.267  0.00  0.00    +0.066 C 
ENDBRANCH  19  20
ENDBRANCH  18  19
ENDBRANCH  14  15
ENDBRANCH  12  13
TORSDOF 6
ENDMDL
MODEL 4
REMARK VINA RESULT:      -7.7     26.719     31.770
REMARK  Name = C:\Users\Docking\Desktop\test protocol\1iep_ligandH.pdb
REMARK  8 active torsions:
REMARK  status: ('A' for Active; 'I' for Inactive)
REMARK    1  A    between atoms: _5  and  _11
REMARK    2  A    between atoms: _19  and  _21
REMARK    3  A    between atoms: _22  and  _66
REMARK    4  A    between atoms: _27  and  _30
REMARK    5  A    between atoms: _32  and  _33
REMARK    6  A    between atoms: _38  and  _43
REMARK    7  A    between atoms: _43  and  _46
REMARK    8  A    between atoms: _53  and  _55
REMARK                            x       y       z     vdW  Elec       q    Type
REMARK                         _______ _______ _______ _____ _____    ______ ____
ROOT
ATOM     10  C   UNL     1      32.768  17.514  15.761  0.00  0.00    +0.038 A 
ATOM     11  C   UNL     1      32.248  18.833  15.728  0.00  0.00    +0.047 A 
ATOM     12  C   UNL     1      33.127  19.987  15.618  0.00  0.00    +0.035 A 
ATOM     32  C   UNL     1      34.532  19.761  15.540  0.00  0.00    +0.024 A 
ATOM     33  C   UNL     1      35.078  18.427  15.573  0.00  0.00    +0.007 A 
ATOM     34  C   UNL     1      34.216  17.285  15.684  0.00  0.00    -0.029 A 
ATOM     35  C   UNL     1      34.858  15.879  15.722  0.00  0.00    +0.045 C 
ENDROOT
BRANCH  10   9
ATOM      4  C   UNL     1      30.461  14.168  18.313  0.00  0.00    +0.077 A 
ATOM      5  C   UNL     1      31.102  14.570  19.531  0.00  0.00    +0.048 A 
ATOM      6  C   UNL     1      32.025  15.637  19.457  0.00  0.00    +0.116 A 
ATOM      7  N   UNL     1      32.279  16.250  18.249  0.00  0.00    -0.223 NA
ATOM      8  C   UNL     1      31.644  15.836  17.092  0.00  0.00    +0.220 A 
ATOM      9  N   UNL     1      31.879  16.443  15.868  0.00  0.00    -0.283 N 
ATOM     36  H   UNL     1      31.396  16.104  15.036  0.00  0.00    +0.155 HD
ATOM     37  N   UNL     1      30.760  14.818  17.136  0.00  0.00    -0.214 NA
BRANCH   4   3
ATOM      1  C   UNL     1      27.096  12.182  18.131  0.00  0.00    +0.020 A 
ATOM      2  C   UNL     1      28.020  13.289  18.213  0.00  0.00    +0.013 A 
ATOM      3  C   UNL     1      29.459  13.058  18.229  0.00  0.00    +0.019 A 
ATOM     38  C   UNL     1      29.934  11.684  18.160  0.00  0.00    +0.120 A 
ATOM     39  N   UNL     1      29.020  10.638  18.083  0.00  0.00    -0.263 NA
ATOM     40  C   UNL     1      27.633  10.848  18.068  0.00  0.00    +0.111 A 
ENDBRANCH   4   3
ENDBRANCH  10   9
BRANCH  12  13
ATOM     13  N   UNL     1      32.656  21.350  15.588  0.00  0.00    -0.281 N 
ATOM     14  C   UNL     1      32.492  22.217  16.655  0.00  0.00    +0.248 C 
ATOM     30  O   UNL     1      32.523  21.882  17.830  0.00  0.00    -0.270 OA
ATOM     31  H   UNL     1      32.414  21.719  14.668  0.00  0.00    +0.155 HD
BRANCH  14  15
ATOM     15  C   UNL     1      32.243  23.665  16.377  0.00  0.00    +0.037 A 
ATOM     16  C   UNL     1      33.227  24.688  16.736  0.00  0.00    +0.013 A 
ATOM     17  C   UNL     1      32.955  26.079  16.472  0.00  0.00    +0.005 A 
ATOM     18  C   UNL     1      31.691  26.454  15.843  0.00  0.00    -0.033 A 
ATOM     28  C   UNL     1      30.734  25.418  15.492  0.00  0.00    +0.005 A 
ATOM     29  C   UNL     1      30.997  24.054  15.750  0.00  0.00    +0.013 A 
BRANCH  18  19
ATOM     19  C   UNL     1      31.307  27.915  15.544  0.00  0.00    +0.119 C 
BRANCH  19  20
ATOM     20  N   UNL     1      30.547  28.652  16.597  0.00  0.00    -0.302 NA
ATOM     21  C   UNL     1      29.881  29.916  16.047  0.00  0.00    +0.066 C 
ATOM     22  C   UNL     1      29.072  30.663  17.157  0.00  0.00    -0.064 C 
ATOM     23  N   UNL     1      30.004  31.004  18.321  0.00  0.00    +0.379 N 
ATOM     24  C   UNL     1      29.259  31.757  19.341  0.00  0.00    -0.096 C 
ATOM     25  H   UNL     1      30.806  31.670  17.927  0.00  0.00    -0.082 HD
ATOM     26  C   UNL     1      30.672  29.753  18.873  0.00  0.00    -0.064 C 
ATOM     27  C   UNL     1      31.449  29.003  17.755  0.00  0.00    +0.066 C 
ENDBRANCH  19  20
ENDBRANCH  18  19
ENDBRANCH  14  15
ENDBRANCH  12  13
TORSDOF 6
ENDMDL
MODEL 5
REMARK VINA RESULT:      -7.6     27.683     33.089
REMARK  Name = C:\Users\Docking\Desktop\test protocol\1iep_ligandH.pdb
REMARK  8 active torsions:
REMARK  status: ('A' for Active; 'I' for Inactive)
REMARK    1  A    between atoms: _5  and  _11
REMARK    2  A    between atoms: _19  and  _21
REMARK    3  A    between atoms: _22  and  _66
REMARK    4  A    between atoms: _27  and  _30
REMARK    5  A    between atoms: _32  and  _33
REMARK    6  A    between atoms: _38  and  _43
REMARK    7  A    between atoms: _43  and  _46
REMARK    8  A    between atoms: _53  and  _55
REMARK                            x       y       z     vdW  Elec       q    Type
REMARK                         _______ _______ _______ _____ _____    ______ ____
ROOT
ATOM     10  C   UNL     1      28.697   8.751  19.343  0.00  0.00    +0.038 A 
ATOM     11  C   UNL     1      29.034  10.113  19.138  0.00  0.00    +0.047 A 
ATOM     12  C   UNL     1      29.811  10.530  17.981  0.00  0.00    +0.035 A 
ATOM     32  C   UNL     1      30.225   9.533  17.050  0.00  0.00    +0.024 A 
ATOM     33  C   UNL     1      29.891   8.143  17.243  0.00  0.00    +0.007 A 
ATOM     34  C   UNL     1      29.128   7.726  18.384  0.00  0.00    -0.029 A 
ATOM     35  C   UNL     1      28.805   6.222  18.544  0.00  0.00    +0.045 C 
ENDROOT
BRANCH  10   9
ATOM      4  C   UNL     1      28.343   7.426  23.943  0.00  0.00    +0.077 A 
ATOM      5  C   UNL     1      29.768   7.392  24.104  0.00  0.00    +0.048 A 
ATOM      6  C   UNL     1      30.556   7.714  22.976  0.00  0.00    +0.116 A 
ATOM      7  N   UNL     1      29.954   8.046  21.782  0.00  0.00    -0.223 NA
ATOM      8  C   UNL     1      28.577   8.068  21.660  0.00  0.00    +0.220 A 
ATOM      9  N   UNL     1      27.949   8.406  20.471  0.00  0.00    -0.283 N 
ATOM     36  H   UNL     1      26.931   8.404  20.420  0.00  0.00    +0.155 HD
ATOM     37  N   UNL     1      27.802   7.762  22.722  0.00  0.00    -0.214 NA
BRANCH   4   3
ATOM      1  C   UNL     1      25.703   7.785  26.806  0.00  0.00    +0.020 A 
ATOM      2  C   UNL     1      26.625   8.141  25.752  0.00  0.00    +0.013 A 
ATOM      3  C   UNL     1      27.376   7.114  25.042  0.00  0.00    +0.019 A 
ATOM     38  C   UNL     1      27.168   5.725  25.424  0.00  0.00    +0.120 A 
ATOM     39  N   UNL     1      26.275   5.413  26.444  0.00  0.00    -0.263 NA
ATOM     40  C   UNL     1      25.548   6.393  27.136  0.00  0.00    +0.111 A 
ENDBRANCH   4   3
ENDBRANCH  10   9
BRANCH  12  13
ATOM     13  N   UNL     1      30.190  11.897  17.724  0.00  0.00    -0.281 N 
ATOM     14  C   UNL     1      31.334  12.557  18.145  0.00  0.00    +0.248 C 
ATOM     30  O   UNL     1      32.106  12.130  18.990  0.00  0.00    -0.270 OA
ATOM     31  H   UNL     1      29.537  12.445  17.165  0.00  0.00    +0.155 HD
BRANCH  14  15
ATOM     15  C   UNL     1      31.658  13.889  17.552  0.00  0.00    +0.037 A 
ATOM     16  C   UNL     1      32.959  14.524  17.775  0.00  0.00    +0.013 A 
ATOM     17  C   UNL     1      33.240  15.818  17.205  0.00  0.00    +0.005 A 
ATOM     18  C   UNL     1      32.217  16.485  16.404  0.00  0.00    -0.033 A 
ATOM     28  C   UNL     1      30.936  15.830  16.194  0.00  0.00    +0.005 A 
ATOM     29  C   UNL     1      30.657  14.563  16.752  0.00  0.00    +0.013 A 
BRANCH  18  19
ATOM     19  C   UNL     1      32.422  17.876  15.775  0.00  0.00    +0.119 C 
BRANCH  19  20
ATOM     20  N   UNL     1      32.084  19.063  16.616  0.00  0.00    -0.302 NA
ATOM     21  C   UNL     1      30.596  19.108  16.975  0.00  0.00    +0.066 C 
ATOM     22  C   UNL     1      30.264  20.344  17.874  0.00  0.00    -0.064 C 
ATOM     23  N   UNL     1      30.685  21.624  17.150  0.00  0.00    +0.379 N 
ATOM     24  C   UNL     1      30.321  22.791  17.967  0.00  0.00    -0.096 C 
ATOM     25  H   UNL     1      30.104  21.682  16.200  0.00  0.00    -0.082 HD
ATOM     26  C   UNL     1      32.163  21.587  16.786  0.00  0.00    -0.064 C 
ATOM     27  C   UNL     1      32.487  20.339  15.918  0.00  0.00    +0.066 C 
ENDBRANCH  19  20
ENDBRANCH  18  19
ENDBRANCH  14  15
ENDBRANCH  12  13
TORSDOF 6
ENDMDL
