MODEL 1
REMARK VINA RESULT:      -7.6      0.000      0.000
REMARK  Name = C:\Users\Docking\Desktop\test protocol\1iep_ligandH.pdb
REMARK  8 active torsions:
REMARK  status: ('A' for Active; 'I' for Inactive)
REMARK    1  A    between atoms: _5  and  _11
REMARK    2  A    between atoms: _19  and  _21
REMARK    3  A    between atoms: _22  and  _66
REMARK    4  A    between atoms: _27  and  _30
REMARK    5  A    between atoms: _32  and  _33
REMARK    6  A    between atoms: _38  and  _43
REMARK    7  A    between atoms: _43  and  _46
REMARK    8  A    between atoms: _53  and  _55
REMARK                            x       y       z     vdW  Elec       q    Type
REMARK                         _______ _______ _______ _____ _____    ______ ____
ROOT
ATOM     10  C   UNL     1       7.138  54.680  22.353  0.00  0.00    +0.038 A 
ATOM     11  C   UNL     1       7.367  53.321  22.018  0.00  0.00    +0.047 A 
ATOM     12  C   UNL     1       6.416  52.285  22.388  0.00  0.00    +0.035 A 
ATOM     32  C   UNL     1       5.239  52.669  23.096  0.00  0.00    +0.024 A 
ATOM     33  C   UNL     1       4.991  54.045  23.445  0.00  0.00    +0.007 A 
ATOM     34  C   UNL     1       5.927  55.072  23.085  0.00  0.00    -0.029 A 
ATOM     35  C   UNL     1       5.613  56.530  23.492  0.00  0.00    +0.045 C 
ENDROOT
BRANCH  10   9
ATOM      4  C   UNL     1      11.025  57.361  23.213  0.00  0.00    +0.077 A 
ATOM      5  C   UNL     1      11.166  56.837  24.541  0.00  0.00    +0.048 A 
ATOM      6  C   UNL     1      10.213  55.884  24.967  0.00  0.00    +0.116 A 
ATOM      7  N   UNL     1       9.199  55.493  24.119  0.00  0.00    -0.223 NA
ATOM      8  C   UNL     1       9.092  56.020  22.845  0.00  0.00    +0.220 A 
ATOM      9  N   UNL     1       8.085  55.634  21.974  0.00  0.00    -0.283 N 
ATOM     36  H   UNL     1       8.035  56.052  21.045  0.00  0.00    +0.155 HD
ATOM     37  N   UNL     1       9.988  56.932  22.416  0.00  0.00    -0.214 NA
BRANCH   4   3
ATOM      1  C   UNL     1      12.733  60.741  22.232  0.00  0.00    +0.020 A 
ATOM      2  C   UNL     1      11.807  59.807  22.829  0.00  0.00    +0.013 A 
ATOM      3  C   UNL     1      11.955  58.372  22.618  0.00  0.00    +0.019 A 
ATOM     38  C   UNL     1      13.061  57.912  21.791  0.00  0.00    +0.120 A 
ATOM     39  N   UNL     1      13.936  58.835  21.227  0.00  0.00    -0.263 NA
ATOM     40  C   UNL     1      13.802  60.218  21.422  0.00  0.00    +0.111 A 
ENDBRANCH   4   3
ENDBRANCH  10   9
BRANCH  12  13
ATOM     13  N   UNL     1       6.598  50.888  22.082  0.00  0.00    -0.281 N 
ATOM     14  C   UNL     1       6.049  50.166  21.035  0.00  0.00    +0.248 C 
ATOM     30  O   UNL     1       5.142  50.566  20.321  0.00  0.00    -0.270 OA
ATOM     31  H   UNL     1       7.206  50.367  22.715  0.00  0.00    +0.155 HD
BRANCH  14  15
ATOM     15  C   UNL     1       6.574  48.796  20.749  0.00  0.00    +0.037 A 
ATOM     16  C   UNL     1       7.964  48.438  21.041  0.00  0.00    +0.013 A 
ATOM     17  C   UNL     1       8.449  47.115  20.739  0.00  0.00    +0.005 A 
ATOM     18  C   UNL     1       7.541  46.138  20.143  0.00  0.00    -0.033 A 
ATOM     28  C   UNL     1       6.165  46.518  19.869  0.00  0.00    +0.005 A 
ATOM     29  C   UNL     1       5.687  47.814  20.162  0.00  0.00    +0.013 A 
BRANCH  18  19
ATOM     19  C   UNL     1       7.978  44.709  19.769  0.00  0.00    +0.119 C 
BRANCH  19  20
ATOM     20  N   UNL     1       6.900  43.723  19.461  0.00  0.00    -0.302 NA
ATOM     21  C   UNL     1       6.402  43.005  20.718  0.00  0.00    +0.066 C 
ATOM     22  C   UNL     1       5.259  41.994  20.381  0.00  0.00    -0.064 C 
ATOM     23  N   UNL     1       5.762  40.986  19.346  0.00  0.00    +0.379 N 
ATOM     24  C   UNL     1       4.709  39.999  19.070  0.00  0.00    -0.096 C 
ATOM     25  H   UNL     1       6.626  40.443  19.795  0.00  0.00    -0.082 HD
ATOM     26  C   UNL     1       6.262  41.691  18.093  0.00  0.00    -0.064 C 
ATOM     27  C   UNL     1       7.377  42.716  18.444  0.00  0.00    +0.066 C 
ENDBRANCH  19  20
ENDBRANCH  18  19
ENDBRANCH  14  15
ENDBRANCH  12  13
TORSDOF 6
ENDMDL
MODEL 2
REMARK VINA RESULT:      -7.5     25.548     29.934
REMARK  Name = C:\Users\Docking\Desktop\test protocol\1iep_ligandH.pdb
REMARK  8 active torsions:
REMARK  status: ('A' for Active; 'I' for Inactive)
REMARK    1  A    between atoms: _5  and  _11
REMARK    2  A    between atoms: _19  and  _21
REMARK    3  A    between atoms: _22  and  _66
REMARK    4  A    between atoms: _27  and  _30
REMARK    5  A    between atoms: _32  and  _33
REMARK    6  A    between atoms: _38  and  _43
REMARK    7  A    between atoms: _43  and  _46
REMARK    8  A    between atoms: _53  and  _55
REMARK                            x       y       z     vdW  Elec       q    Type
REMARK                         _______ _______ _______ _____ _____    ______ ____
ROOT
ATOM     10  C   UNL     1      23.643  27.363  36.361  0.00  0.00    +0.038 A 
ATOM     11  C   UNL     1      22.731  28.196  35.664  0.00  0.00    +0.047 A 
ATOM     12  C   UNL     1      21.691  27.631  34.819  0.00  0.00    +0.035 A 
ATOM     32  C   UNL     1      21.606  26.213  34.708  0.00  0.00    +0.024 A 
ATOM     33  C   UNL     1      22.526  25.351  35.408  0.00  0.00    +0.007 A 
ATOM     34  C   UNL     1      23.556  25.903  36.241  0.00  0.00    -0.029 A 
ATOM     35  C   UNL     1      24.519  24.932  36.963  0.00  0.00    +0.045 C 
ENDROOT
BRANCH  10   9
ATOM      4  C   UNL     1      27.828  29.644  36.929  0.00  0.00    +0.077 A 
ATOM      5  C   UNL     1      28.099  29.623  35.520  0.00  0.00    +0.048 A 
ATOM      6  C   UNL     1      27.139  29.009  34.685  0.00  0.00    +0.116 A 
ATOM      7  N   UNL     1      25.997  28.461  35.228  0.00  0.00    -0.223 NA
ATOM      8  C   UNL     1      25.768  28.497  36.591  0.00  0.00    +0.220 A 
ATOM      9  N   UNL     1      24.623  27.959  37.158  0.00  0.00    -0.283 N 
ATOM     36  H   UNL     1      24.494  28.000  38.169  0.00  0.00    +0.155 HD
ATOM     37  N   UNL     1      26.670  29.076  37.411  0.00  0.00    -0.214 NA
BRANCH   4   3
ATOM      1  C   UNL     1      29.201  31.702  39.960  0.00  0.00    +0.020 A 
ATOM      2  C   UNL     1      28.274  31.134  39.008  0.00  0.00    +0.013 A 
ATOM      3  C   UNL     1      28.745  30.259  37.941  0.00  0.00    +0.019 A 
ATOM     38  C   UNL     1      30.170  29.977  37.865  0.00  0.00    +0.120 A 
ATOM     39  N   UNL     1      31.039  30.540  38.794  0.00  0.00    -0.263 NA
ATOM     40  C   UNL     1      30.598  31.384  39.825  0.00  0.00    +0.111 A 
ENDBRANCH   4   3
ENDBRANCH  10   9
BRANCH  12  13
ATOM     13  N   UNL     1      20.741  28.427  34.082  0.00  0.00    -0.281 N 
ATOM     14  C   UNL     1      20.968  29.189  32.947  0.00  0.00    +0.248 C 
ATOM     30  O   UNL     1      22.075  29.474  32.516  0.00  0.00    -0.270 OA
ATOM     31  H   UNL     1      19.786  28.429  34.439  0.00  0.00    +0.155 HD
BRANCH  14  15
ATOM     15  C   UNL     1      19.795  29.725  32.191  0.00  0.00    +0.037 A 
ATOM     16  C   UNL     1      18.545  30.071  32.872  0.00  0.00    +0.013 A 
ATOM     17  C   UNL     1      17.423  30.570  32.116  0.00  0.00    +0.005 A 
ATOM     18  C   UNL     1      17.548  30.726  30.669  0.00  0.00    -0.033 A 
ATOM     28  C   UNL     1      18.801  30.380  30.020  0.00  0.00    +0.005 A 
ATOM     29  C   UNL     1      19.902  29.890  30.757  0.00  0.00    +0.013 A 
BRANCH  18  19
ATOM     19  C   UNL     1      16.396  31.231  29.781  0.00  0.00    +0.119 C 
BRANCH  19  20
ATOM     20  N   UNL     1      16.687  32.378  28.870  0.00  0.00    -0.302 NA
ATOM     21  C   UNL     1      15.947  33.650  29.293  0.00  0.00    +0.066 C 
ATOM     22  C   UNL     1      16.281  34.846  28.343  0.00  0.00    -0.064 C 
ATOM     23  N   UNL     1      15.924  34.465  26.905  0.00  0.00    +0.379 N 
ATOM     24  C   UNL     1      16.183  35.608  26.016  0.00  0.00    -0.096 C 
ATOM     25  H   UNL     1      14.830  34.253  26.873  0.00  0.00    -0.082 HD
ATOM     26  C   UNL     1      16.653  33.200  26.476  0.00  0.00    -0.064 C 
ATOM     27  C   UNL     1      16.338  32.026  27.445  0.00  0.00    +0.066 C 
ENDBRANCH  19  20
ENDBRANCH  18  19
ENDBRANCH  14  15
ENDBRANCH  12  13
TORSDOF 6
ENDMDL
MODEL 3
REMARK VINA RESULT:      -7.4      3.982      4.890
REMARK  Name = C:\Users\Docking\Desktop\test protocol\1iep_ligandH.pdb
REMARK  8 active torsions:
REMARK  status: ('A' for Active; 'I' for Inactive)
REMARK    1  A    between atoms: _5  and  _11
REMARK    2  A    between atoms: _19  and  _21
REMARK    3  A    between atoms: _22  and  _66
REMARK    4  A    between atoms: _27  and  _30
REMARK    5  A    between atoms: _32  and  _33
REMARK    6  A    between atoms: _38  and  _43
REMARK    7  A    between atoms: _43  and  _46
REMARK    8  A    between atoms: _53  and  _55
REMARK                            x       y       z     vdW  Elec       q    Type
REMARK                         _______ _______ _______ _____ _____    ______ ____
ROOT
ATOM     10  C   UNL     1       6.853  54.660  21.086  0.00  0.00    +0.038 A 
ATOM     11  C   UNL     1       7.009  53.269  20.860  0.00  0.00    +0.047 A 
ATOM     12  C   UNL     1       6.702  52.298  21.899  0.00  0.00    +0.035 A 
ATOM     32  C   UNL     1       6.236  52.780  23.157  0.00  0.00    +0.024 A 
ATOM     33  C   UNL     1       6.073  54.191  23.404  0.00  0.00    +0.007 A 
ATOM     34  C   UNL     1       6.376  55.153  22.384  0.00  0.00    -0.029 A 
ATOM     35  C   UNL     1       6.188  56.654  22.707  0.00  0.00    +0.045 C 
ENDROOT
BRANCH  10   9
ATOM      4  C   UNL     1       5.693  57.121  17.132  0.00  0.00    +0.077 A 
ATOM      5  C   UNL     1       4.368  56.573  17.108  0.00  0.00    +0.048 A 
ATOM      6  C   UNL     1       4.026  55.655  18.126  0.00  0.00    +0.116 A 
ATOM      7  N   UNL     1       4.950  55.319  19.093  0.00  0.00    -0.223 NA
ATOM      8  C   UNL     1       6.220  55.865  19.086  0.00  0.00    +0.220 A 
ATOM      9  N   UNL     1       7.162  55.547  20.053  0.00  0.00    -0.283 N 
ATOM     36  H   UNL     1       8.090  55.966  20.009  0.00  0.00    +0.155 HD
ATOM     37  N   UNL     1       6.570  56.743  18.123  0.00  0.00    -0.214 NA
BRANCH   4   3
ATOM      1  C   UNL     1       6.176  59.192  13.848  0.00  0.00    +0.020 A 
ATOM      2  C   UNL     1       5.649  58.223  14.782  0.00  0.00    +0.013 A 
ATOM      3  C   UNL     1       6.202  58.106  16.126  0.00  0.00    +0.019 A 
ATOM     38  C   UNL     1       7.296  58.991  16.496  0.00  0.00    +0.120 A 
ATOM     39  N   UNL     1       7.785  59.912  15.575  0.00  0.00    -0.263 NA
ATOM     40  C   UNL     1       7.261  60.033  14.279  0.00  0.00    +0.111 A 
ENDBRANCH   4   3
ENDBRANCH  10   9
BRANCH  12  13
ATOM     13  N   UNL     1       6.849  50.874  21.730  0.00  0.00    -0.281 N 
ATOM     14  C   UNL     1       6.084  50.026  20.946  0.00  0.00    +0.248 C 
ATOM     30  O   UNL     1       5.017  50.333  20.433  0.00  0.00    -0.270 OA
ATOM     31  H   UNL     1       7.609  50.437  22.252  0.00  0.00    +0.155 HD
BRANCH  14  15
ATOM     15  C   UNL     1       6.565  48.631  20.708  0.00  0.00    +0.037 A 
ATOM     16  C   UNL     1       7.959  48.255  20.960  0.00  0.00    +0.013 A 
ATOM     17  C   UNL     1       8.402  46.907  20.706  0.00  0.00    +0.005 A 
ATOM     18  C   UNL     1       7.448  45.924  20.197  0.00  0.00    -0.033 A 
ATOM     28  C   UNL     1       6.070  46.323  19.961  0.00  0.00    +0.005 A 
ATOM     29  C   UNL     1       5.633  47.643  20.208  0.00  0.00    +0.013 A 
BRANCH  18  19
ATOM     19  C   UNL     1       7.837  44.469  19.878  0.00  0.00    +0.119 C 
BRANCH  19  20
ATOM     20  N   UNL     1       6.727  43.507  19.610  0.00  0.00    -0.302 NA
ATOM     21  C   UNL     1       6.471  42.579  20.801  0.00  0.00    +0.066 C 
ATOM     22  C   UNL     1       5.291  41.594  20.511  0.00  0.00    -0.064 C 
ATOM     23  N   UNL     1       5.603  40.785  19.251  0.00  0.00    +0.379 N 
ATOM     24  C   UNL     1       4.523  39.818  19.009  0.00  0.00    -0.096 C 
ATOM     25  H   UNL     1       6.537  40.208  19.443  0.00  0.00    -0.082 HD
ATOM     26  C   UNL     1       5.862  41.700  18.063  0.00  0.00    -0.064 C 
ATOM     27  C   UNL     1       7.016  42.694  18.372  0.00  0.00    +0.066 C 
ENDBRANCH  19  20
ENDBRANCH  18  19
ENDBRANCH  14  15
ENDBRANCH  12  13
TORSDOF 6
ENDMDL
MODEL 4
REMARK VINA RESULT:      -7.3      4.025      5.043
REMARK  Name = C:\Users\Docking\Desktop\test protocol\1iep_ligandH.pdb
REMARK  8 active torsions:
REMARK  status: ('A' for Active; 'I' for Inactive)
REMARK    1  A    between atoms: _5  and  _11
REMARK    2  A    between atoms: _19  and  _21
REMARK    3  A    between atoms: _22  and  _66
REMARK    4  A    between atoms: _27  and  _30
REMARK    5  A    between atoms: _32  and  _33
REMARK    6  A    between atoms: _38  and  _43
REMARK    7  A    between atoms: _43  and  _46
REMARK    8  A    between atoms: _53  and  _55
REMARK                            x       y       z     vdW  Elec       q    Type
REMARK                         _______ _______ _______ _____ _____    ______ ____
ROOT
ATOM     10  C   UNL     1       4.131  53.146  19.555  0.00  0.00    +0.038 A 
ATOM     11  C   UNL     1       4.749  51.907  19.247  0.00  0.00    +0.047 A 
ATOM     12  C   UNL     1       4.589  50.750  20.114  0.00  0.00    +0.035 A 
ATOM     32  C   UNL     1       3.790  50.890  21.287  0.00  0.00    +0.024 A 
ATOM     33  C   UNL     1       3.155  52.142  21.615  0.00  0.00    +0.007 A 
ATOM     34  C   UNL     1       3.312  53.287  20.765  0.00  0.00    -0.029 A 
ATOM     35  C   UNL     1       2.613  54.606  21.170  0.00  0.00    +0.045 C 
ENDROOT
BRANCH  10   9
ATOM      4  C   UNL     1       6.656  56.898  17.949  0.00  0.00    +0.077 A 
ATOM      5  C   UNL     1       7.676  56.712  18.941  0.00  0.00    +0.048 A 
ATOM      6  C   UNL     1       7.509  55.643  19.850  0.00  0.00    +0.116 A 
ATOM      7  N   UNL     1       6.402  54.827  19.764  0.00  0.00    -0.223 NA
ATOM      8  C   UNL     1       5.436  55.036  18.796  0.00  0.00    +0.220 A 
ATOM      9  N   UNL     1       4.318  54.224  18.687  0.00  0.00    -0.283 N 
ATOM     36  H   UNL     1       3.624  54.415  17.964  0.00  0.00    +0.155 HD
ATOM     37  N   UNL     1       5.571  56.051  17.918  0.00  0.00    -0.214 NA
BRANCH   4   3
ATOM      1  C   UNL     1       7.854  59.831  15.654  0.00  0.00    +0.020 A 
ATOM      2  C   UNL     1       7.872  58.797  16.664  0.00  0.00    +0.013 A 
ATOM      3  C   UNL     1       6.691  57.982  16.916  0.00  0.00    +0.019 A 
ATOM     38  C   UNL     1       5.499  58.238  16.123  0.00  0.00    +0.120 A 
ATOM     39  N   UNL     1       5.510  59.241  15.159  0.00  0.00    -0.263 NA
ATOM     40  C   UNL     1       6.640  60.034  14.908  0.00  0.00    +0.111 A 
ENDBRANCH   4   3
ENDBRANCH  10   9
BRANCH  12  13
ATOM     13  N   UNL     1       5.199  49.469  19.858  0.00  0.00    -0.281 N 
ATOM     14  C   UNL     1       6.310  48.916  20.474  0.00  0.00    +0.248 C 
ATOM     30  O   UNL     1       7.078  49.533  21.196  0.00  0.00    -0.270 OA
ATOM     31  H   UNL     1       4.759  48.901  19.133  0.00  0.00    +0.155 HD
BRANCH  14  15
ATOM     15  C   UNL     1       6.619  47.472  20.244  0.00  0.00    +0.037 A 
ATOM     16  C   UNL     1       5.584  46.535  19.796  0.00  0.00    +0.013 A 
ATOM     17  C   UNL     1       5.905  45.144  19.598  0.00  0.00    +0.005 A 
ATOM     18  C   UNL     1       7.268  44.681  19.846  0.00  0.00    -0.033 A 
ATOM     28  C   UNL     1       8.276  45.632  20.285  0.00  0.00    +0.005 A 
ATOM     29  C   UNL     1       7.965  46.997  20.481  0.00  0.00    +0.013 A 
BRANCH  18  19
ATOM     19  C   UNL     1       7.695  43.210  19.681  0.00  0.00    +0.119 C 
BRANCH  19  20
ATOM     20  N   UNL     1       7.380  42.549  18.380  0.00  0.00    -0.302 NA
ATOM     21  C   UNL     1       6.271  41.502  18.522  0.00  0.00    +0.066 C 
ATOM     22  C   UNL     1       5.938  40.836  17.148  0.00  0.00    -0.064 C 
ATOM     23  N   UNL     1       7.206  40.206  16.568  0.00  0.00    +0.379 N 
ATOM     24  C   UNL     1       6.883  39.529  15.304  0.00  0.00    -0.096 C 
ATOM     25  H   UNL     1       7.557  39.431  17.288  0.00  0.00    -0.082 HD
ATOM     26  C   UNL     1       8.314  41.240  16.426  0.00  0.00    -0.064 C 
ATOM     27  C   UNL     1       8.617  41.917  17.792  0.00  0.00    +0.066 C 
ENDBRANCH  19  20
ENDBRANCH  18  19
ENDBRANCH  14  15
ENDBRANCH  12  13
TORSDOF 6
ENDMDL
MODEL 5
REMARK VINA RESULT:      -7.2      2.180      2.868
REMARK  Name = C:\Users\Docking\Desktop\test protocol\1iep_ligandH.pdb
REMARK  8 active torsions:
REMARK  status: ('A' for Active; 'I' for Inactive)
REMARK    1  A    between atoms: _5  and  _11
REMARK    2  A    between atoms: _19  and  _21
REMARK    3  A    between atoms: _22  and  _66
REMARK    4  A    between atoms: _27  and  _30
REMARK    5  A    between atoms: _32  and  _33
REMARK    6  A    between atoms: _38  and  _43
REMARK    7  A    between atoms: _43  and  _46
REMARK    8  A    between atoms: _53  and  _55
REMARK                            x       y       z     vdW  Elec       q    Type
REMARK                         _______ _______ _______ _____ _____    ______ ____
ROOT
ATOM     10  C   UNL     1       8.072  55.590  22.984  0.00  0.00    +0.038 A 
ATOM     11  C   UNL     1       7.846  54.259  22.549  0.00  0.00    +0.047 A 
ATOM     12  C   UNL     1       6.525  53.656  22.628  0.00  0.00    +0.035 A 
ATOM     32  C   UNL     1       5.455  54.439  23.153  0.00  0.00    +0.024 A 
ATOM     33  C   UNL     1       5.668  55.793  23.600  0.00  0.00    +0.007 A 
ATOM     34  C   UNL     1       6.969  56.392  23.527  0.00  0.00    -0.029 A 
ATOM     35  C   UNL     1       7.141  57.845  24.027  0.00  0.00    +0.045 C 
ENDROOT
BRANCH  10   9
ATOM      4  C   UNL     1      12.479  56.355  24.726  0.00  0.00    +0.077 A 
ATOM      5  C   UNL     1      12.179  55.666  25.949  0.00  0.00    +0.048 A 
ATOM      6  C   UNL     1      10.877  55.136  26.092  0.00  0.00    +0.116 A 
ATOM      7  N   UNL     1       9.952  55.289  25.082  0.00  0.00    -0.223 NA
ATOM      8  C   UNL     1      10.273  55.960  23.917  0.00  0.00    +0.220 A 
ATOM      9  N   UNL     1       9.361  56.119  22.885  0.00  0.00    -0.283 N 
ATOM     36  H   UNL     1       9.634  56.627  22.044  0.00  0.00    +0.155 HD
ATOM     37  N   UNL     1      11.509  56.477  23.756  0.00  0.00    -0.214 NA
BRANCH   4   3
ATOM      1  C   UNL     1      16.295  57.209  24.789  0.00  0.00    +0.020 A 
ATOM      2  C   UNL     1      15.034  56.587  25.119  0.00  0.00    +0.013 A 
ATOM      3  C   UNL     1      13.811  56.968  24.424  0.00  0.00    +0.019 A 
ATOM     38  C   UNL     1      13.899  57.990  23.392  0.00  0.00    +0.120 A 
ATOM     39  N   UNL     1      15.127  58.573  23.097  0.00  0.00    -0.263 NA
ATOM     40  C   UNL     1      16.311  58.215  23.760  0.00  0.00    +0.111 A 
ENDBRANCH   4   3
ENDBRANCH  10   9
BRANCH  12  13
ATOM     13  N   UNL     1       6.236  52.306  22.210  0.00  0.00    -0.281 N 
ATOM     14  C   UNL     1       5.801  51.875  20.968  0.00  0.00    +0.248 C 
ATOM     30  O   UNL     1       5.387  52.612  20.086  0.00  0.00    -0.270 OA
ATOM     31  H   UNL     1       6.369  51.582  22.916  0.00  0.00    +0.155 HD
BRANCH  14  15
ATOM     15  C   UNL     1       5.815  50.411  20.667  0.00  0.00    +0.037 A 
ATOM     16  C   UNL     1       4.723  49.778  19.922  0.00  0.00    +0.013 A 
ATOM     17  C   UNL     1       4.753  48.361  19.660  0.00  0.00    +0.005 A 
ATOM     18  C   UNL     1       5.880  47.566  20.143  0.00  0.00    -0.033 A 
ATOM     28  C   UNL     1       6.952  48.221  20.875  0.00  0.00    +0.005 A 
ATOM     29  C   UNL     1       6.926  49.609  21.135  0.00  0.00    +0.013 A 
BRANCH  18  19
ATOM     19  C   UNL     1       5.984  46.045  19.928  0.00  0.00    +0.119 C 
BRANCH  19  20
ATOM     20  N   UNL     1       4.938  45.191  20.567  0.00  0.00    -0.302 NA
ATOM     21  C   UNL     1       4.570  45.686  21.968  0.00  0.00    +0.066 C 
ATOM     22  C   UNL     1       3.459  44.794  22.612  0.00  0.00    -0.064 C 
ATOM     23  N   UNL     1       3.937  43.342  22.659  0.00  0.00    +0.379 N 
ATOM     24  C   UNL     1       2.919  42.511  23.317  0.00  0.00    -0.096 C 
ATOM     25  H   UNL     1       4.858  43.310  23.287  0.00  0.00    -0.082 HD
ATOM     26  C   UNL     1       4.309  42.843  21.270  0.00  0.00    -0.064 C 
ATOM     27  C   UNL     1       5.392  43.753  20.627  0.00  0.00    +0.066 C 
ENDBRANCH  19  20
ENDBRANCH  18  19
ENDBRANCH  14  15
ENDBRANCH  12  13
TORSDOF 6
ENDMDL
