MODEL 1
REMARK VINA RESULT:      -4.9      0.000      0.000
REMARK  Name = C:\Users\Docking\Desktop\test protocol\1iep_ligandH.pdb
REMARK  8 active torsions:
REMARK  status: ('A' for Active; 'I' for Inactive)
REMARK    1  A    between atoms: _5  and  _11
REMARK    2  A    between atoms: _19  and  _21
REMARK    3  A    between atoms: _22  and  _66
REMARK    4  A    between atoms: _27  and  _30
REMARK    5  A    between atoms: _32  and  _33
REMARK    6  A    between atoms: _38  and  _43
REMARK    7  A    between atoms: _43  and  _46
REMARK    8  A    between atoms: _53  and  _55
REMARK                            x       y       z     vdW  Elec       q    Type
REMARK                         _______ _______ _______ _____ _____    ______ ____
ROOT
ATOM     10  C   UNL     1      -1.694   9.412   6.613  0.00  0.00    +0.038 A 
ATOM     11  C   UNL     1      -0.707  10.338   7.037  0.00  0.00    +0.047 A 
ATOM     12  C   UNL     1      -0.744  11.727   6.608  0.00  0.00    +0.035 A 
ATOM     32  C   UNL     1      -1.804  12.140   5.749  0.00  0.00    +0.024 A 
ATOM     33  C   UNL     1      -2.815  11.212   5.307  0.00  0.00    +0.007 A 
ATOM     34  C   UNL     1      -2.782   9.840   5.725  0.00  0.00    -0.029 A 
ATOM     35  C   UNL     1      -3.888   8.888   5.216  0.00  0.00    +0.045 C 
ENDROOT
BRANCH  10   9
ATOM      4  C   UNL     1      -2.714   5.925   9.750  0.00  0.00    +0.077 A 
ATOM      5  C   UNL     1      -3.457   6.818  10.591  0.00  0.00    +0.048 A 
ATOM      6  C   UNL     1      -3.546   8.169  10.185  0.00  0.00    +0.116 A 
ATOM      7  N   UNL     1      -2.935   8.584   9.022  0.00  0.00    -0.223 NA
ATOM      8  C   UNL     1      -2.225   7.696   8.234  0.00  0.00    +0.220 A 
ATOM      9  N   UNL     1      -1.609   8.090   7.056  0.00  0.00    -0.283 N 
ATOM     36  H   UNL     1      -1.089   7.407   6.506  0.00  0.00    +0.155 HD
ATOM     37  N   UNL     1      -2.124   6.402   8.601  0.00  0.00    -0.214 NA
BRANCH   4   3
ATOM      1  C   UNL     1      -1.212   2.320   9.965  0.00  0.00    +0.020 A 
ATOM      2  C   UNL     1      -1.338   3.726   9.658  0.00  0.00    +0.013 A 
ATOM      3  C   UNL     1      -2.532   4.468  10.042  0.00  0.00    +0.019 A 
ATOM     38  C   UNL     1      -3.589   3.752  10.742  0.00  0.00    +0.120 A 
ATOM     39  N   UNL     1      -3.440   2.398  11.023  0.00  0.00    -0.263 NA
ATOM     40  C   UNL     1      -2.296   1.673  10.657  0.00  0.00    +0.111 A 
ENDBRANCH   4   3
ENDBRANCH  10   9
BRANCH  12  13
ATOM     13  N   UNL     1       0.235  12.711   6.999  0.00  0.00    -0.281 N 
ATOM     14  C   UNL     1       0.146  13.640   8.022  0.00  0.00    +0.248 C 
ATOM     30  O   UNL     1      -0.883  13.910   8.624  0.00  0.00    -0.270 OA
ATOM     31  H   UNL     1       1.098  12.723   6.456  0.00  0.00    +0.155 HD
BRANCH  14  15
ATOM     15  C   UNL     1       1.375  14.389   8.426  0.00  0.00    +0.037 A 
ATOM     16  C   UNL     1       1.399  15.853   8.454  0.00  0.00    +0.013 A 
ATOM     17  C   UNL     1       2.603  16.551   8.831  0.00  0.00    +0.005 A 
ATOM     18  C   UNL     1       3.794  15.782   9.186  0.00  0.00    -0.033 A 
ATOM     28  C   UNL     1       3.741  14.330   9.155  0.00  0.00    +0.005 A 
ATOM     29  C   UNL     1       2.563  13.643   8.785  0.00  0.00    +0.013 A 
BRANCH  18  19
ATOM     19  C   UNL     1       5.128  16.443   9.580  0.00  0.00    +0.119 C 
BRANCH  19  20
ATOM     20  N   UNL     1       6.305  16.187   8.697  0.00  0.00    -0.302 NA
ATOM     21  C   UNL     1       5.900  16.042   7.227  0.00  0.00    +0.066 C 
ATOM     22  C   UNL     1       7.145  15.798   6.315  0.00  0.00    -0.064 C 
ATOM     23  N   UNL     1       7.890  14.551   6.797  0.00  0.00    +0.379 N 
ATOM     24  C   UNL     1       9.029  14.285   5.906  0.00  0.00    -0.096 C 
ATOM     25  H   UNL     1       7.190  13.688   6.718  0.00  0.00    -0.082 HD
ATOM     26  C   UNL     1       8.294  14.686   8.258  0.00  0.00    -0.064 C 
ATOM     27  C   UNL     1       7.053  14.958   9.152  0.00  0.00    +0.066 C 
ENDBRANCH  19  20
ENDBRANCH  18  19
ENDBRANCH  14  15
ENDBRANCH  12  13
TORSDOF 6
ENDMDL
MODEL 2
REMARK VINA RESULT:      -4.7      2.620      4.186
REMARK  Name = C:\Users\Docking\Desktop\test protocol\1iep_ligandH.pdb
REMARK  8 active torsions:
REMARK  status: ('A' for Active; 'I' for Inactive)
REMARK    1  A    between atoms: _5  and  _11
REMARK    2  A    between atoms: _19  and  _21
REMARK    3  A    between atoms: _22  and  _66
REMARK    4  A    between atoms: _27  and  _30
REMARK    5  A    between atoms: _32  and  _33
REMARK    6  A    between atoms: _38  and  _43
REMARK    7  A    between atoms: _43  and  _46
REMARK    8  A    between atoms: _53  and  _55
REMARK                            x       y       z     vdW  Elec       q    Type
REMARK                         _______ _______ _______ _____ _____    ______ ____
ROOT
ATOM     10  C   UNL     1      -1.315  13.000   9.216  0.00  0.00    +0.038 A 
ATOM     11  C   UNL     1      -0.110  13.598   8.765  0.00  0.00    +0.047 A 
ATOM     12  C   UNL     1      -0.035  15.025   8.490  0.00  0.00    +0.035 A 
ATOM     32  C   UNL     1      -1.206  15.813   8.689  0.00  0.00    +0.024 A 
ATOM     33  C   UNL     1      -2.439  15.222   9.146  0.00  0.00    +0.007 A 
ATOM     34  C   UNL     1      -2.519  13.815   9.416  0.00  0.00    -0.029 A 
ATOM     35  C   UNL     1      -3.869  13.234   9.899  0.00  0.00    +0.045 C 
ENDROOT
BRANCH  10   9
ATOM      4  C   UNL     1      -1.800   8.445   7.783  0.00  0.00    +0.077 A 
ATOM      5  C   UNL     1      -2.072   8.838   6.430  0.00  0.00    +0.048 A 
ATOM      6  C   UNL     1      -2.085  10.222   6.146  0.00  0.00    +0.116 A 
ATOM      7  N   UNL     1      -1.842  11.136   7.148  0.00  0.00    -0.223 NA
ATOM      8  C   UNL     1      -1.585  10.724   8.443  0.00  0.00    +0.220 A 
ATOM      9  N   UNL     1      -1.330  11.626   9.465  0.00  0.00    -0.283 N 
ATOM     36  H   UNL     1      -1.152  11.282  10.408  0.00  0.00    +0.155 HD
ATOM     37  N   UNL     1      -1.568   9.408   8.740  0.00  0.00    -0.214 NA
BRANCH   4   3
ATOM      1  C   UNL     1      -0.532   5.006   9.147  0.00  0.00    +0.020 A 
ATOM      2  C   UNL     1      -0.527   6.385   8.718  0.00  0.00    +0.013 A 
ATOM      3  C   UNL     1      -1.749   7.020   8.239  0.00  0.00    +0.019 A 
ATOM     38  C   UNL     1      -2.967   6.226   8.208  0.00  0.00    +0.120 A 
ATOM     39  N   UNL     1      -2.941   4.899   8.626  0.00  0.00    -0.263 NA
ATOM     40  C   UNL     1      -1.771   4.277   9.087  0.00  0.00    +0.111 A 
ENDBRANCH   4   3
ENDBRANCH  10   9
BRANCH  12  13
ATOM     13  N   UNL     1       1.157  15.686   8.023  0.00  0.00    -0.281 N 
ATOM     14  C   UNL     1       2.311  15.967   8.736  0.00  0.00    +0.248 C 
ATOM     30  O   UNL     1       2.410  15.882   9.951  0.00  0.00    -0.270 OA
ATOM     31  H   UNL     1       1.150  15.984   7.047  0.00  0.00    +0.155 HD
BRANCH  14  15
ATOM     15  C   UNL     1       3.526  16.423   7.994  0.00  0.00    +0.037 A 
ATOM     16  C   UNL     1       4.748  15.614   7.967  0.00  0.00    +0.013 A 
ATOM     17  C   UNL     1       5.911  16.085   7.258  0.00  0.00    +0.005 A 
ATOM     18  C   UNL     1       5.857  17.372   6.568  0.00  0.00    -0.033 A 
ATOM     28  C   UNL     1       4.631  18.151   6.607  0.00  0.00    +0.005 A 
ATOM     29  C   UNL     1       3.489  17.693   7.302  0.00  0.00    +0.013 A 
BRANCH  18  19
ATOM     19  C   UNL     1       7.057  17.962   5.805  0.00  0.00    +0.119 C 
BRANCH  19  20
ATOM     20  N   UNL     1       7.295  17.467   4.416  0.00  0.00    -0.302 NA
ATOM     21  C   UNL     1       6.001  17.403   3.600  0.00  0.00    +0.066 C 
ATOM     22  C   UNL     1       6.272  16.904   2.143  0.00  0.00    -0.064 C 
ATOM     23  N   UNL     1       6.948  15.533   2.194  0.00  0.00    +0.379 N 
ATOM     24  C   UNL     1       7.151  15.035   0.825  0.00  0.00    -0.096 C 
ATOM     25  H   UNL     1       6.252  14.831   2.709  0.00  0.00    -0.082 HD
ATOM     26  C   UNL     1       8.234  15.587   3.006  0.00  0.00    -0.064 C 
ATOM     27  C   UNL     1       7.959  16.112   4.443  0.00  0.00    +0.066 C 
ENDBRANCH  19  20
ENDBRANCH  18  19
ENDBRANCH  14  15
ENDBRANCH  12  13
TORSDOF 6
ENDMDL
MODEL 3
REMARK VINA RESULT:      -4.6      3.312      6.262
REMARK  Name = C:\Users\Docking\Desktop\test protocol\1iep_ligandH.pdb
REMARK  8 active torsions:
REMARK  status: ('A' for Active; 'I' for Inactive)
REMARK    1  A    between atoms: _5  and  _11
REMARK    2  A    between atoms: _19  and  _21
REMARK    3  A    between atoms: _22  and  _66
REMARK    4  A    between atoms: _27  and  _30
REMARK    5  A    between atoms: _32  and  _33
REMARK    6  A    between atoms: _38  and  _43
REMARK    7  A    between atoms: _43  and  _46
REMARK    8  A    between atoms: _53  and  _55
REMARK                            x       y       z     vdW  Elec       q    Type
REMARK                         _______ _______ _______ _____ _____    ______ ____
ROOT
ATOM     10  C   UNL     1       1.630  14.110   9.587  0.00  0.00    +0.038 A 
ATOM     11  C   UNL     1       2.727  14.433   8.748  0.00  0.00    +0.047 A 
ATOM     12  C   UNL     1       3.036  15.814   8.413  0.00  0.00    +0.035 A 
ATOM     32  C   UNL     1       2.209  16.842   8.953  0.00  0.00    +0.024 A 
ATOM     33  C   UNL     1       1.090  16.531   9.807  0.00  0.00    +0.007 A 
ATOM     34  C   UNL     1       0.778  15.170  10.139  0.00  0.00    -0.029 A 
ATOM     35  C   UNL     1      -0.438  14.895  11.053  0.00  0.00    +0.045 C 
ENDROOT
BRANCH  10   9
ATOM      4  C   UNL     1      -0.313   9.848   8.542  0.00  0.00    +0.077 A 
ATOM      5  C   UNL     1      -0.900  10.346   7.331  0.00  0.00    +0.048 A 
ATOM      6  C   UNL     1      -0.684  11.706   7.017  0.00  0.00    +0.116 A 
ATOM      7  N   UNL     1       0.065  12.500   7.859  0.00  0.00    -0.223 NA
ATOM      8  C   UNL     1       0.615  11.989   9.020  0.00  0.00    +0.220 A 
ATOM      9  N   UNL     1       1.379  12.767   9.876  0.00  0.00    -0.283 N 
ATOM     36  H   UNL     1       1.761  12.354  10.727  0.00  0.00    +0.155 HD
ATOM     37  N   UNL     1       0.422  10.693   9.343  0.00  0.00    -0.214 NA
BRANCH   4   3
ATOM      1  C   UNL     1       0.146   6.513  10.535  0.00  0.00    +0.020 A 
ATOM      2  C   UNL     1       0.316   7.887  10.123  0.00  0.00    +0.013 A 
ATOM      3  C   UNL     1      -0.450   8.431   9.009  0.00  0.00    +0.019 A 
ATOM     38  C   UNL     1      -1.386   7.551   8.326  0.00  0.00    +0.120 A 
ATOM     39  N   UNL     1      -1.527   6.232   8.744  0.00  0.00    -0.263 NA
ATOM     40  C   UNL     1      -0.795   5.697   9.814  0.00  0.00    +0.111 A 
ENDBRANCH   4   3
ENDBRANCH  10   9
BRANCH  12  13
ATOM     13  N   UNL     1       4.132  16.203   7.560  0.00  0.00    -0.281 N 
ATOM     14  C   UNL     1       5.463  15.832   7.660  0.00  0.00    +0.248 C 
ATOM     30  O   UNL     1       5.954  15.276   8.632  0.00  0.00    -0.270 OA
ATOM     31  H   UNL     1       3.898  16.827   6.788  0.00  0.00    +0.155 HD
BRANCH  14  15
ATOM     15  C   UNL     1       6.385  16.134   6.524  0.00  0.00    +0.037 A 
ATOM     16  C   UNL     1       7.504  15.247   6.196  0.00  0.00    +0.013 A 
ATOM     17  C   UNL     1       8.388  15.572   5.104  0.00  0.00    +0.005 A 
ATOM     18  C   UNL     1       8.155  16.789   4.332  0.00  0.00    -0.033 A 
ATOM     28  C   UNL     1       7.034  17.649   4.675  0.00  0.00    +0.005 A 
ATOM     29  C   UNL     1       6.166  17.335   5.745  0.00  0.00    +0.013 A 
BRANCH  18  19
ATOM     19  C   UNL     1       9.060  17.225   3.164  0.00  0.00    +0.119 C 
BRANCH  19  20
ATOM     20  N   UNL     1       8.830  16.573   1.840  0.00  0.00    -0.302 NA
ATOM     21  C   UNL     1       7.373  16.699   1.384  0.00  0.00    +0.066 C 
ATOM     22  C   UNL     1       7.155  16.031  -0.013  0.00  0.00    -0.064 C 
ATOM     23  N   UNL     1       7.577  14.563   0.055  0.00  0.00    +0.379 N 
ATOM     24  C   UNL     1       7.319  13.918  -1.240  0.00  0.00    -0.096 C 
ATOM     25  H   UNL     1       6.935  14.062   0.817  0.00  0.00    -0.082 HD
ATOM     26  C   UNL     1       9.023  14.429   0.510  0.00  0.00    -0.064 C 
ATOM     27  C   UNL     1       9.236  15.121   1.886  0.00  0.00    +0.066 C 
ENDBRANCH  19  20
ENDBRANCH  18  19
ENDBRANCH  14  15
ENDBRANCH  12  13
TORSDOF 6
ENDMDL
