MODEL 1
REMARK VINA RESULT:      -5.5      0.000      0.000
REMARK  Name = C:\Users\Docking\Desktop\test protocol\1iep_ligandH.pdb
REMARK  8 active torsions:
REMARK  status: ('A' for Active; 'I' for Inactive)
REMARK    1  A    between atoms: _5  and  _11
REMARK    2  A    between atoms: _19  and  _21
REMARK    3  A    between atoms: _22  and  _66
REMARK    4  A    between atoms: _27  and  _30
REMARK    5  A    between atoms: _32  and  _33
REMARK    6  A    between atoms: _38  and  _43
REMARK    7  A    between atoms: _43  and  _46
REMARK    8  A    between atoms: _53  and  _55
REMARK                            x       y       z     vdW  Elec       q    Type
REMARK                         _______ _______ _______ _____ _____    ______ ____
ROOT
ATOM     10  C   UNL     1      27.633  29.328   2.355  0.00  0.00    +0.038 A 
ATOM     11  C   UNL     1      28.659  28.592   3.000  0.00  0.00    +0.047 A 
ATOM     12  C   UNL     1      28.863  27.180   2.718  0.00  0.00    +0.035 A 
ATOM     32  C   UNL     1      28.005  26.549   1.771  0.00  0.00    +0.024 A 
ATOM     33  C   UNL     1      26.956  27.282   1.107  0.00  0.00    +0.007 A 
ATOM     34  C   UNL     1      26.748  28.675   1.382  0.00  0.00    -0.029 A 
ATOM     35  C   UNL     1      25.604  29.409   0.645  0.00  0.00    +0.045 C 
ENDROOT
BRANCH  10   9
ATOM      4  C   UNL     1      29.196  33.424   4.308  0.00  0.00    +0.077 A 
ATOM      5  C   UNL     1      30.404  32.808   4.778  0.00  0.00    +0.048 A 
ATOM      6  C   UNL     1      30.581  31.434   4.502  0.00  0.00    +0.116 A 
ATOM      7  N   UNL     1      29.616  30.737   3.808  0.00  0.00    -0.223 NA
ATOM      8  C   UNL     1      28.462  31.361   3.370  0.00  0.00    +0.220 A 
ATOM      9  N   UNL     1      27.482  30.682   2.663  0.00  0.00    -0.283 N 
ATOM     36  H   UNL     1      26.642  31.177   2.364  0.00  0.00    +0.155 HD
ATOM     37  N   UNL     1      28.269  32.673   3.622  0.00  0.00    -0.214 NA
BRANCH   4   3
ATOM      1  C   UNL     1      29.081  37.055   5.760  0.00  0.00    +0.020 A 
ATOM      2  C   UNL     1      29.433  35.662   5.602  0.00  0.00    +0.013 A 
ATOM      3  C   UNL     1      28.866  34.869   4.518  0.00  0.00    +0.019 A 
ATOM     38  C   UNL     1      27.939  35.521   3.605  0.00  0.00    +0.120 A 
ATOM     39  N   UNL     1      27.618  36.863   3.783  0.00  0.00    -0.263 NA
ATOM     40  C   UNL     1      28.156  37.635   4.823  0.00  0.00    +0.111 A 
ENDBRANCH   4   3
ENDBRANCH  10   9
BRANCH  12  13
ATOM     13  N   UNL     1      29.883  26.379   3.349  0.00  0.00    -0.281 N 
ATOM     14  C   UNL     1      31.244  26.374   3.089  0.00  0.00    +0.248 C 
ATOM     30  O   UNL     1      31.764  26.908   2.121  0.00  0.00    -0.270 OA
ATOM     31  H   UNL     1      29.563  25.737   4.075  0.00  0.00    +0.155 HD
BRANCH  14  15
ATOM     15  C   UNL     1      32.157  25.661   4.034  0.00  0.00    +0.037 A 
ATOM     16  C   UNL     1      31.835  24.324   4.538  0.00  0.00    +0.013 A 
ATOM     17  C   UNL     1      32.725  23.666   5.461  0.00  0.00    +0.005 A 
ATOM     18  C   UNL     1      33.947  24.345   5.886  0.00  0.00    -0.033 A 
ATOM     28  C   UNL     1      34.244  25.669   5.366  0.00  0.00    +0.005 A 
ATOM     29  C   UNL     1      33.374  26.318   4.461  0.00  0.00    +0.013 A 
BRANCH  18  19
ATOM     19  C   UNL     1      34.943  23.726   6.884  0.00  0.00    +0.119 C 
BRANCH  19  20
ATOM     20  N   UNL     1      34.971  24.297   8.264  0.00  0.00    -0.302 NA
ATOM     21  C   UNL     1      33.609  24.861   8.680  0.00  0.00    +0.066 C 
ATOM     22  C   UNL     1      33.650  25.433  10.134  0.00  0.00    -0.064 C 
ATOM     23  N   UNL     1      34.734  26.509  10.226  0.00  0.00    +0.379 N 
ATOM     24  C   UNL     1      34.736  27.090  11.577  0.00  0.00    -0.096 C 
ATOM     25  H   UNL     1      34.466  27.320   9.509  0.00  0.00    -0.082 HD
ATOM     26  C   UNL     1      36.090  25.957   9.812  0.00  0.00    -0.064 C 
ATOM     27  C   UNL     1      36.031  25.364   8.376  0.00  0.00    +0.066 C 
ENDBRANCH  19  20
ENDBRANCH  18  19
ENDBRANCH  14  15
ENDBRANCH  12  13
TORSDOF 6
ENDMDL
MODEL 2
REMARK VINA RESULT:      -5.0      3.733      4.355
REMARK  Name = C:\Users\Docking\Desktop\test protocol\1iep_ligandH.pdb
REMARK  8 active torsions:
REMARK  status: ('A' for Active; 'I' for Inactive)
REMARK    1  A    between atoms: _5  and  _11
REMARK    2  A    between atoms: _19  and  _21
REMARK    3  A    between atoms: _22  and  _66
REMARK    4  A    between atoms: _27  and  _30
REMARK    5  A    between atoms: _32  and  _33
REMARK    6  A    between atoms: _38  and  _43
REMARK    7  A    between atoms: _43  and  _46
REMARK    8  A    between atoms: _53  and  _55
REMARK                            x       y       z     vdW  Elec       q    Type
REMARK                         _______ _______ _______ _____ _____    ______ ____
ROOT
ATOM     10  C   UNL     1      27.093  25.688   2.390  0.00  0.00    +0.038 A 
ATOM     11  C   UNL     1      28.331  25.672   3.083  0.00  0.00    +0.047 A 
ATOM     12  C   UNL     1      29.448  24.869   2.610  0.00  0.00    +0.035 A 
ATOM     32  C   UNL     1      29.271  24.097   1.425  0.00  0.00    +0.024 A 
ATOM     33  C   UNL     1      28.020  24.101   0.709  0.00  0.00    +0.007 A 
ATOM     34  C   UNL     1      26.913  24.888   1.172  0.00  0.00    -0.029 A 
ATOM     35  C   UNL     1      25.593  24.849   0.368  0.00  0.00    +0.045 C 
ENDROOT
BRANCH  10   9
ATOM      4  C   UNL     1      24.683  29.828   2.675  0.00  0.00    +0.077 A 
ATOM      5  C   UNL     1      25.586  30.484   1.774  0.00  0.00    +0.048 A 
ATOM      6  C   UNL     1      26.662  29.723   1.265  0.00  0.00    +0.116 A 
ATOM      7  N   UNL     1      26.814  28.405   1.636  0.00  0.00    -0.223 NA
ATOM      8  C   UNL     1      25.925  27.803   2.509  0.00  0.00    +0.220 A 
ATOM      9  N   UNL     1      26.054  26.476   2.889  0.00  0.00    -0.283 N 
ATOM     36  H   UNL     1      25.382  26.071   3.541  0.00  0.00    +0.155 HD
ATOM     37  N   UNL     1      24.891  28.509   3.010  0.00  0.00    -0.214 NA
BRANCH   4   3
ATOM      1  C   UNL     1      21.610  30.609   4.966  0.00  0.00    +0.020 A 
ATOM      2  C   UNL     1      22.749  29.920   4.404  0.00  0.00    +0.013 A 
ATOM      3  C   UNL     1      23.496  30.499   3.294  0.00  0.00    +0.019 A 
ATOM     38  C   UNL     1      23.062  31.786   2.773  0.00  0.00    +0.120 A 
ATOM     39  N   UNL     1      21.961  32.425   3.333  0.00  0.00    -0.263 NA
ATOM     40  C   UNL     1      21.233  31.878   4.400  0.00  0.00    +0.111 A 
ENDBRANCH   4   3
ENDBRANCH  10   9
BRANCH  12  13
ATOM     13  N   UNL     1      30.725  24.807   3.276  0.00  0.00    -0.281 N 
ATOM     14  C   UNL     1      31.513  25.862   3.707  0.00  0.00    +0.248 C 
ATOM     30  O   UNL     1      31.338  27.030   3.391  0.00  0.00    -0.270 OA
ATOM     31  H   UNL     1      31.093  23.872   3.452  0.00  0.00    +0.155 HD
BRANCH  14  15
ATOM     15  C   UNL     1      32.672  25.577   4.606  0.00  0.00    +0.037 A 
ATOM     16  C   UNL     1      32.531  24.703   5.774  0.00  0.00    +0.013 A 
ATOM     17  C   UNL     1      33.661  24.459   6.635  0.00  0.00    +0.005 A 
ATOM     18  C   UNL     1      34.944  25.088   6.329  0.00  0.00    -0.033 A 
ATOM     28  C   UNL     1      35.057  25.946   5.162  0.00  0.00    +0.005 A 
ATOM     29  C   UNL     1      33.952  26.189   4.316  0.00  0.00    +0.013 A 
BRANCH  18  19
ATOM     19  C   UNL     1      36.197  24.900   7.205  0.00  0.00    +0.119 C 
BRANCH  19  20
ATOM     20  N   UNL     1      36.176  25.508   8.569  0.00  0.00    -0.302 NA
ATOM     21  C   UNL     1      35.012  24.983   9.414  0.00  0.00    +0.066 C 
ATOM     22  C   UNL     1      35.019  25.612  10.845  0.00  0.00    -0.064 C 
ATOM     23  N   UNL     1      34.959  27.136  10.729  0.00  0.00    +0.379 N 
ATOM     24  C   UNL     1      34.907  27.728  12.074  0.00  0.00    -0.096 C 
ATOM     25  H   UNL     1      34.011  27.398  10.206  0.00  0.00    -0.082 HD
ATOM     26  C   UNL     1      36.112  27.666   9.888  0.00  0.00    -0.064 C 
ATOM     27  C   UNL     1      36.114  27.013   8.478  0.00  0.00    +0.066 C 
ENDBRANCH  19  20
ENDBRANCH  18  19
ENDBRANCH  14  15
ENDBRANCH  12  13
TORSDOF 6
ENDMDL
MODEL 3
REMARK VINA RESULT:      -4.9      3.396     10.882
REMARK  Name = C:\Users\Docking\Desktop\test protocol\1iep_ligandH.pdb
REMARK  8 active torsions:
REMARK  status: ('A' for Active; 'I' for Inactive)
REMARK    1  A    between atoms: _5  and  _11
REMARK    2  A    between atoms: _19  and  _21
REMARK    3  A    between atoms: _22  and  _66
REMARK    4  A    between atoms: _27  and  _30
REMARK    5  A    between atoms: _32  and  _33
REMARK    6  A    between atoms: _38  and  _43
REMARK    7  A    between atoms: _43  and  _46
REMARK    8  A    between atoms: _53  and  _55
REMARK                            x       y       z     vdW  Elec       q    Type
REMARK                         _______ _______ _______ _____ _____    ______ ____
ROOT
ATOM     10  C   UNL     1      33.532  25.968   4.505  0.00  0.00    +0.038 A 
ATOM     11  C   UNL     1      32.373  26.703   4.147  0.00  0.00    +0.047 A 
ATOM     12  C   UNL     1      31.895  26.733   2.774  0.00  0.00    +0.035 A 
ATOM     32  C   UNL     1      32.621  26.000   1.790  0.00  0.00    +0.024 A 
ATOM     33  C   UNL     1      33.801  25.248   2.136  0.00  0.00    +0.007 A 
ATOM     34  C   UNL     1      34.279  25.217   3.489  0.00  0.00    -0.029 A 
ATOM     35  C   UNL     1      35.554  24.399   3.802  0.00  0.00    +0.045 C 
ENDROOT
BRANCH  10   9
ATOM      4  C   UNL     1      33.207  24.445   9.045  0.00  0.00    +0.077 A 
ATOM      5  C   UNL     1      32.102  23.583   8.740  0.00  0.00    +0.048 A 
ATOM      6  C   UNL     1      31.642  23.567   7.403  0.00  0.00    +0.116 A 
ATOM      7  N   UNL     1      32.251  24.357   6.452  0.00  0.00    -0.223 NA
ATOM      8  C   UNL     1      33.314  25.178   6.781  0.00  0.00    +0.220 A 
ATOM      9  N   UNL     1      33.946  25.975   5.839  0.00  0.00    -0.283 N 
ATOM     36  H   UNL     1      34.722  26.572   6.123  0.00  0.00    +0.155 HD
ATOM     37  N   UNL     1      33.770  25.213   8.051  0.00  0.00    -0.214 NA
BRANCH   4   3
ATOM      1  C   UNL     1      33.908  24.015  12.870  0.00  0.00    +0.020 A 
ATOM      2  C   UNL     1      33.290  23.859  11.573  0.00  0.00    +0.013 A 
ATOM      3  C   UNL     1      33.808  24.570  10.411  0.00  0.00    +0.019 A 
ATOM     38  C   UNL     1      34.962  25.437  10.596  0.00  0.00    +0.120 A 
ATOM     39  N   UNL     1      35.535  25.569  11.857  0.00  0.00    -0.263 NA
ATOM     40  C   UNL     1      35.044  24.891  12.983  0.00  0.00    +0.111 A 
ENDBRANCH   4   3
ENDBRANCH  10   9
BRANCH  12  13
ATOM     13  N   UNL     1      30.729  27.468   2.350  0.00  0.00    -0.281 N 
ATOM     14  C   UNL     1      29.408  27.054   2.368  0.00  0.00    +0.248 C 
ATOM     30  O   UNL     1      29.047  25.901   2.554  0.00  0.00    -0.270 OA
ATOM     31  H   UNL     1      30.899  28.408   1.992  0.00  0.00    +0.155 HD
BRANCH  14  15
ATOM     15  C   UNL     1      28.331  28.063   2.131  0.00  0.00    +0.037 A 
ATOM     16  C   UNL     1      28.486  29.455   2.562  0.00  0.00    +0.013 A 
ATOM     17  C   UNL     1      27.425  30.404   2.336  0.00  0.00    +0.005 A 
ATOM     18  C   UNL     1      26.199  29.964   1.673  0.00  0.00    -0.033 A 
ATOM     28  C   UNL     1      26.075  28.579   1.251  0.00  0.00    +0.005 A 
ATOM     29  C   UNL     1      27.112  27.645   1.472  0.00  0.00    +0.013 A 
BRANCH  18  19
ATOM     19  C   UNL     1      25.007  30.903   1.410  0.00  0.00    +0.119 C 
BRANCH  19  20
ATOM     20  N   UNL     1      23.877  30.864   2.385  0.00  0.00    -0.302 NA
ATOM     21  C   UNL     1      24.244  30.095   3.658  0.00  0.00    +0.066 C 
ATOM     22  C   UNL     1      23.058  30.083   4.677  0.00  0.00    -0.064 C 
ATOM     23  N   UNL     1      21.823  29.472   4.011  0.00  0.00    +0.379 N 
ATOM     24  C   UNL     1      20.724  29.406   4.985  0.00  0.00    -0.096 C 
ATOM     25  H   UNL     1      22.079  28.428   3.719  0.00  0.00    -0.082 HD
ATOM     26  C   UNL     1      21.454  30.229   2.744  0.00  0.00    -0.064 C 
ATOM     27  C   UNL     1      22.649  30.260   1.750  0.00  0.00    +0.066 C 
ENDBRANCH  19  20
ENDBRANCH  18  19
ENDBRANCH  14  15
ENDBRANCH  12  13
TORSDOF 6
ENDMDL
