MODEL 1
REMARK VINA RESULT:      -2.9      0.000      0.000
REMARK  Name = C:\Users\Docking\Desktop\test protocol\1iep_ligandH.pdb
REMARK  8 active torsions:
REMARK  status: ('A' for Active; 'I' for Inactive)
REMARK    1  A    between atoms: _5  and  _11
REMARK    2  A    between atoms: _19  and  _21
REMARK    3  A    between atoms: _22  and  _66
REMARK    4  A    between atoms: _27  and  _30
REMARK    5  A    between atoms: _32  and  _33
REMARK    6  A    between atoms: _38  and  _43
REMARK    7  A    between atoms: _43  and  _46
REMARK    8  A    between atoms: _53  and  _55
REMARK                            x       y       z     vdW  Elec       q    Type
REMARK                         _______ _______ _______ _____ _____    ______ ____
ROOT
ATOM     10  C   UNL     1       5.204  49.083  91.112  0.00  0.00    +0.038 A 
ATOM     11  C   UNL     1       6.533  48.588  91.162  0.00  0.00    +0.047 A 
ATOM     12  C   UNL     1       6.890  47.479  92.032  0.00  0.00    +0.035 A 
ATOM     32  C   UNL     1       5.868  46.895  92.836  0.00  0.00    +0.024 A 
ATOM     33  C   UNL     1       4.513  47.386  92.799  0.00  0.00    +0.007 A 
ATOM     34  C   UNL     1       4.155  48.482  91.944  0.00  0.00    -0.029 A 
ATOM     35  C   UNL     1       2.688  48.972  91.949  0.00  0.00    +0.045 C 
ENDROOT
BRANCH  10   9
ATOM      4  C   UNL     1       4.892  53.778  90.162  0.00  0.00    +0.077 A 
ATOM      5  C   UNL     1       5.311  54.134  91.487  0.00  0.00    +0.048 A 
ATOM      6  C   UNL     1       5.590  53.079  92.385  0.00  0.00    +0.116 A 
ATOM      7  N   UNL     1       5.457  51.770  91.977  0.00  0.00    -0.223 NA
ATOM      8  C   UNL     1       5.050  51.461  90.692  0.00  0.00    +0.220 A 
ATOM      9  N   UNL     1       4.917  50.151  90.258  0.00  0.00    -0.283 N 
ATOM     36  H   UNL     1       4.607  49.964  89.305  0.00  0.00    +0.155 HD
ATOM     37  N   UNL     1       4.775  52.450  89.817  0.00  0.00    -0.214 NA
BRANCH   4   3
ATOM      1  C   UNL     1       4.578  57.115  88.145  0.00  0.00    +0.020 A 
ATOM      2  C   UNL     1       4.918  56.189  89.201  0.00  0.00    +0.013 A 
ATOM      3  C   UNL     1       4.564  54.779  89.098  0.00  0.00    +0.019 A 
ATOM     38  C   UNL     1       3.861  54.334  87.904  0.00  0.00    +0.120 A 
ATOM     39  N   UNL     1       3.546  55.249  86.904  0.00  0.00    -0.263 NA
ATOM     40  C   UNL     1       3.880  56.608  86.993  0.00  0.00    +0.111 A 
ENDBRANCH   4   3
ENDBRANCH  10   9
BRANCH  12  13
ATOM     13  N   UNL     1       8.223  46.939  92.131  0.00  0.00    -0.281 N 
ATOM     14  C   UNL     1       9.173  47.189  93.109  0.00  0.00    +0.248 C 
ATOM     30  O   UNL     1       9.094  48.085  93.936  0.00  0.00    -0.270 OA
ATOM     31  H   UNL     1       8.501  46.295  91.391  0.00  0.00    +0.155 HD
BRANCH  14  15
ATOM     15  C   UNL     1      10.393  46.327  93.167  0.00  0.00    +0.037 A 
ATOM     16  C   UNL     1      10.314  44.925  93.584  0.00  0.00    +0.013 A 
ATOM     17  C   UNL     1      11.508  44.121  93.648  0.00  0.00    +0.005 A 
ATOM     18  C   UNL     1      12.793  44.718  93.292  0.00  0.00    -0.033 A 
ATOM     28  C   UNL     1      12.842  46.110  92.876  0.00  0.00    +0.005 A 
ATOM     29  C   UNL     1      11.673  46.901  92.813  0.00  0.00    +0.013 A 
BRANCH  18  19
ATOM     19  C   UNL     1      14.121  43.941  93.351  0.00  0.00    +0.119 C 
BRANCH  19  20
ATOM     20  N   UNL     1      14.106  42.523  92.882  0.00  0.00    -0.302 NA
ATOM     21  C   UNL     1      15.326  41.741  93.376  0.00  0.00    +0.066 C 
ATOM     22  C   UNL     1      15.282  40.254  92.895  0.00  0.00    -0.064 C 
ATOM     23  N   UNL     1      15.198  40.217  91.368  0.00  0.00    +0.379 N 
ATOM     24  C   UNL     1      15.215  38.821  90.909  0.00  0.00    -0.096 C 
ATOM     25  H   UNL     1      16.110  40.717  90.967  0.00  0.00    -0.082 HD
ATOM     26  C   UNL     1      13.989  40.995  90.868  0.00  0.00    -0.064 C 
ATOM     27  C   UNL     1      14.027  42.463  91.376  0.00  0.00    +0.066 C 
ENDBRANCH  19  20
ENDBRANCH  18  19
ENDBRANCH  14  15
ENDBRANCH  12  13
TORSDOF 6
ENDMDL
MODEL 2
REMARK VINA RESULT:      -2.9      4.590      7.330
REMARK  Name = C:\Users\Docking\Desktop\test protocol\1iep_ligandH.pdb
REMARK  8 active torsions:
REMARK  status: ('A' for Active; 'I' for Inactive)
REMARK    1  A    between atoms: _5  and  _11
REMARK    2  A    between atoms: _19  and  _21
REMARK    3  A    between atoms: _22  and  _66
REMARK    4  A    between atoms: _27  and  _30
REMARK    5  A    between atoms: _32  and  _33
REMARK    6  A    between atoms: _38  and  _43
REMARK    7  A    between atoms: _43  and  _46
REMARK    8  A    between atoms: _53  and  _55
REMARK                            x       y       z     vdW  Elec       q    Type
REMARK                         _______ _______ _______ _____ _____    ______ ____
ROOT
ATOM     10  C   UNL     1       9.754  46.371  93.221  0.00  0.00    +0.038 A 
ATOM     11  C   UNL     1      10.061  45.148  93.869  0.00  0.00    +0.047 A 
ATOM     12  C   UNL     1      11.305  44.976  94.603  0.00  0.00    +0.035 A 
ATOM     32  C   UNL     1      12.212  46.074  94.660  0.00  0.00    +0.024 A 
ATOM     33  C   UNL     1      11.917  47.325  94.007  0.00  0.00    +0.007 A 
ATOM     34  C   UNL     1      10.693  47.499  93.278  0.00  0.00    -0.029 A 
ATOM     35  C   UNL     1      10.431  48.859  92.592  0.00  0.00    +0.045 C 
ENDROOT
BRANCH  10   9
ATOM      4  C   UNL     1       5.103  47.531  92.985  0.00  0.00    +0.077 A 
ATOM      5  C   UNL     1       5.071  47.928  94.364  0.00  0.00    +0.048 A 
ATOM      6  C   UNL     1       6.271  47.811  95.100  0.00  0.00    +0.116 A 
ATOM      7  N   UNL     1       7.412  47.333  94.493  0.00  0.00    -0.223 NA
ATOM      8  C   UNL     1       7.408  46.957  93.162  0.00  0.00    +0.220 A 
ATOM      9  N   UNL     1       8.546  46.481  92.529  0.00  0.00    -0.283 N 
ATOM     36  H   UNL     1       8.500  46.207  91.548  0.00  0.00    +0.155 HD
ATOM     37  N   UNL     1       6.274  47.058  92.438  0.00  0.00    -0.214 NA
BRANCH   4   3
ATOM      1  C   UNL     1       2.163  46.538  90.604  0.00  0.00    +0.020 A 
ATOM      2  C   UNL     1       3.308  46.417  91.476  0.00  0.00    +0.013 A 
ATOM      3  C   UNL     1       3.916  47.599  92.075  0.00  0.00    +0.019 A 
ATOM     38  C   UNL     1       3.335  48.898  91.769  0.00  0.00    +0.120 A 
ATOM     39  N   UNL     1       2.233  48.983  90.924  0.00  0.00    -0.263 NA
ATOM     40  C   UNL     1       1.641  47.853  90.341  0.00  0.00    +0.111 A 
ENDBRANCH   4   3
ENDBRANCH  10   9
BRANCH  12  13
ATOM     13  N   UNL     1      11.674  43.755  95.274  0.00  0.00    -0.281 N 
ATOM     14  C   UNL     1      11.750  43.521  96.637  0.00  0.00    +0.248 C 
ATOM     30  O   UNL     1      11.718  44.395  97.491  0.00  0.00    -0.270 OA
ATOM     31  H   UNL     1      11.908  42.966  94.670  0.00  0.00    +0.155 HD
BRANCH  14  15
ATOM     15  C   UNL     1      11.898  42.115  97.122  0.00  0.00    +0.037 A 
ATOM     16  C   UNL     1      10.897  41.505  98.001  0.00  0.00    +0.013 A 
ATOM     17  C   UNL     1      11.073  40.152  98.468  0.00  0.00    +0.005 A 
ATOM     18  C   UNL     1      12.254  39.400  98.054  0.00  0.00    -0.033 A 
ATOM     28  C   UNL     1      13.229  40.027  97.177  0.00  0.00    +0.005 A 
ATOM     29  C   UNL     1      13.061  41.353  96.718  0.00  0.00    +0.013 A 
BRANCH  18  19
ATOM     19  C   UNL     1      12.533  37.958  98.520  0.00  0.00    +0.119 C 
BRANCH  19  20
ATOM     20  N   UNL     1      11.744  36.866  97.877  0.00  0.00    -0.302 NA
ATOM     21  C   UNL     1      11.494  37.137  96.390  0.00  0.00    +0.066 C 
ATOM     22  C   UNL     1      10.687  35.974  95.728  0.00  0.00    -0.064 C 
ATOM     23  N   UNL     1       9.364  35.786  96.473  0.00  0.00    +0.379 N 
ATOM     24  C   UNL     1       8.577  34.732  95.817  0.00  0.00    -0.096 C 
ATOM     25  H   UNL     1       8.791  36.738  96.390  0.00  0.00    -0.082 HD
ATOM     26  C   UNL     1       9.603  35.519  97.953  0.00  0.00    -0.064 C 
ATOM     27  C   UNL     1      10.432  36.666  98.595  0.00  0.00    +0.066 C 
ENDBRANCH  19  20
ENDBRANCH  18  19
ENDBRANCH  14  15
ENDBRANCH  12  13
TORSDOF 6
ENDMDL
MODEL 3
REMARK VINA RESULT:      -2.8      6.748     11.787
REMARK  Name = C:\Users\Docking\Desktop\test protocol\1iep_ligandH.pdb
REMARK  8 active torsions:
REMARK  status: ('A' for Active; 'I' for Inactive)
REMARK    1  A    between atoms: _5  and  _11
REMARK    2  A    between atoms: _19  and  _21
REMARK    3  A    between atoms: _22  and  _66
REMARK    4  A    between atoms: _27  and  _30
REMARK    5  A    between atoms: _32  and  _33
REMARK    6  A    between atoms: _38  and  _43
REMARK    7  A    between atoms: _43  and  _46
REMARK    8  A    between atoms: _53  and  _55
REMARK                            x       y       z     vdW  Elec       q    Type
REMARK                         _______ _______ _______ _____ _____    ______ ____
ROOT
ATOM     10  C   UNL     1       6.327  42.399  95.276  0.00  0.00    +0.038 A 
ATOM     11  C   UNL     1       7.037  43.204  94.349  0.00  0.00    +0.047 A 
ATOM     12  C   UNL     1       7.294  44.611  94.615  0.00  0.00    +0.035 A 
ATOM     32  C   UNL     1       6.815  45.165  95.838  0.00  0.00    +0.024 A 
ATOM     33  C   UNL     1       6.090  44.362  96.791  0.00  0.00    +0.007 A 
ATOM     34  C   UNL     1       5.832  42.975  96.533  0.00  0.00    -0.029 A 
ATOM     35  C   UNL     1       5.044  42.163  97.587  0.00  0.00    +0.045 C 
ENDROOT
BRANCH  10   9
ATOM      4  C   UNL     1       3.700  38.866  93.366  0.00  0.00    +0.077 A 
ATOM      5  C   UNL     1       2.662  39.773  92.968  0.00  0.00    +0.048 A 
ATOM      6  C   UNL     1       2.839  41.139  93.281  0.00  0.00    +0.116 A 
ATOM      7  N   UNL     1       3.974  41.557  93.941  0.00  0.00    -0.223 NA
ATOM      8  C   UNL     1       4.956  40.656  94.312  0.00  0.00    +0.220 A 
ATOM      9  N   UNL     1       6.109  41.054  94.969  0.00  0.00    -0.283 N 
ATOM     36  H   UNL     1       6.806  40.358  95.232  0.00  0.00    +0.155 HD
ATOM     37  N   UNL     1       4.809  39.345  94.026  0.00  0.00    -0.214 NA
BRANCH   4   3
ATOM      1  C   UNL     1       2.548  35.309  92.217  0.00  0.00    +0.020 A 
ATOM      2  C   UNL     1       2.537  36.735  92.446  0.00  0.00    +0.013 A 
ATOM      3  C   UNL     1       3.660  37.392  93.104  0.00  0.00    +0.019 A 
ATOM     38  C   UNL     1       4.787  36.571  93.519  0.00  0.00    +0.120 A 
ATOM     39  N   UNL     1       4.769  35.200  93.286  0.00  0.00    -0.263 NA
ATOM     40  C   UNL     1       3.694  34.556  92.656  0.00  0.00    +0.111 A 
ENDBRANCH   4   3
ENDBRANCH  10   9
BRANCH  12  13
ATOM     13  N   UNL     1       8.003  45.479  93.708  0.00  0.00    -0.281 N 
ATOM     14  C   UNL     1       7.530  46.616  93.073  0.00  0.00    +0.248 C 
ATOM     30  O   UNL     1       6.353  46.941  93.024  0.00  0.00    -0.270 OA
ATOM     31  H   UNL     1       8.970  45.224  93.509  0.00  0.00    +0.155 HD
BRANCH  14  15
ATOM     15  C   UNL     1       8.504  47.514  92.382  0.00  0.00    +0.037 A 
ATOM     16  C   UNL     1       8.053  48.539  91.436  0.00  0.00    +0.013 A 
ATOM     17  C   UNL     1       9.015  49.381  90.770  0.00  0.00    +0.005 A 
ATOM     18  C   UNL     1      10.438  49.203  91.049  0.00  0.00    -0.033 A 
ATOM     28  C   UNL     1      10.857  48.182  91.995  0.00  0.00    +0.005 A 
ATOM     29  C   UNL     1       9.917  47.354  92.649  0.00  0.00    +0.013 A 
BRANCH  18  19
ATOM     19  C   UNL     1      11.535  50.042  90.368  0.00  0.00    +0.119 C 
BRANCH  19  20
ATOM     20  N   UNL     1      11.279  50.496  88.968  0.00  0.00    -0.302 NA
ATOM     21  C   UNL     1      12.298  49.919  87.982  0.00  0.00    +0.066 C 
ATOM     22  C   UNL     1      12.002  50.386  86.519  0.00  0.00    -0.064 C 
ATOM     23  N   UNL     1      12.002  51.914  86.465  0.00  0.00    +0.379 N 
ATOM     24  C   UNL     1      11.782  52.356  85.081  0.00  0.00    -0.096 C 
ATOM     25  H   UNL     1      13.015  52.264  86.775  0.00  0.00    -0.082 HD
ATOM     26  C   UNL     1      10.994  52.497  87.445  0.00  0.00    -0.064 C 
ATOM     27  C   UNL     1      11.279  52.003  88.891  0.00  0.00    +0.066 C 
ENDBRANCH  19  20
ENDBRANCH  18  19
ENDBRANCH  14  15
ENDBRANCH  12  13
TORSDOF 6
ENDMDL
