MODEL 1
REMARK VINA RESULT:      -8.5      0.000      0.000
REMARK  Name = C:\Users\Docking\Desktop\test protocol\1iep_ligandH.pdb
REMARK  8 active torsions:
REMARK  status: ('A' for Active; 'I' for Inactive)
REMARK    1  A    between atoms: _5  and  _11
REMARK    2  A    between atoms: _19  and  _21
REMARK    3  A    between atoms: _22  and  _66
REMARK    4  A    between atoms: _27  and  _30
REMARK    5  A    between atoms: _32  and  _33
REMARK    6  A    between atoms: _38  and  _43
REMARK    7  A    between atoms: _43  and  _46
REMARK    8  A    between atoms: _53  and  _55
REMARK                            x       y       z     vdW  Elec       q    Type
REMARK                         _______ _______ _______ _____ _____    ______ ____
ROOT
ATOM     10  C   UNL     1      19.164  41.446  14.625  0.00  0.00    +0.038 A 
ATOM     11  C   UNL     1      18.487  40.299  14.140  0.00  0.00    +0.047 A 
ATOM     12  C   UNL     1      17.640  39.500  15.011  0.00  0.00    +0.035 A 
ATOM     32  C   UNL     1      17.502  39.900  16.372  0.00  0.00    +0.024 A 
ATOM     33  C   UNL     1      18.184  41.063  16.883  0.00  0.00    +0.007 A 
ATOM     34  C   UNL     1      19.023  41.854  16.029  0.00  0.00    -0.029 A 
ATOM     35  C   UNL     1      19.735  43.087  16.632  0.00  0.00    +0.045 C 
ENDROOT
BRANCH  10   9
ATOM      4  C   UNL     1      19.765  44.788  11.233  0.00  0.00    +0.077 A 
ATOM      5  C   UNL     1      18.362  45.084  11.193  0.00  0.00    +0.048 A 
ATOM      6  C   UNL     1      17.518  44.349  12.056  0.00  0.00    +0.116 A 
ATOM      7  N   UNL     1      18.050  43.392  12.893  0.00  0.00    -0.223 NA
ATOM      8  C   UNL     1      19.407  43.130  12.905  0.00  0.00    +0.220 A 
ATOM      9  N   UNL     1      19.964  42.177  13.745  0.00  0.00    -0.283 N 
ATOM     36  H   UNL     1      20.969  42.008  13.719  0.00  0.00    +0.155 HD
ATOM     37  N   UNL     1      20.233  43.817  12.090  0.00  0.00    -0.214 NA
BRANCH   4   3
ATOM      1  C   UNL     1      22.493  47.290   9.970  0.00  0.00    +0.020 A 
ATOM      2  C   UNL     1      21.519  46.658  10.830  0.00  0.00    +0.013 A 
ATOM      3  C   UNL     1      20.784  45.482  10.383  0.00  0.00    +0.019 A 
ATOM     38  C   UNL     1      21.061  44.965   9.051  0.00  0.00    +0.120 A 
ATOM     39  N   UNL     1      22.003  45.596   8.245  0.00  0.00    -0.263 NA
ATOM     40  C   UNL     1      22.716  46.730   8.664  0.00  0.00    +0.111 A 
ENDBRANCH   4   3
ENDBRANCH  10   9
BRANCH  12  13
ATOM     13  N   UNL     1      16.934  38.320  14.576  0.00  0.00    -0.281 N 
ATOM     14  C   UNL     1      15.894  38.237  13.665  0.00  0.00    +0.248 C 
ATOM     30  O   UNL     1      15.267  39.197  13.243  0.00  0.00    -0.270 OA
ATOM     31  H   UNL     1      17.238  37.439  14.991  0.00  0.00    +0.155 HD
BRANCH  14  15
ATOM     15  C   UNL     1      15.482  36.892  13.161  0.00  0.00    +0.037 A 
ATOM     16  C   UNL     1      14.190  36.306  13.527  0.00  0.00    +0.013 A 
ATOM     17  C   UNL     1      13.824  34.999  13.041  0.00  0.00    +0.005 A 
ATOM     18  C   UNL     1      14.752  34.270  12.180  0.00  0.00    -0.033 A 
ATOM     28  C   UNL     1      16.024  34.877  11.828  0.00  0.00    +0.005 A 
ATOM     29  C   UNL     1      16.387  36.157  12.304  0.00  0.00    +0.013 A 
BRANCH  18  19
ATOM     19  C   UNL     1      14.453  32.862  11.632  0.00  0.00    +0.119 C 
BRANCH  19  20
ATOM     20  N   UNL     1      15.028  32.510  10.300  0.00  0.00    -0.302 NA
ATOM     21  C   UNL     1      13.965  31.970   9.339  0.00  0.00    +0.066 C 
ATOM     22  C   UNL     1      14.580  31.629   7.943  0.00  0.00    -0.064 C 
ATOM     23  N   UNL     1      15.713  30.616   8.122  0.00  0.00    +0.379 N 
ATOM     24  C   UNL     1      16.255  30.249   6.805  0.00  0.00    -0.096 C 
ATOM     25  H   UNL     1      15.276  29.697   8.576  0.00  0.00    -0.082 HD
ATOM     26  C   UNL     1      16.773  31.144   9.078  0.00  0.00    -0.064 C 
ATOM     27  C   UNL     1      16.146  31.508  10.453  0.00  0.00    +0.066 C 
ENDBRANCH  19  20
ENDBRANCH  18  19
ENDBRANCH  14  15
ENDBRANCH  12  13
TORSDOF 6
ENDMDL
MODEL 2
REMARK VINA RESULT:      -8.4      1.589      2.154
REMARK  Name = C:\Users\Docking\Desktop\test protocol\1iep_ligandH.pdb
REMARK  8 active torsions:
REMARK  status: ('A' for Active; 'I' for Inactive)
REMARK    1  A    between atoms: _5  and  _11
REMARK    2  A    between atoms: _19  and  _21
REMARK    3  A    between atoms: _22  and  _66
REMARK    4  A    between atoms: _27  and  _30
REMARK    5  A    between atoms: _32  and  _33
REMARK    6  A    between atoms: _38  and  _43
REMARK    7  A    between atoms: _43  and  _46
REMARK    8  A    between atoms: _53  and  _55
REMARK                            x       y       z     vdW  Elec       q    Type
REMARK                         _______ _______ _______ _____ _____    ______ ____
ROOT
ATOM     10  C   UNL     1      19.088  41.422  14.847  0.00  0.00    +0.038 A 
ATOM     11  C   UNL     1      18.440  40.276  14.320  0.00  0.00    +0.047 A 
ATOM     12  C   UNL     1      17.573  39.453  15.149  0.00  0.00    +0.035 A 
ATOM     32  C   UNL     1      17.385  39.829  16.511  0.00  0.00    +0.024 A 
ATOM     33  C   UNL     1      18.037  40.990  17.064  0.00  0.00    +0.007 A 
ATOM     34  C   UNL     1      18.896  41.804  16.251  0.00  0.00    -0.029 A 
ATOM     35  C   UNL     1      19.574  43.034  16.899  0.00  0.00    +0.045 C 
ENDROOT
BRANCH  10   9
ATOM      4  C   UNL     1      19.754  44.720  11.424  0.00  0.00    +0.077 A 
ATOM      5  C   UNL     1      18.344  44.941  11.280  0.00  0.00    +0.048 A 
ATOM      6  C   UNL     1      17.481  44.181  12.101  0.00  0.00    +0.116 A 
ATOM      7  N   UNL     1      18.001  43.270  12.995  0.00  0.00    -0.223 NA
ATOM      8  C   UNL     1      19.366  43.080  13.108  0.00  0.00    +0.220 A 
ATOM      9  N   UNL     1      19.910  42.175  14.006  0.00  0.00    -0.283 N 
ATOM     36  H   UNL     1      20.922  42.059  14.054  0.00  0.00    +0.155 HD
ATOM     37  N   UNL     1      20.211  43.793  12.334  0.00  0.00    -0.214 NA
BRANCH   4   3
ATOM      1  C   UNL     1      22.243  45.751   8.588  0.00  0.00    +0.020 A 
ATOM      2  C   UNL     1      21.236  45.010   9.313  0.00  0.00    +0.013 A 
ATOM      3  C   UNL     1      20.794  45.449  10.631  0.00  0.00    +0.019 A 
ATOM     38  C   UNL     1      21.395  46.650  11.191  0.00  0.00    +0.120 A 
ATOM     39  N   UNL     1      22.363  47.341  10.470  0.00  0.00    -0.263 NA
ATOM     40  C   UNL     1      22.798  46.928   9.201  0.00  0.00    +0.111 A 
ENDBRANCH   4   3
ENDBRANCH  10   9
BRANCH  12  13
ATOM     13  N   UNL     1      16.895  38.274  14.670  0.00  0.00    -0.281 N 
ATOM     14  C   UNL     1      15.912  38.192  13.698  0.00  0.00    +0.248 C 
ATOM     30  O   UNL     1      15.311  39.153  13.240  0.00  0.00    -0.270 OA
ATOM     31  H   UNL     1      17.174  37.392  15.101  0.00  0.00    +0.155 HD
BRANCH  14  15
ATOM     15  C   UNL     1      15.531  36.847  13.168  0.00  0.00    +0.037 A 
ATOM     16  C   UNL     1      14.260  36.218  13.536  0.00  0.00    +0.013 A 
ATOM     17  C   UNL     1      13.924  34.913  13.024  0.00  0.00    +0.005 A 
ATOM     18  C   UNL     1      14.862  34.229  12.137  0.00  0.00    -0.033 A 
ATOM     28  C   UNL     1      16.113  34.879  11.784  0.00  0.00    +0.005 A 
ATOM     29  C   UNL     1      16.446  36.157  12.284  0.00  0.00    +0.013 A 
BRANCH  18  19
ATOM     19  C   UNL     1      14.596  32.826  11.560  0.00  0.00    +0.119 C 
BRANCH  19  20
ATOM     20  N   UNL     1      15.198  31.665  12.282  0.00  0.00    -0.302 NA
ATOM     21  C   UNL     1      16.683  31.491  11.952  0.00  0.00    +0.066 C 
ATOM     22  C   UNL     1      17.302  30.286  12.733  0.00  0.00    -0.064 C 
ATOM     23  N   UNL     1      16.522  29.013  12.402  0.00  0.00    +0.379 N 
ATOM     24  C   UNL     1      17.137  27.868  13.089  0.00  0.00    -0.096 C 
ATOM     25  H   UNL     1      16.611  28.837  11.305  0.00  0.00    -0.082 HD
ATOM     26  C   UNL     1      15.043  29.178  12.724  0.00  0.00    -0.064 C 
ATOM     27  C   UNL     1      14.445  30.396  11.966  0.00  0.00    +0.066 C 
ENDBRANCH  19  20
ENDBRANCH  18  19
ENDBRANCH  14  15
ENDBRANCH  12  13
TORSDOF 6
ENDMDL
MODEL 3
REMARK VINA RESULT:      -7.1      5.712     12.874
REMARK  Name = C:\Users\Docking\Desktop\test protocol\1iep_ligandH.pdb
REMARK  8 active torsions:
REMARK  status: ('A' for Active; 'I' for Inactive)
REMARK    1  A    between atoms: _5  and  _11
REMARK    2  A    between atoms: _19  and  _21
REMARK    3  A    between atoms: _22  and  _66
REMARK    4  A    between atoms: _27  and  _30
REMARK    5  A    between atoms: _32  and  _33
REMARK    6  A    between atoms: _38  and  _43
REMARK    7  A    between atoms: _43  and  _46
REMARK    8  A    between atoms: _53  and  _55
REMARK                            x       y       z     vdW  Elec       q    Type
REMARK                         _______ _______ _______ _____ _____    ______ ____
ROOT
ATOM     10  C   UNL     1      17.845  29.142  12.892  0.00  0.00    +0.038 A 
ATOM     11  C   UNL     1      17.750  30.557  12.877  0.00  0.00    +0.047 A 
ATOM     12  C   UNL     1      16.460  31.226  12.955  0.00  0.00    +0.035 A 
ATOM     32  C   UNL     1      15.287  30.422  13.051  0.00  0.00    +0.024 A 
ATOM     33  C   UNL     1      15.365  28.982  13.066  0.00  0.00    +0.007 A 
ATOM     34  C   UNL     1      16.635  28.317  12.986  0.00  0.00    -0.029 A 
ATOM     35  C   UNL     1      16.658  26.771  13.000  0.00  0.00    +0.045 C 
ENDROOT
BRANCH  10   9
ATOM      4  C   UNL     1      22.403  28.698  14.328  0.00  0.00    +0.077 A 
ATOM      5  C   UNL     1      22.262  29.747  15.297  0.00  0.00    +0.048 A 
ATOM      6  C   UNL     1      21.002  30.380  15.389  0.00  0.00    +0.116 A 
ATOM      7  N   UNL     1      19.968  29.985  14.569  0.00  0.00    -0.223 NA
ATOM      8  C   UNL     1      20.138  28.972  13.644  0.00  0.00    +0.220 A 
ATOM      9  N   UNL     1      19.109  28.553  12.814  0.00  0.00    -0.283 N 
ATOM     36  H   UNL     1      19.277  27.807  12.140  0.00  0.00    +0.155 HD
ATOM     37  N   UNL     1      21.332  28.352  13.535  0.00  0.00    -0.214 NA
BRANCH   4   3
ATOM      1  C   UNL     1      25.491  26.986  12.644  0.00  0.00    +0.020 A 
ATOM      2  C   UNL     1      24.264  27.734  12.797  0.00  0.00    +0.013 A 
ATOM      3  C   UNL     1      23.671  27.932  14.113  0.00  0.00    +0.019 A 
ATOM     38  C   UNL     1      24.350  27.355  15.264  0.00  0.00    +0.120 A 
ATOM     39  N   UNL     1      25.529  26.639  15.087  0.00  0.00    -0.263 NA
ATOM     40  C   UNL     1      26.109  26.441  13.824  0.00  0.00    +0.111 A 
ENDBRANCH   4   3
ENDBRANCH  10   9
BRANCH  12  13
ATOM     13  N   UNL     1      16.301  32.659  12.937  0.00  0.00    -0.281 N 
ATOM     14  C   UNL     1      15.194  33.388  12.534  0.00  0.00    +0.248 C 
ATOM     30  O   UNL     1      14.244  32.921  11.923  0.00  0.00    -0.270 OA
ATOM     31  H   UNL     1      17.102  33.202  13.260  0.00  0.00    +0.155 HD
BRANCH  14  15
ATOM     15  C   UNL     1      15.141  34.850  12.840  0.00  0.00    +0.037 A 
ATOM     16  C   UNL     1      13.979  35.445  13.504  0.00  0.00    +0.013 A 
ATOM     17  C   UNL     1      13.946  36.861  13.772  0.00  0.00    +0.005 A 
ATOM     18  C   UNL     1      15.082  37.691  13.378  0.00  0.00    -0.033 A 
ATOM     28  C   UNL     1      16.225  37.073  12.726  0.00  0.00    +0.005 A 
ATOM     29  C   UNL     1      16.260  35.686  12.460  0.00  0.00    +0.013 A 
BRANCH  18  19
ATOM     19  C   UNL     1      15.124  39.214  13.607  0.00  0.00    +0.119 C 
BRANCH  19  20
ATOM     20  N   UNL     1      16.445  39.893  13.446  0.00  0.00    -0.302 NA
ATOM     21  C   UNL     1      17.279  39.838  14.729  0.00  0.00    +0.066 C 
ATOM     22  C   UNL     1      18.666  40.533  14.536  0.00  0.00    -0.064 C 
ATOM     23  N   UNL     1      18.450  41.981  14.091  0.00  0.00    +0.379 N 
ATOM     24  C   UNL     1      19.751  42.655  13.965  0.00  0.00    -0.096 C 
ATOM     25  H   UNL     1      17.877  42.499  14.895  0.00  0.00    -0.082 HD
ATOM     26  C   UNL     1      17.619  42.045  12.818  0.00  0.00    -0.064 C 
ATOM     27  C   UNL     1      16.255  41.325  13.011  0.00  0.00    +0.066 C 
ENDBRANCH  19  20
ENDBRANCH  18  19
ENDBRANCH  14  15
ENDBRANCH  12  13
TORSDOF 6
ENDMDL
