MODEL 1
REMARK VINA RESULT:      -8.7      0.000      0.000
REMARK  Name = C:\Users\Docking\Desktop\test protocol\1iep_ligandH.pdb
REMARK  8 active torsions:
REMARK  status: ('A' for Active; 'I' for Inactive)
REMARK    1  A    between atoms: _5  and  _11
REMARK    2  A    between atoms: _19  and  _21
REMARK    3  A    between atoms: _22  and  _66
REMARK    4  A    between atoms: _27  and  _30
REMARK    5  A    between atoms: _32  and  _33
REMARK    6  A    between atoms: _38  and  _43
REMARK    7  A    between atoms: _43  and  _46
REMARK    8  A    between atoms: _53  and  _55
REMARK                            x       y       z     vdW  Elec       q    Type
REMARK                         _______ _______ _______ _____ _____    ______ ____
ROOT
ATOM     10  C   UNL     1     -11.024  27.979  11.214  0.00  0.00    +0.038 A 
ATOM     11  C   UNL     1     -11.703  28.869  12.085  0.00  0.00    +0.047 A 
ATOM     12  C   UNL     1     -13.093  29.232  11.855  0.00  0.00    +0.035 A 
ATOM     32  C   UNL     1     -13.762  28.669  10.729  0.00  0.00    +0.024 A 
ATOM     33  C   UNL     1     -13.086  27.763   9.833  0.00  0.00    +0.007 A 
ATOM     34  C   UNL     1     -11.715  27.402  10.054  0.00  0.00    -0.029 A 
ATOM     35  C   UNL     1     -11.039  26.432   9.057  0.00  0.00    +0.045 C 
ENDROOT
BRANCH  10   9
ATOM      4  C   UNL     1      -6.334  28.994  11.119  0.00  0.00    +0.077 A 
ATOM      5  C   UNL     1      -6.558  30.245  10.455  0.00  0.00    +0.048 A 
ATOM      6  C   UNL     1      -7.895  30.587  10.149  0.00  0.00    +0.116 A 
ATOM      7  N   UNL     1      -8.922  29.734  10.487  0.00  0.00    -0.223 NA
ATOM      8  C   UNL     1      -8.671  28.534  11.126  0.00  0.00    +0.220 A 
ATOM      9  N   UNL     1      -9.690  27.664  11.482  0.00  0.00    -0.283 N 
ATOM     36  H   UNL     1      -9.463  26.784  11.946  0.00  0.00    +0.155 HD
ATOM     37  N   UNL     1      -7.404  28.183  11.427  0.00  0.00    -0.214 NA
BRANCH   4   3
ATOM      1  C   UNL     1      -2.609  27.808  10.984  0.00  0.00    +0.020 A 
ATOM      2  C   UNL     1      -3.900  28.293  10.552  0.00  0.00    +0.013 A 
ATOM      3  C   UNL     1      -4.979  28.494  11.512  0.00  0.00    +0.019 A 
ATOM     38  C   UNL     1      -4.716  28.194  12.911  0.00  0.00    +0.120 A 
ATOM     39  N   UNL     1      -3.463  27.727  13.297  0.00  0.00    -0.263 NA
ATOM     40  C   UNL     1      -2.418  27.528  12.382  0.00  0.00    +0.111 A 
ENDBRANCH   4   3
ENDBRANCH  10   9
BRANCH  12  13
ATOM     13  N   UNL     1     -13.832  30.137  12.700  0.00  0.00    -0.281 N 
ATOM     14  C   UNL     1     -13.836  31.522  12.666  0.00  0.00    +0.248 C 
ATOM     30  O   UNL     1     -13.036  32.201  12.039  0.00  0.00    -0.270 OA
ATOM     31  H   UNL     1     -14.423  29.704  13.409  0.00  0.00    +0.155 HD
BRANCH  14  15
ATOM     15  C   UNL     1     -14.870  32.260  13.454  0.00  0.00    +0.037 A 
ATOM     16  C   UNL     1     -14.636  33.630  13.919  0.00  0.00    +0.013 A 
ATOM     17  C   UNL     1     -15.643  34.313  14.692  0.00  0.00    +0.005 A 
ATOM     18  C   UNL     1     -16.894  33.627  15.004  0.00  0.00    -0.033 A 
ATOM     28  C   UNL     1     -17.102  32.270  14.525  0.00  0.00    +0.005 A 
ATOM     29  C   UNL     1     -16.117  31.597  13.768  0.00  0.00    +0.013 A 
BRANCH  18  19
ATOM     19  C   UNL     1     -18.016  34.271  15.840  0.00  0.00    +0.119 C 
BRANCH  19  20
ATOM     20  N   UNL     1     -19.294  33.511  15.971  0.00  0.00    -0.302 NA
ATOM     21  C   UNL     1     -20.510  34.362  15.596  0.00  0.00    +0.066 C 
ATOM     22  C   UNL     1     -21.837  33.544  15.717  0.00  0.00    -0.064 C 
ATOM     23  N   UNL     1     -21.972  33.006  17.142  0.00  0.00    +0.379 N 
ATOM     24  C   UNL     1     -23.247  32.285  17.275  0.00  0.00    -0.096 C 
ATOM     25  H   UNL     1     -22.004  33.880  17.833  0.00  0.00    -0.082 HD
ATOM     26  C   UNL     1     -20.766  32.160  17.525  0.00  0.00    -0.064 C 
ATOM     27  C   UNL     1     -19.450  32.973  17.373  0.00  0.00    +0.066 C 
ENDBRANCH  19  20
ENDBRANCH  18  19
ENDBRANCH  14  15
ENDBRANCH  12  13
TORSDOF 6
ENDMDL
MODEL 2
REMARK VINA RESULT:      -8.6      9.438     13.960
REMARK  Name = C:\Users\Docking\Desktop\test protocol\1iep_ligandH.pdb
REMARK  8 active torsions:
REMARK  status: ('A' for Active; 'I' for Inactive)
REMARK    1  A    between atoms: _5  and  _11
REMARK    2  A    between atoms: _19  and  _21
REMARK    3  A    between atoms: _22  and  _66
REMARK    4  A    between atoms: _27  and  _30
REMARK    5  A    between atoms: _32  and  _33
REMARK    6  A    between atoms: _38  and  _43
REMARK    7  A    between atoms: _43  and  _46
REMARK    8  A    between atoms: _53  and  _55
REMARK                            x       y       z     vdW  Elec       q    Type
REMARK                         _______ _______ _______ _____ _____    ______ ____
ROOT
ATOM     10  C   UNL     1     -14.068  17.459   8.412  0.00  0.00    +0.038 A 
ATOM     11  C   UNL     1     -13.915  18.738   9.004  0.00  0.00    +0.047 A 
ATOM     12  C   UNL     1     -12.656  19.140   9.611  0.00  0.00    +0.035 A 
ATOM     32  C   UNL     1     -11.572  18.215   9.595  0.00  0.00    +0.024 A 
ATOM     33  C   UNL     1     -11.711  16.910   8.998  0.00  0.00    +0.007 A 
ATOM     34  C   UNL     1     -12.951  16.507   8.400  0.00  0.00    -0.029 A 
ATOM     35  C   UNL     1     -13.045  15.093   7.780  0.00  0.00    +0.045 C 
ENDROOT
BRANCH  10   9
ATOM      4  C   UNL     1     -17.131  17.338   4.719  0.00  0.00    +0.077 A 
ATOM      5  C   UNL     1     -16.211  18.022   3.856  0.00  0.00    +0.048 A 
ATOM      6  C   UNL     1     -14.963  18.394   4.404  0.00  0.00    +0.116 A 
ATOM      7  N   UNL     1     -14.667  18.098   5.717  0.00  0.00    -0.223 NA
ATOM      8  C   UNL     1     -15.578  17.439   6.522  0.00  0.00    +0.220 A 
ATOM      9  N   UNL     1     -15.300  17.125   7.843  0.00  0.00    -0.283 N 
ATOM     36  H   UNL     1     -16.001  16.645   8.406  0.00  0.00    +0.155 HD
ATOM     37  N   UNL     1     -16.778  17.075   6.023  0.00  0.00    -0.214 NA
BRANCH   4   3
ATOM      1  C   UNL     1     -20.058  15.777   2.645  0.00  0.00    +0.020 A 
ATOM      2  C   UNL     1     -18.728  16.202   3.016  0.00  0.00    +0.013 A 
ATOM      3  C   UNL     1     -18.488  16.878   4.285  0.00  0.00    +0.019 A 
ATOM     38  C   UNL     1     -19.625  17.109   5.164  0.00  0.00    +0.120 A 
ATOM     39  N   UNL     1     -20.895  16.690   4.779  0.00  0.00    -0.263 NA
ATOM     40  C   UNL     1     -21.138  16.041   3.560  0.00  0.00    +0.111 A 
ENDBRANCH   4   3
ENDBRANCH  10   9
BRANCH  12  13
ATOM     13  N   UNL     1     -12.444  20.423  10.235  0.00  0.00    -0.281 N 
ATOM     14  C   UNL     1     -12.172  20.688  11.567  0.00  0.00    +0.248 C 
ATOM     30  O   UNL     1     -12.282  19.872  12.470  0.00  0.00    -0.270 OA
ATOM     31  H   UNL     1     -12.501  21.234   9.619  0.00  0.00    +0.155 HD
BRANCH  14  15
ATOM     15  C   UNL     1     -11.728  22.061  11.954  0.00  0.00    +0.037 A 
ATOM     16  C   UNL     1     -10.807  22.275  13.074  0.00  0.00    +0.013 A 
ATOM     17  C   UNL     1     -10.407  23.612  13.437  0.00  0.00    +0.005 A 
ATOM     18  C   UNL     1     -10.929  24.746  12.678  0.00  0.00    -0.033 A 
ATOM     28  C   UNL     1     -11.837  24.505  11.569  0.00  0.00    +0.005 A 
ATOM     29  C   UNL     1     -12.231  23.196  11.211  0.00  0.00    +0.013 A 
BRANCH  18  19
ATOM     19  C   UNL     1     -10.574  26.208  13.008  0.00  0.00    +0.119 C 
BRANCH  19  20
ATOM     20  N   UNL     1     -11.580  27.253  12.654  0.00  0.00    -0.302 NA
ATOM     21  C   UNL     1     -10.946  28.430  11.908  0.00  0.00    +0.066 C 
ATOM     22  C   UNL     1     -12.016  29.504  11.525  0.00  0.00    -0.064 C 
ATOM     23  N   UNL     1     -12.728  29.985  12.790  0.00  0.00    +0.379 N 
ATOM     24  C   UNL     1     -13.694  31.036  12.441  0.00  0.00    -0.096 C 
ATOM     25  H   UNL     1     -11.959  30.440  13.458  0.00  0.00    -0.082 HD
ATOM     26  C   UNL     1     -13.358  28.820  13.540  0.00  0.00    -0.064 C 
ATOM     27  C   UNL     1     -12.291  27.745  13.890  0.00  0.00    +0.066 C 
ENDBRANCH  19  20
ENDBRANCH  18  19
ENDBRANCH  14  15
ENDBRANCH  12  13
TORSDOF 6
ENDMDL
MODEL 3
REMARK VINA RESULT:      -8.6     22.066     25.627
REMARK  Name = C:\Users\Docking\Desktop\test protocol\1iep_ligandH.pdb
REMARK  8 active torsions:
REMARK  status: ('A' for Active; 'I' for Inactive)
REMARK    1  A    between atoms: _5  and  _11
REMARK    2  A    between atoms: _19  and  _21
REMARK    3  A    between atoms: _22  and  _66
REMARK    4  A    between atoms: _27  and  _30
REMARK    5  A    between atoms: _32  and  _33
REMARK    6  A    between atoms: _38  and  _43
REMARK    7  A    between atoms: _43  and  _46
REMARK    8  A    between atoms: _53  and  _55
REMARK                            x       y       z     vdW  Elec       q    Type
REMARK                         _______ _______ _______ _____ _____    ______ ____
ROOT
ATOM     10  C   UNL     1     -10.798  26.898 -14.694  0.00  0.00    +0.038 A 
ATOM     11  C   UNL     1     -10.586  27.353 -13.367  0.00  0.00    +0.047 A 
ATOM     12  C   UNL     1     -10.666  28.767 -13.035  0.00  0.00    +0.035 A 
ATOM     32  C   UNL     1     -10.965  29.690 -14.079  0.00  0.00    +0.024 A 
ATOM     33  C   UNL     1     -11.182  29.245 -15.433  0.00  0.00    +0.007 A 
ATOM     34  C   UNL     1     -11.103  27.852 -15.767  0.00  0.00    -0.029 A 
ATOM     35  C   UNL     1     -11.338  27.432 -17.237  0.00  0.00    +0.045 C 
ENDROOT
BRANCH  10   9
ATOM      4  C   UNL     1     -12.694  22.493 -14.880  0.00  0.00    +0.077 A 
ATOM      5  C   UNL     1     -13.961  22.953 -14.387  0.00  0.00    +0.048 A 
ATOM      6  C   UNL     1     -14.080  24.329 -14.091  0.00  0.00    +0.116 A 
ATOM      7  N   UNL     1     -13.007  25.173 -14.278  0.00  0.00    -0.223 NA
ATOM      8  C   UNL     1     -11.799  24.697 -14.753  0.00  0.00    +0.220 A 
ATOM      9  N   UNL     1     -10.709  25.529 -14.956  0.00  0.00    -0.283 N 
ATOM     36  H   UNL     1      -9.833  25.137 -15.301  0.00  0.00    +0.155 HD
ATOM     37  N   UNL     1     -11.659  23.386 -15.042  0.00  0.00    -0.214 NA
BRANCH   4   3
ATOM      1  C   UNL     1     -11.394  19.294 -16.717  0.00  0.00    +0.020 A 
ATOM      2  C   UNL     1     -11.637  20.685 -16.414  0.00  0.00    +0.013 A 
ATOM      3  C   UNL     1     -12.413  21.067 -15.240  0.00  0.00    +0.019 A 
ATOM     38  C   UNL     1     -12.932  20.009 -14.387  0.00  0.00    +0.120 A 
ATOM     39  N   UNL     1     -12.682  18.677 -14.705  0.00  0.00    -0.263 NA
ATOM     40  C   UNL     1     -11.939  18.298 -15.833  0.00  0.00    +0.111 A 
ENDBRANCH   4   3
ENDBRANCH  10   9
BRANCH  12  13
ATOM     13  N   UNL     1     -10.453  29.289 -11.708  0.00  0.00    -0.281 N 
ATOM     14  C   UNL     1      -9.579  30.290 -11.317  0.00  0.00    +0.248 C 
ATOM     30  O   UNL     1      -8.689  30.744 -12.020  0.00  0.00    -0.270 OA
ATOM     31  H   UNL     1     -11.014  28.869 -10.967  0.00  0.00    +0.155 HD
BRANCH  14  15
ATOM     15  C   UNL     1      -9.702  30.859  -9.940  0.00  0.00    +0.037 A 
ATOM     16  C   UNL     1      -8.611  30.745  -8.970  0.00  0.00    +0.013 A 
ATOM     17  C   UNL     1      -8.762  31.287  -7.643  0.00  0.00    +0.005 A 
ATOM     18  C   UNL     1     -10.012  31.951  -7.280  0.00  0.00    -0.033 A 
ATOM     28  C   UNL     1     -11.077  32.055  -8.264  0.00  0.00    +0.005 A 
ATOM     29  C   UNL     1     -10.932  31.524  -9.565  0.00  0.00    +0.013 A 
BRANCH  18  19
ATOM     19  C   UNL     1     -10.269  32.541  -5.880  0.00  0.00    +0.119 C 
BRANCH  19  20
ATOM     20  N   UNL     1     -11.538  33.303  -5.682  0.00  0.00    -0.302 NA
ATOM     21  C   UNL     1     -11.291  34.674  -5.046  0.00  0.00    +0.066 C 
ATOM     22  C   UNL     1     -12.626  35.467  -4.867  0.00  0.00    -0.064 C 
ATOM     23  N   UNL     1     -13.596  34.643  -4.018  0.00  0.00    +0.379 N 
ATOM     24  C   UNL     1     -14.831  35.410  -3.799  0.00  0.00    -0.096 C 
ATOM     25  H   UNL     1     -13.119  34.478  -3.024  0.00  0.00    -0.082 HD
ATOM     26  C   UNL     1     -13.845  33.277  -4.643  0.00  0.00    -0.064 C 
ATOM     27  C   UNL     1     -12.509  32.509  -4.843  0.00  0.00    +0.066 C 
ENDBRANCH  19  20
ENDBRANCH  18  19
ENDBRANCH  14  15
ENDBRANCH  12  13
TORSDOF 6
ENDMDL
