MODEL 1
REMARK VINA RESULT:      -6.6      0.000      0.000
REMARK  Name = C:\Users\Docking\Desktop\test protocol\1iep_ligandH.pdb
REMARK  8 active torsions:
REMARK  status: ('A' for Active; 'I' for Inactive)
REMARK    1  A    between atoms: _5  and  _11
REMARK    2  A    between atoms: _19  and  _21
REMARK    3  A    between atoms: _22  and  _66
REMARK    4  A    between atoms: _27  and  _30
REMARK    5  A    between atoms: _32  and  _33
REMARK    6  A    between atoms: _38  and  _43
REMARK    7  A    between atoms: _43  and  _46
REMARK    8  A    between atoms: _53  and  _55
REMARK                            x       y       z     vdW  Elec       q    Type
REMARK                         _______ _______ _______ _____ _____    ______ ____
ROOT
ATOM     10  C   UNL     1       8.939  -1.874  -3.305  0.00  0.00    +0.038 A 
ATOM     11  C   UNL     1       8.315  -0.923  -2.459  0.00  0.00    +0.047 A 
ATOM     12  C   UNL     1       7.851  -1.287  -1.129  0.00  0.00    +0.035 A 
ATOM     32  C   UNL     1       8.041  -2.631  -0.693  0.00  0.00    +0.024 A 
ATOM     33  C   UNL     1       8.672  -3.612  -1.540  0.00  0.00    +0.007 A 
ATOM     34  C   UNL     1       9.130  -3.258  -2.853  0.00  0.00    -0.029 A 
ATOM     35  C   UNL     1       9.794  -4.352  -3.721  0.00  0.00    +0.045 C 
ENDROOT
BRANCH  10   9
ATOM      4  C   UNL     1      12.301  -0.249  -6.320  0.00  0.00    +0.077 A 
ATOM      5  C   UNL     1      13.284  -0.175  -5.278  0.00  0.00    +0.048 A 
ATOM      6  C   UNL     1      12.882  -0.557  -3.979  0.00  0.00    +0.116 A 
ATOM      7  N   UNL     1      11.591  -0.981  -3.750  0.00  0.00    -0.223 NA
ATOM      8  C   UNL     1      10.667  -1.039  -4.777  0.00  0.00    +0.220 A 
ATOM      9  N   UNL     1       9.365  -1.470  -4.572  0.00  0.00    -0.283 N 
ATOM     36  H   UNL     1       8.712  -1.491  -5.354  0.00  0.00    +0.155 HD
ATOM     37  N   UNL     1      11.026  -0.678  -6.027  0.00  0.00    -0.214 NA
BRANCH   4   3
ATOM      1  C   UNL     1      13.674  -0.269  -9.983  0.00  0.00    +0.020 A 
ATOM      2  C   UNL     1      13.444  -0.666  -8.613  0.00  0.00    +0.013 A 
ATOM      3  C   UNL     1      12.574   0.118  -7.746  0.00  0.00    +0.019 A 
ATOM     38  C   UNL     1      11.946   1.308  -8.300  0.00  0.00    +0.120 A 
ATOM     39  N   UNL     1      12.188   1.667  -9.623  0.00  0.00    -0.263 NA
ATOM     40  C   UNL     1      13.024   0.921 -10.466  0.00  0.00    +0.111 A 
ENDBRANCH   4   3
ENDBRANCH  10   9
BRANCH  12  13
ATOM     13  N   UNL     1       7.203  -0.366  -0.229  0.00  0.00    -0.281 N 
ATOM     14  C   UNL     1       7.765   0.713   0.435  0.00  0.00    +0.248 C 
ATOM     30  O   UNL     1       8.965   0.922   0.522  0.00  0.00    -0.270 OA
ATOM     31  H   UNL     1       6.210  -0.529  -0.060  0.00  0.00    +0.155 HD
BRANCH  14  15
ATOM     15  C   UNL     1       6.862   1.692   1.113  0.00  0.00    +0.037 A 
ATOM     16  C   UNL     1       5.408   1.627   0.947  0.00  0.00    +0.013 A 
ATOM     17  C   UNL     1       4.561   2.595   1.599  0.00  0.00    +0.005 A 
ATOM     18  C   UNL     1       5.168   3.637   2.423  0.00  0.00    -0.033 A 
ATOM     28  C   UNL     1       6.613   3.676   2.574  0.00  0.00    +0.005 A 
ATOM     29  C   UNL     1       7.446   2.729   1.937  0.00  0.00    +0.013 A 
BRANCH  18  19
ATOM     19  C   UNL     1       4.344   4.724   3.138  0.00  0.00    +0.119 C 
BRANCH  19  20
ATOM     20  N   UNL     1       4.673   5.002   4.568  0.00  0.00    -0.302 NA
ATOM     21  C   UNL     1       4.313   3.827   5.480  0.00  0.00    +0.066 C 
ATOM     22  C   UNL     1       4.685   4.126   6.969  0.00  0.00    -0.064 C 
ATOM     23  N   UNL     1       3.974   5.402   7.423  0.00  0.00    +0.379 N 
ATOM     24  C   UNL     1       4.275   5.655   8.839  0.00  0.00    -0.096 C 
ATOM     25  H   UNL     1       2.876   5.225   7.337  0.00  0.00    -0.082 HD
ATOM     26  C   UNL     1       4.324   6.576   6.519  0.00  0.00    -0.064 C 
ATOM     27  C   UNL     1       3.977   6.256   5.038  0.00  0.00    +0.066 C 
ENDBRANCH  19  20
ENDBRANCH  18  19
ENDBRANCH  14  15
ENDBRANCH  12  13
TORSDOF 6
ENDMDL
MODEL 2
REMARK VINA RESULT:      -6.5      4.981     12.196
REMARK  Name = C:\Users\Docking\Desktop\test protocol\1iep_ligandH.pdb
REMARK  8 active torsions:
REMARK  status: ('A' for Active; 'I' for Inactive)
REMARK    1  A    between atoms: _5  and  _11
REMARK    2  A    between atoms: _19  and  _21
REMARK    3  A    between atoms: _22  and  _66
REMARK    4  A    between atoms: _27  and  _30
REMARK    5  A    between atoms: _32  and  _33
REMARK    6  A    between atoms: _38  and  _43
REMARK    7  A    between atoms: _43  and  _46
REMARK    8  A    between atoms: _53  and  _55
REMARK                            x       y       z     vdW  Elec       q    Type
REMARK                         _______ _______ _______ _____ _____    ______ ____
ROOT
ATOM     10  C   UNL     1       8.193   1.509   1.258  0.00  0.00    +0.038 A 
ATOM     11  C   UNL     1       8.187   0.333   0.466  0.00  0.00    +0.047 A 
ATOM     12  C   UNL     1       7.234   0.161  -0.620  0.00  0.00    +0.035 A 
ATOM     32  C   UNL     1       6.303   1.210  -0.874  0.00  0.00    +0.024 A 
ATOM     33  C   UNL     1       6.294   2.412  -0.078  0.00  0.00    +0.007 A 
ATOM     34  C   UNL     1       7.230   2.586   0.996  0.00  0.00    -0.029 A 
ATOM     35  C   UNL     1       7.170   3.893   1.820  0.00  0.00    +0.045 C 
ENDROOT
BRANCH  10   9
ATOM      4  C   UNL     1      12.503   2.789   2.938  0.00  0.00    +0.077 A 
ATOM      5  C   UNL     1      12.934   3.249   1.649  0.00  0.00    +0.048 A 
ATOM      6  C   UNL     1      12.019   3.132   0.579  0.00  0.00    +0.116 A 
ATOM      7  N   UNL     1      10.769   2.594   0.793  0.00  0.00    -0.223 NA
ATOM      8  C   UNL     1      10.385   2.159   2.048  0.00  0.00    +0.220 A 
ATOM      9  N   UNL     1       9.129   1.621   2.287  0.00  0.00    -0.283 N 
ATOM     36  H   UNL     1       8.887   1.305   3.226  0.00  0.00    +0.155 HD
ATOM     37  N   UNL     1      11.241   2.258   3.086  0.00  0.00    -0.214 NA
BRANCH   4   3
ATOM      1  C   UNL     1      13.865   2.251   6.565  0.00  0.00    +0.020 A 
ATOM      2  C   UNL     1      13.008   2.161   5.405  0.00  0.00    +0.013 A 
ATOM      3  C   UNL     1      13.354   2.849   4.168  0.00  0.00    +0.019 A 
ATOM     38  C   UNL     1      14.584   3.625   4.137  0.00  0.00    +0.120 A 
ATOM     39  N   UNL     1      15.389   3.695   5.269  0.00  0.00    -0.263 NA
ATOM     40  C   UNL     1      15.066   3.038   6.466  0.00  0.00    +0.111 A 
ENDBRANCH   4   3
ENDBRANCH  10   9
BRANCH  12  13
ATOM     13  N   UNL     1       7.175  -1.015  -1.452  0.00  0.00    -0.281 N 
ATOM     14  C   UNL     1       8.169  -1.532  -2.268  0.00  0.00    +0.248 C 
ATOM     30  O   UNL     1       9.193  -0.938  -2.571  0.00  0.00    -0.270 OA
ATOM     31  H   UNL     1       6.294  -1.529  -1.438  0.00  0.00    +0.155 HD
BRANCH  14  15
ATOM     15  C   UNL     1       7.993  -2.901  -2.841  0.00  0.00    +0.037 A 
ATOM     16  C   UNL     1       7.016  -3.839  -2.282  0.00  0.00    +0.013 A 
ATOM     17  C   UNL     1       6.879  -5.160  -2.843  0.00  0.00    +0.005 A 
ATOM     18  C   UNL     1       7.720  -5.549  -3.972  0.00  0.00    -0.033 A 
ATOM     28  C   UNL     1       8.677  -4.597  -4.511  0.00  0.00    +0.005 A 
ATOM     29  C   UNL     1       8.815  -3.302  -3.963  0.00  0.00    +0.013 A 
BRANCH  18  19
ATOM     19  C   UNL     1       7.656  -6.945  -4.621  0.00  0.00    +0.119 C 
BRANCH  19  20
ATOM     20  N   UNL     1       7.572  -7.003  -6.111  0.00  0.00    -0.302 NA
ATOM     21  C   UNL     1       6.197  -7.475  -6.591  0.00  0.00    +0.066 C 
ATOM     22  C   UNL     1       6.120  -7.509  -8.152  0.00  0.00    -0.064 C 
ATOM     23  N   UNL     1       7.224  -8.418  -8.695  0.00  0.00    +0.379 N 
ATOM     24  C   UNL     1       7.118  -8.497 -10.159  0.00  0.00    -0.096 C 
ATOM     25  H   UNL     1       7.051  -9.440  -8.287  0.00  0.00    -0.082 HD
ATOM     26  C   UNL     1       8.595  -7.957  -8.220  0.00  0.00    -0.064 C 
ATOM     27  C   UNL     1       8.652  -7.899  -6.668  0.00  0.00    +0.066 C 
ENDBRANCH  19  20
ENDBRANCH  18  19
ENDBRANCH  14  15
ENDBRANCH  12  13
TORSDOF 6
ENDMDL
MODEL 3
REMARK VINA RESULT:      -6.5      5.256     11.783
REMARK  Name = C:\Users\Docking\Desktop\test protocol\1iep_ligandH.pdb
REMARK  8 active torsions:
REMARK  status: ('A' for Active; 'I' for Inactive)
REMARK    1  A    between atoms: _5  and  _11
REMARK    2  A    between atoms: _19  and  _21
REMARK    3  A    between atoms: _22  and  _66
REMARK    4  A    between atoms: _27  and  _30
REMARK    5  A    between atoms: _32  and  _33
REMARK    6  A    between atoms: _38  and  _43
REMARK    7  A    between atoms: _43  and  _46
REMARK    8  A    between atoms: _53  and  _55
REMARK                            x       y       z     vdW  Elec       q    Type
REMARK                         _______ _______ _______ _____ _____    ______ ____
ROOT
ATOM     10  C   UNL     1       8.469   2.241   1.370  0.00  0.00    +0.038 A 
ATOM     11  C   UNL     1       8.455   0.960   0.762  0.00  0.00    +0.047 A 
ATOM     12  C   UNL     1       7.205   0.320   0.382  0.00  0.00    +0.035 A 
ATOM     32  C   UNL     1       5.987   1.015   0.634  0.00  0.00    +0.024 A 
ATOM     33  C   UNL     1       5.982   2.318   1.252  0.00  0.00    +0.007 A 
ATOM     34  C   UNL     1       7.212   2.953   1.631  0.00  0.00    -0.029 A 
ATOM     35  C   UNL     1       7.146   4.347   2.296  0.00  0.00    +0.045 C 
ENDROOT
BRANCH  10   9
ATOM      4  C   UNL     1      12.330   2.579   4.200  0.00  0.00    +0.077 A 
ATOM      5  C   UNL     1      11.845   1.558   5.083  0.00  0.00    +0.048 A 
ATOM      6  C   UNL     1      10.595   0.976   4.778  0.00  0.00    +0.116 A 
ATOM      7  N   UNL     1       9.890   1.391   3.669  0.00  0.00    -0.223 NA
ATOM      8  C   UNL     1      10.385   2.380   2.839  0.00  0.00    +0.220 A 
ATOM      9  N   UNL     1       9.697   2.808   1.714  0.00  0.00    -0.283 N 
ATOM     36  H   UNL     1      10.093   3.546   1.131  0.00  0.00    +0.155 HD
ATOM     37  N   UNL     1      11.577   2.953   3.110  0.00  0.00    -0.214 NA
BRANCH   4   3
ATOM      1  C   UNL     1      15.825   3.660   5.584  0.00  0.00    +0.020 A 
ATOM      2  C   UNL     1      14.577   2.945   5.446  0.00  0.00    +0.013 A 
ATOM      3  C   UNL     1      13.636   3.287   4.388  0.00  0.00    +0.019 A 
ATOM     38  C   UNL     1      13.990   4.365   3.477  0.00  0.00    +0.120 A 
ATOM     39  N   UNL     1      15.199   5.037   3.635  0.00  0.00    -0.263 NA
ATOM     40  C   UNL     1      16.112   4.718   4.651  0.00  0.00    +0.111 A 
ENDBRANCH   4   3
ENDBRANCH  10   9
BRANCH  12  13
ATOM     13  N   UNL     1       7.129  -0.983  -0.231  0.00  0.00    -0.281 N 
ATOM     14  C   UNL     1       7.945  -1.508  -1.220  0.00  0.00    +0.248 C 
ATOM     30  O   UNL     1       8.737  -0.854  -1.882  0.00  0.00    -0.270 OA
ATOM     31  H   UNL     1       6.383  -1.592   0.105  0.00  0.00    +0.155 HD
BRANCH  14  15
ATOM     15  C   UNL     1       7.859  -2.968  -1.528  0.00  0.00    +0.037 A 
ATOM     16  C   UNL     1       8.255  -3.977  -0.543  0.00  0.00    +0.013 A 
ATOM     17  C   UNL     1       8.178  -5.378  -0.871  0.00  0.00    +0.005 A 
ATOM     18  C   UNL     1       7.700  -5.779  -2.193  0.00  0.00    -0.033 A 
ATOM     28  C   UNL     1       7.308  -4.757  -3.149  0.00  0.00    +0.005 A 
ATOM     29  C   UNL     1       7.383  -3.382  -2.831  0.00  0.00    +0.013 A 
BRANCH  18  19
ATOM     19  C   UNL     1       7.605  -7.250  -2.637  0.00  0.00    +0.119 C 
BRANCH  19  20
ATOM     20  N   UNL     1       8.702  -7.775  -3.504  0.00  0.00    -0.302 NA
ATOM     21  C   UNL     1      10.023  -7.036  -3.270  0.00  0.00    +0.066 C 
ATOM     22  C   UNL     1      11.164  -7.613  -4.169  0.00  0.00    -0.064 C 
ATOM     23  N   UNL     1      10.747  -7.524  -5.638  0.00  0.00    +0.379 N 
ATOM     24  C   UNL     1      11.842  -8.012  -6.490  0.00  0.00    -0.096 C 
ATOM     25  H   UNL     1      10.585  -6.448  -5.879  0.00  0.00    -0.082 HD
ATOM     26  C   UNL     1       9.433  -8.254  -5.879  0.00  0.00    -0.064 C 
ATOM     27  C   UNL     1       8.312  -7.693  -4.960  0.00  0.00    +0.066 C 
ENDBRANCH  19  20
ENDBRANCH  18  19
ENDBRANCH  14  15
ENDBRANCH  12  13
TORSDOF 6
ENDMDL
