MODEL 1
REMARK VINA RESULT:      -8.1      0.000      0.000
REMARK  Name = C:\Users\Docking\Desktop\test protocol\1iep_ligandH.pdb
REMARK  8 active torsions:
REMARK  status: ('A' for Active; 'I' for Inactive)
REMARK    1  A    between atoms: _5  and  _11
REMARK    2  A    between atoms: _19  and  _21
REMARK    3  A    between atoms: _22  and  _66
REMARK    4  A    between atoms: _27  and  _30
REMARK    5  A    between atoms: _32  and  _33
REMARK    6  A    between atoms: _38  and  _43
REMARK    7  A    between atoms: _43  and  _46
REMARK    8  A    between atoms: _53  and  _55
REMARK                            x       y       z     vdW  Elec       q    Type
REMARK                         _______ _______ _______ _____ _____    ______ ____
ROOT
ATOM     10  C   UNL     1       6.661  33.267  23.866  0.00  0.00    +0.038 A 
ATOM     11  C   UNL     1       7.223  34.541  23.598  0.00  0.00    +0.047 A 
ATOM     12  C   UNL     1       6.409  35.626  23.070  0.00  0.00    +0.035 A 
ATOM     32  C   UNL     1       5.026  35.378  22.830  0.00  0.00    +0.024 A 
ATOM     33  C   UNL     1       4.439  34.089  23.097  0.00  0.00    +0.007 A 
ATOM     34  C   UNL     1       5.237  33.014  23.615  0.00  0.00    -0.029 A 
ATOM     35  C   UNL     1       4.556  31.651  23.876  0.00  0.00    +0.045 C 
ENDROOT
BRANCH  10   9
ATOM      4  C   UNL     1       9.000  31.124  27.468  0.00  0.00    +0.077 A 
ATOM      5  C   UNL     1       8.559  32.105  28.417  0.00  0.00    +0.048 A 
ATOM      6  C   UNL     1       7.738  33.149  27.936  0.00  0.00    +0.116 A 
ATOM      7  N   UNL     1       7.389  33.198  26.604  0.00  0.00    -0.223 NA
ATOM      8  C   UNL     1       7.833  32.237  25.715  0.00  0.00    +0.220 A 
ATOM      9  N   UNL     1       7.488  32.262  24.372  0.00  0.00    -0.283 N 
ATOM     36  H   UNL     1       7.842  31.538  23.747  0.00  0.00    +0.155 HD
ATOM     37  N   UNL     1       8.620  31.230  26.149  0.00  0.00    -0.214 NA
BRANCH   4   3
ATOM      1  C   UNL     1      12.009  28.952  28.706  0.00  0.00    +0.020 A 
ATOM      2  C   UNL     1      11.209  30.110  28.380  0.00  0.00    +0.013 A 
ATOM      3  C   UNL     1       9.871  29.959  27.823  0.00  0.00    +0.019 A 
ATOM     38  C   UNL     1       9.366  28.611  27.609  0.00  0.00    +0.120 A 
ATOM     39  N   UNL     1      10.159  27.514  27.932  0.00  0.00    -0.263 NA
ATOM     40  C   UNL     1      11.449  27.647  28.466  0.00  0.00    +0.111 A 
ENDBRANCH   4   3
ENDBRANCH  10   9
BRANCH  12  13
ATOM     13  N   UNL     1       6.926  36.939  22.771  0.00  0.00    -0.281 N 
ATOM     14  C   UNL     1       6.598  38.141  23.375  0.00  0.00    +0.248 C 
ATOM     30  O   UNL     1       5.647  38.301  24.125  0.00  0.00    -0.270 OA
ATOM     31  H   UNL     1       7.618  36.987  22.022  0.00  0.00    +0.155 HD
BRANCH  14  15
ATOM     15  C   UNL     1       7.439  39.344  23.093  0.00  0.00    +0.037 A 
ATOM     16  C   UNL     1       7.071  40.666  23.606  0.00  0.00    +0.013 A 
ATOM     17  C   UNL     1       7.891  41.813  23.305  0.00  0.00    +0.005 A 
ATOM     18  C   UNL     1       9.090  41.641  22.488  0.00  0.00    -0.033 A 
ATOM     28  C   UNL     1       9.435  40.317  21.996  0.00  0.00    +0.005 A 
ATOM     29  C   UNL     1       8.633  39.191  22.288  0.00  0.00    +0.013 A 
BRANCH  18  19
ATOM     19  C   UNL     1      10.012  42.812  22.099  0.00  0.00    +0.119 C 
BRANCH  19  20
ATOM     20  N   UNL     1       9.707  43.529  20.825  0.00  0.00    -0.302 NA
ATOM     21  C   UNL     1      10.354  42.850  19.615  0.00  0.00    +0.066 C 
ATOM     22  C   UNL     1      10.007  43.600  18.288  0.00  0.00    -0.064 C 
ATOM     23  N   UNL     1      10.458  45.058  18.397  0.00  0.00    +0.379 N 
ATOM     24  C   UNL     1      10.185  45.752  17.129  0.00  0.00    -0.096 C 
ATOM     25  H   UNL     1      11.561  45.060  18.553  0.00  0.00    -0.082 HD
ATOM     26  C   UNL     1       9.821  45.740  19.599  0.00  0.00    -0.064 C 
ATOM     27  C   UNL     1      10.148  44.970  20.909  0.00  0.00    +0.066 C 
ENDBRANCH  19  20
ENDBRANCH  18  19
ENDBRANCH  14  15
ENDBRANCH  12  13
TORSDOF 6
ENDMDL
MODEL 2
REMARK VINA RESULT:      -8.1      0.975      1.280
REMARK  Name = C:\Users\Docking\Desktop\test protocol\1iep_ligandH.pdb
REMARK  8 active torsions:
REMARK  status: ('A' for Active; 'I' for Inactive)
REMARK    1  A    between atoms: _5  and  _11
REMARK    2  A    between atoms: _19  and  _21
REMARK    3  A    between atoms: _22  and  _66
REMARK    4  A    between atoms: _27  and  _30
REMARK    5  A    between atoms: _32  and  _33
REMARK    6  A    between atoms: _38  and  _43
REMARK    7  A    between atoms: _43  and  _46
REMARK    8  A    between atoms: _53  and  _55
REMARK                            x       y       z     vdW  Elec       q    Type
REMARK                         _______ _______ _______ _____ _____    ______ ____
ROOT
ATOM     10  C   UNL     1       6.827  33.274  22.932  0.00  0.00    +0.038 A 
ATOM     11  C   UNL     1       7.199  34.643  22.932  0.00  0.00    +0.047 A 
ATOM     12  C   UNL     1       6.394  35.641  22.246  0.00  0.00    +0.035 A 
ATOM     32  C   UNL     1       5.214  35.211  21.571  0.00  0.00    +0.024 A 
ATOM     33  C   UNL     1       4.822  33.823  21.560  0.00  0.00    +0.007 A 
ATOM     34  C   UNL     1       5.613  32.833  22.233  0.00  0.00    -0.029 A 
ATOM     35  C   UNL     1       5.148  31.359  22.183  0.00  0.00    +0.045 C 
ENDROOT
BRANCH  10   9
ATOM      4  C   UNL     1       8.426  31.199  26.954  0.00  0.00    +0.077 A 
ATOM      5  C   UNL     1       7.598  32.028  27.781  0.00  0.00    +0.048 A 
ATOM      6  C   UNL     1       6.780  32.981  27.133  0.00  0.00    +0.116 A 
ATOM      7  N   UNL     1       6.798  33.088  25.759  0.00  0.00    -0.223 NA
ATOM      8  C   UNL     1       7.609  32.273  24.991  0.00  0.00    +0.220 A 
ATOM      9  N   UNL     1       7.636  32.358  23.608  0.00  0.00    -0.283 N 
ATOM     36  H   UNL     1       8.254  31.744  23.077  0.00  0.00    +0.155 HD
ATOM     37  N   UNL     1       8.400  31.356  25.586  0.00  0.00    -0.214 NA
BRANCH   4   3
ATOM      1  C   UNL     1      11.373  29.392  28.784  0.00  0.00    +0.020 A 
ATOM      2  C   UNL     1      10.521  30.449  28.290  0.00  0.00    +0.013 A 
ATOM      3  C   UNL     1       9.342  30.143  27.490  0.00  0.00    +0.019 A 
ATOM     38  C   UNL     1       9.050  28.746  27.207  0.00  0.00    +0.120 A 
ATOM     39  N   UNL     1       9.889  27.749  27.695  0.00  0.00    -0.263 NA
ATOM     40  C   UNL     1      11.028  28.032  28.464  0.00  0.00    +0.111 A 
ENDBRANCH   4   3
ENDBRANCH  10   9
BRANCH  12  13
ATOM     13  N   UNL     1       6.726  37.044  22.205  0.00  0.00    -0.281 N 
ATOM     14  C   UNL     1       7.002  37.885  23.270  0.00  0.00    +0.248 C 
ATOM     30  O   UNL     1       6.795  37.607  24.442  0.00  0.00    -0.270 OA
ATOM     31  H   UNL     1       6.761  37.468  21.277  0.00  0.00    +0.155 HD
BRANCH  14  15
ATOM     15  C   UNL     1       7.577  39.236  22.992  0.00  0.00    +0.037 A 
ATOM     16  C   UNL     1       8.785  39.395  22.178  0.00  0.00    +0.013 A 
ATOM     17  C   UNL     1       9.329  40.709  21.939  0.00  0.00    +0.005 A 
ATOM     18  C   UNL     1       8.664  41.874  22.517  0.00  0.00    -0.033 A 
ATOM     28  C   UNL     1       7.465  41.688  23.317  0.00  0.00    +0.005 A 
ATOM     29  C   UNL     1       6.929  40.403  23.553  0.00  0.00    +0.013 A 
BRANCH  18  19
ATOM     19  C   UNL     1       9.187  43.312  22.332  0.00  0.00    +0.119 C 
BRANCH  19  20
ATOM     20  N   UNL     1       9.176  43.871  20.947  0.00  0.00    -0.302 NA
ATOM     21  C   UNL     1      10.589  44.029  20.381  0.00  0.00    +0.066 C 
ATOM     22  C   UNL     1      10.558  44.594  18.923  0.00  0.00    -0.064 C 
ATOM     23  N   UNL     1       9.817  45.932  18.914  0.00  0.00    +0.379 N 
ATOM     24  C   UNL     1       9.837  46.494  17.555  0.00  0.00    -0.096 C 
ATOM     25  H   UNL     1      10.376  46.633  19.577  0.00  0.00    -0.082 HD
ATOM     26  C   UNL     1       8.412  45.784  19.478  0.00  0.00    -0.064 C 
ATOM     27  C   UNL     1       8.452  45.195  20.915  0.00  0.00    +0.066 C 
ENDBRANCH  19  20
ENDBRANCH  18  19
ENDBRANCH  14  15
ENDBRANCH  12  13
TORSDOF 6
ENDMDL
MODEL 3
REMARK VINA RESULT:      -8.0      5.966     15.801
REMARK  Name = C:\Users\Docking\Desktop\test protocol\1iep_ligandH.pdb
REMARK  8 active torsions:
REMARK  status: ('A' for Active; 'I' for Inactive)
REMARK    1  A    between atoms: _5  and  _11
REMARK    2  A    between atoms: _19  and  _21
REMARK    3  A    between atoms: _22  and  _66
REMARK    4  A    between atoms: _27  and  _30
REMARK    5  A    between atoms: _32  and  _33
REMARK    6  A    between atoms: _38  and  _43
REMARK    7  A    between atoms: _43  and  _46
REMARK    8  A    between atoms: _53  and  _55
REMARK                            x       y       z     vdW  Elec       q    Type
REMARK                         _______ _______ _______ _____ _____    ______ ____
ROOT
ATOM     10  C   UNL     1      10.120  30.017  28.713  0.00  0.00    +0.038 A 
ATOM     11  C   UNL     1      10.572  28.695  28.470  0.00  0.00    +0.047 A 
ATOM     12  C   UNL     1      10.834  27.776  29.566  0.00  0.00    +0.035 A 
ATOM     32  C   UNL     1      10.622  28.236  30.898  0.00  0.00    +0.024 A 
ATOM     33  C   UNL     1      10.164  29.577  31.164  0.00  0.00    +0.007 A 
ATOM     34  C   UNL     1       9.906  30.489  30.087  0.00  0.00    -0.029 A 
ATOM     35  C   UNL     1       9.423  31.917  30.431  0.00  0.00    +0.045 C 
ENDROOT
BRANCH  10   9
ATOM      4  C   UNL     1       7.183  32.166  25.583  0.00  0.00    +0.077 A 
ATOM      5  C   UNL     1       6.024  31.540  26.151  0.00  0.00    +0.048 A 
ATOM      6  C   UNL     1       6.227  30.667  27.243  0.00  0.00    +0.116 A 
ATOM      7  N   UNL     1       7.499  30.444  27.723  0.00  0.00    -0.223 NA
ATOM      8  C   UNL     1       8.596  31.062  27.151  0.00  0.00    +0.220 A 
ATOM      9  N   UNL     1       9.884  30.858  27.623  0.00  0.00    -0.283 N 
ATOM     36  H   UNL     1      10.667  31.327  27.169  0.00  0.00    +0.155 HD
ATOM     37  N   UNL     1       8.428  31.899  26.107  0.00  0.00    -0.214 NA
BRANCH   4   3
ATOM      1  C   UNL     1       6.942  33.636  21.966  0.00  0.00    +0.020 A 
ATOM      2  C   UNL     1       6.988  32.677  23.046  0.00  0.00    +0.013 A 
ATOM      3  C   UNL     1       7.131  33.117  24.428  0.00  0.00    +0.019 A 
ATOM     38  C   UNL     1       7.224  34.546  24.686  0.00  0.00    +0.120 A 
ATOM     39  N   UNL     1       7.179  35.446  23.626  0.00  0.00    -0.263 NA
ATOM     40  C   UNL     1       7.043  35.035  22.292  0.00  0.00    +0.111 A 
ENDBRANCH   4   3
ENDBRANCH  10   9
BRANCH  12  13
ATOM     13  N   UNL     1      11.302  26.425  29.380  0.00  0.00    -0.281 N 
ATOM     14  C   UNL     1      10.702  25.408  28.656  0.00  0.00    +0.248 C 
ATOM     30  O   UNL     1       9.557  25.444  28.231  0.00  0.00    -0.270 OA
ATOM     31  H   UNL     1      12.183  26.190  29.839  0.00  0.00    +0.155 HD
BRANCH  14  15
ATOM     15  C   UNL     1      11.482  24.164  28.376  0.00  0.00    +0.037 A 
ATOM     16  C   UNL     1      10.998  22.850  28.806  0.00  0.00    +0.013 A 
ATOM     17  C   UNL     1      11.779  21.668  28.538  0.00  0.00    +0.005 A 
ATOM     18  C   UNL     1      13.052  21.795  27.833  0.00  0.00    -0.033 A 
ATOM     28  C   UNL     1      13.505  23.111  27.412  0.00  0.00    +0.005 A 
ATOM     29  C   UNL     1      12.744  24.271  27.674  0.00  0.00    +0.013 A 
BRANCH  18  19
ATOM     19  C   UNL     1      13.960  20.591  27.522  0.00  0.00    +0.119 C 
BRANCH  19  20
ATOM     20  N   UNL     1      15.432  20.838  27.480  0.00  0.00    -0.302 NA
ATOM     21  C   UNL     1      15.953  20.959  26.045  0.00  0.00    +0.066 C 
ATOM     22  C   UNL     1      17.491  21.240  26.020  0.00  0.00    -0.064 C 
ATOM     23  N   UNL     1      18.222  20.124  26.769  0.00  0.00    +0.379 N 
ATOM     24  C   UNL     1      19.673  20.355  26.697  0.00  0.00    -0.096 C 
ATOM     25  H   UNL     1      18.005  19.166  26.243  0.00  0.00    -0.082 HD
ATOM     26  C   UNL     1      17.709  19.995  28.196  0.00  0.00    -0.064 C 
ATOM     27  C   UNL     1      16.174  19.746  28.210  0.00  0.00    +0.066 C 
ENDBRANCH  19  20
ENDBRANCH  18  19
ENDBRANCH  14  15
ENDBRANCH  12  13
TORSDOF 6
ENDMDL
