MODEL 1
REMARK VINA RESULT:      -4.4      0.000      0.000
REMARK  Name = C:\Users\Docking\Desktop\test protocol\1iep_ligandH.pdb
REMARK  8 active torsions:
REMARK  status: ('A' for Active; 'I' for Inactive)
REMARK    1  A    between atoms: _5  and  _11
REMARK    2  A    between atoms: _19  and  _21
REMARK    3  A    between atoms: _22  and  _66
REMARK    4  A    between atoms: _27  and  _30
REMARK    5  A    between atoms: _32  and  _33
REMARK    6  A    between atoms: _38  and  _43
REMARK    7  A    between atoms: _43  and  _46
REMARK    8  A    between atoms: _53  and  _55
REMARK                            x       y       z     vdW  Elec       q    Type
REMARK                         _______ _______ _______ _____ _____    ______ ____
ROOT
ATOM     10  C   UNL     1      32.048   3.112   2.723  0.00  0.00    +0.038 A 
ATOM     11  C   UNL     1      32.597   3.304   1.430  0.00  0.00    +0.047 A 
ATOM     12  C   UNL     1      34.034   3.413   1.230  0.00  0.00    +0.035 A 
ATOM     32  C   UNL     1      34.883   3.319   2.371  0.00  0.00    +0.024 A 
ATOM     33  C   UNL     1      34.342   3.125   3.693  0.00  0.00    +0.007 A 
ATOM     34  C   UNL     1      32.926   3.019   3.896  0.00  0.00    -0.029 A 
ATOM     35  C   UNL     1      32.401   2.817   5.337  0.00  0.00    +0.045 C 
ENDROOT
BRANCH  10   9
ATOM      4  C   UNL     1      27.675   5.068   3.017  0.00  0.00    +0.077 A 
ATOM      5  C   UNL     1      28.200   6.400   2.923  0.00  0.00    +0.048 A 
ATOM      6  C   UNL     1      29.602   6.539   2.808  0.00  0.00    +0.116 A 
ATOM      7  N   UNL     1      30.408   5.421   2.788  0.00  0.00    -0.223 NA
ATOM      8  C   UNL     1      29.870   4.151   2.882  0.00  0.00    +0.220 A 
ATOM      9  N   UNL     1      30.661   3.014   2.857  0.00  0.00    -0.283 N 
ATOM     36  H   UNL     1      30.226   2.095   2.936  0.00  0.00    +0.155 HD
ATOM     37  N   UNL     1      28.535   3.993   2.995  0.00  0.00    -0.214 NA
BRANCH   4   3
ATOM      1  C   UNL     1      23.786   5.193   2.620  0.00  0.00    +0.020 A 
ATOM      2  C   UNL     1      25.182   5.535   2.468  0.00  0.00    +0.013 A 
ATOM      3  C   UNL     1      26.216   4.759   3.140  0.00  0.00    +0.019 A 
ATOM     38  C   UNL     1      25.801   3.634   3.965  0.00  0.00    +0.120 A 
ATOM     39  N   UNL     1      24.449   3.330   4.094  0.00  0.00    -0.263 NA
ATOM     40  C   UNL     1      23.445   4.070   3.453  0.00  0.00    +0.111 A 
ENDBRANCH   4   3
ENDBRANCH  10   9
BRANCH  12  13
ATOM     13  N   UNL     1      34.648   3.617  -0.058  0.00  0.00    -0.281 N 
ATOM     14  C   UNL     1      34.831   4.812  -0.735  0.00  0.00    +0.248 C 
ATOM     30  O   UNL     1      34.301   5.869  -0.427  0.00  0.00    -0.270 OA
ATOM     31  H   UNL     1      34.988   2.779  -0.529  0.00  0.00    +0.155 HD
BRANCH  14  15
ATOM     15  C   UNL     1      35.722   4.833  -1.935  0.00  0.00    +0.037 A 
ATOM     16  C   UNL     1      35.246   5.335  -3.226  0.00  0.00    +0.013 A 
ATOM     17  C   UNL     1      36.121   5.328  -4.372  0.00  0.00    +0.005 A 
ATOM     18  C   UNL     1      37.482   4.819  -4.230  0.00  0.00    -0.033 A 
ATOM     28  C   UNL     1      37.931   4.332  -2.936  0.00  0.00    +0.005 A 
ATOM     29  C   UNL     1      37.076   4.336  -1.811  0.00  0.00    +0.013 A 
BRANCH  18  19
ATOM     19  C   UNL     1      38.477   4.754  -5.404  0.00  0.00    +0.119 C 
BRANCH  19  20
ATOM     20  N   UNL     1      39.335   3.536  -5.507  0.00  0.00    -0.302 NA
ATOM     21  C   UNL     1      40.827   3.877  -5.446  0.00  0.00    +0.066 C 
ATOM     22  C   UNL     1      41.708   2.588  -5.533  0.00  0.00    -0.064 C 
ATOM     23  N   UNL     1      41.378   1.833  -6.821  0.00  0.00    +0.379 N 
ATOM     24  C   UNL     1      42.246   0.652  -6.934  0.00  0.00    -0.096 C 
ATOM     25  H   UNL     1      41.611   2.508  -7.678  0.00  0.00    -0.082 HD
ATOM     26  C   UNL     1      39.896   1.493  -6.892  0.00  0.00    -0.064 C 
ATOM     27  C   UNL     1      39.028   2.777  -6.775  0.00  0.00    +0.066 C 
ENDBRANCH  19  20
ENDBRANCH  18  19
ENDBRANCH  14  15
ENDBRANCH  12  13
TORSDOF 6
ENDMDL
MODEL 2
REMARK VINA RESULT:      -4.3      3.870      6.786
REMARK  Name = C:\Users\Docking\Desktop\test protocol\1iep_ligandH.pdb
REMARK  8 active torsions:
REMARK  status: ('A' for Active; 'I' for Inactive)
REMARK    1  A    between atoms: _5  and  _11
REMARK    2  A    between atoms: _19  and  _21
REMARK    3  A    between atoms: _22  and  _66
REMARK    4  A    between atoms: _27  and  _30
REMARK    5  A    between atoms: _32  and  _33
REMARK    6  A    between atoms: _38  and  _43
REMARK    7  A    between atoms: _43  and  _46
REMARK    8  A    between atoms: _53  and  _55
REMARK                            x       y       z     vdW  Elec       q    Type
REMARK                         _______ _______ _______ _____ _____    ______ ____
ROOT
ATOM     10  C   UNL     1      26.502   2.213   4.525  0.00  0.00    +0.038 A 
ATOM     11  C   UNL     1      27.499   2.547   3.574  0.00  0.00    +0.047 A 
ATOM     12  C   UNL     1      28.892   2.696   3.964  0.00  0.00    +0.035 A 
ATOM     32  C   UNL     1      29.235   2.494   5.333  0.00  0.00    +0.024 A 
ATOM     33  C   UNL     1      28.234   2.155   6.314  0.00  0.00    +0.007 A 
ATOM     34  C   UNL     1      26.858   2.009   5.935  0.00  0.00    -0.029 A 
ATOM     35  C   UNL     1      25.827   1.651   7.030  0.00  0.00    +0.045 C 
ENDROOT
BRANCH  10   9
ATOM      4  C   UNL     1      22.857  -0.369   2.767  0.00  0.00    +0.077 A 
ATOM      5  C   UNL     1      23.664  -1.552   2.672  0.00  0.00    +0.048 A 
ATOM      6  C   UNL     1      25.013  -1.452   3.079  0.00  0.00    +0.116 A 
ATOM      7  N   UNL     1      25.508  -0.253   3.545  0.00  0.00    -0.223 NA
ATOM      8  C   UNL     1      24.704   0.869   3.622  0.00  0.00    +0.220 A 
ATOM      9  N   UNL     1      25.179   2.083   4.095  0.00  0.00    -0.283 N 
ATOM     36  H   UNL     1      24.556   2.889   4.130  0.00  0.00    +0.155 HD
ATOM     37  N   UNL     1      23.413   0.800   3.238  0.00  0.00    -0.214 NA
BRANCH   4   3
ATOM      1  C   UNL     1      19.034  -1.149   2.494  0.00  0.00    +0.020 A 
ATOM      2  C   UNL     1      20.417  -1.243   2.901  0.00  0.00    +0.013 A 
ATOM      3  C   UNL     1      21.413  -0.316   2.378  0.00  0.00    +0.019 A 
ATOM     38  C   UNL     1      20.972   0.703   1.437  0.00  0.00    +0.120 A 
ATOM     39  N   UNL     1      19.634   0.769   1.062  0.00  0.00    -0.263 NA
ATOM     40  C   UNL     1      18.668  -0.119   1.558  0.00  0.00    +0.111 A 
ENDBRANCH   4   3
ENDBRANCH  10   9
BRANCH  12  13
ATOM     13  N   UNL     1      29.947   3.042   3.044  0.00  0.00    -0.281 N 
ATOM     14  C   UNL     1      30.699   4.204   3.009  0.00  0.00    +0.248 C 
ATOM     30  O   UNL     1      30.434   5.219   3.637  0.00  0.00    -0.270 OA
ATOM     31  H   UNL     1      30.165   2.345   2.331  0.00  0.00    +0.155 HD
BRANCH  14  15
ATOM     15  C   UNL     1      31.915   4.251   2.141  0.00  0.00    +0.037 A 
ATOM     16  C   UNL     1      32.496   5.528   1.716  0.00  0.00    +0.013 A 
ATOM     17  C   UNL     1      33.659   5.545   0.865  0.00  0.00    +0.005 A 
ATOM     18  C   UNL     1      34.250   4.280   0.434  0.00  0.00    -0.033 A 
ATOM     28  C   UNL     1      33.656   3.029   0.874  0.00  0.00    +0.005 A 
ATOM     29  C   UNL     1      32.516   3.008   1.708  0.00  0.00    +0.013 A 
BRANCH  18  19
ATOM     19  C   UNL     1      35.479   4.203  -0.492  0.00  0.00    +0.119 C 
BRANCH  19  20
ATOM     20  N   UNL     1      36.672   5.018  -0.114  0.00  0.00    -0.302 NA
ATOM     21  C   UNL     1      37.542   5.359  -1.326  0.00  0.00    +0.066 C 
ATOM     22  C   UNL     1      38.774   6.231  -0.916  0.00  0.00    -0.064 C 
ATOM     23  N   UNL     1      39.589   5.489   0.145  0.00  0.00    +0.379 N 
ATOM     24  C   UNL     1      40.779   6.280   0.491  0.00  0.00    -0.096 C 
ATOM     25  H   UNL     1      39.939   4.531  -0.306  0.00  0.00    -0.082 HD
ATOM     26  C   UNL     1      38.730   5.144   1.353  0.00  0.00    -0.064 C 
ATOM     27  C   UNL     1      37.494   4.303   0.930  0.00  0.00    +0.066 C 
ENDBRANCH  19  20
ENDBRANCH  18  19
ENDBRANCH  14  15
ENDBRANCH  12  13
TORSDOF 6
ENDMDL
MODEL 3
REMARK VINA RESULT:      -4.3      5.195      9.880
REMARK  Name = C:\Users\Docking\Desktop\test protocol\1iep_ligandH.pdb
REMARK  8 active torsions:
REMARK  status: ('A' for Active; 'I' for Inactive)
REMARK    1  A    between atoms: _5  and  _11
REMARK    2  A    between atoms: _19  and  _21
REMARK    3  A    between atoms: _22  and  _66
REMARK    4  A    between atoms: _27  and  _30
REMARK    5  A    between atoms: _32  and  _33
REMARK    6  A    between atoms: _38  and  _43
REMARK    7  A    between atoms: _43  and  _46
REMARK    8  A    between atoms: _53  and  _55
REMARK                            x       y       z     vdW  Elec       q    Type
REMARK                         _______ _______ _______ _____ _____    ______ ____
ROOT
ATOM     10  C   UNL     1      23.593  -1.362   2.433  0.00  0.00    +0.038 A 
ATOM     11  C   UNL     1      24.650  -0.422   2.332  0.00  0.00    +0.047 A 
ATOM     12  C   UNL     1      25.914  -0.633   3.021  0.00  0.00    +0.035 A 
ATOM     32  C   UNL     1      26.068  -1.815   3.802  0.00  0.00    +0.024 A 
ATOM     33  C   UNL     1      25.004  -2.781   3.917  0.00  0.00    +0.007 A 
ATOM     34  C   UNL     1      23.754  -2.577   3.242  0.00  0.00    -0.029 A 
ATOM     35  C   UNL     1      22.645  -3.642   3.406  0.00  0.00    +0.045 C 
ENDROOT
BRANCH  10   9
ATOM      4  C   UNL     1      19.222   0.598   2.133  0.00  0.00    +0.077 A 
ATOM      5  C   UNL     1      19.310   1.140   3.458  0.00  0.00    +0.048 A 
ATOM      6  C   UNL     1      20.494   0.886   4.187  0.00  0.00    +0.116 A 
ATOM      7  N   UNL     1      21.508   0.144   3.622  0.00  0.00    -0.223 NA
ATOM      8  C   UNL     1      21.391  -0.366   2.342  0.00  0.00    +0.220 A 
ATOM      9  N   UNL     1      22.401  -1.109   1.751  0.00  0.00    -0.283 N 
ATOM     36  H   UNL     1      22.273  -1.474   0.807  0.00  0.00    +0.155 HD
ATOM     37  N   UNL     1      20.270  -0.139   1.626  0.00  0.00    -0.214 NA
BRANCH   4   3
ATOM      1  C   UNL     1      16.181  -0.099  -0.226  0.00  0.00    +0.020 A 
ATOM      2  C   UNL     1      17.321  -0.332   0.631  0.00  0.00    +0.013 A 
ATOM      3  C   UNL     1      18.037   0.783   1.238  0.00  0.00    +0.019 A 
ATOM     38  C   UNL     1      17.571   2.132   0.955  0.00  0.00    +0.120 A 
ATOM     39  N   UNL     1      16.471   2.326   0.124  0.00  0.00    -0.263 NA
ATOM     40  C   UNL     1      15.775   1.261  -0.466  0.00  0.00    +0.111 A 
ENDBRANCH   4   3
ENDBRANCH  10   9
BRANCH  12  13
ATOM     13  N   UNL     1      27.020   0.290   2.962  0.00  0.00    -0.281 N 
ATOM     14  C   UNL     1      27.147   1.509   3.607  0.00  0.00    +0.248 C 
ATOM     30  O   UNL     1      26.231   2.093   4.169  0.00  0.00    -0.270 OA
ATOM     31  H   UNL     1      27.804   0.011   2.373  0.00  0.00    +0.155 HD
BRANCH  14  15
ATOM     15  C   UNL     1      28.480   2.185   3.619  0.00  0.00    +0.037 A 
ATOM     16  C   UNL     1      28.703   3.439   2.894  0.00  0.00    +0.013 A 
ATOM     17  C   UNL     1      30.003   4.061   2.907  0.00  0.00    +0.005 A 
ATOM     18  C   UNL     1      31.091   3.430   3.650  0.00  0.00    -0.033 A 
ATOM     28  C   UNL     1      30.841   2.189   4.365  0.00  0.00    +0.005 A 
ATOM     29  C   UNL     1      29.568   1.576   4.353  0.00  0.00    +0.013 A 
BRANCH  18  19
ATOM     19  C   UNL     1      32.516   4.012   3.702  0.00  0.00    +0.119 C 
BRANCH  19  20
ATOM     20  N   UNL     1      33.210   4.238   2.399  0.00  0.00    -0.302 NA
ATOM     21  C   UNL     1      33.476   2.927   1.654  0.00  0.00    +0.066 C 
ATOM     22  C   UNL     1      34.182   3.184   0.284  0.00  0.00    -0.064 C 
ATOM     23  N   UNL     1      35.487   3.946   0.520  0.00  0.00    +0.379 N 
ATOM     24  C   UNL     1      36.182   4.138  -0.761  0.00  0.00    -0.096 C 
ATOM     25  H   UNL     1      36.137   3.311   1.166  0.00  0.00    -0.082 HD
ATOM     26  C   UNL     1      35.232   5.250   1.263  0.00  0.00    -0.064 C 
ATOM     27  C   UNL     1      34.504   4.986   2.610  0.00  0.00    +0.066 C 
ENDBRANCH  19  20
ENDBRANCH  18  19
ENDBRANCH  14  15
ENDBRANCH  12  13
TORSDOF 6
ENDMDL
