MODEL 1
REMARK VINA RESULT:      -7.3      0.000      0.000
REMARK  Name = C:\Users\Docking\Desktop\test protocol\1iep_ligandH.pdb
REMARK  8 active torsions:
REMARK  status: ('A' for Active; 'I' for Inactive)
REMARK    1  A    between atoms: _5  and  _11
REMARK    2  A    between atoms: _19  and  _21
REMARK    3  A    between atoms: _22  and  _66
REMARK    4  A    between atoms: _27  and  _30
REMARK    5  A    between atoms: _32  and  _33
REMARK    6  A    between atoms: _38  and  _43
REMARK    7  A    between atoms: _43  and  _46
REMARK    8  A    between atoms: _53  and  _55
REMARK                            x       y       z     vdW  Elec       q    Type
REMARK                         _______ _______ _______ _____ _____    ______ ____
ROOT
ATOM     10  C   UNL     1      63.986 -30.602  -3.828  0.00  0.00    +0.038 A 
ATOM     11  C   UNL     1      63.113 -29.726  -3.136  0.00  0.00    +0.047 A 
ATOM     12  C   UNL     1      61.700 -30.038  -2.982  0.00  0.00    +0.035 A 
ATOM     32  C   UNL     1      61.211 -31.253  -3.544  0.00  0.00    +0.024 A 
ATOM     33  C   UNL     1      62.085 -32.155  -4.252  0.00  0.00    +0.007 A 
ATOM     34  C   UNL     1      63.479 -31.851  -4.410  0.00  0.00    -0.029 A 
ATOM     35  C   UNL     1      64.367 -32.852  -5.184  0.00  0.00    +0.045 C 
ENDROOT
BRANCH  10   9
ATOM      4  C   UNL     1      67.642 -28.571  -6.183  0.00  0.00    +0.077 A 
ATOM      5  C   UNL     1      66.802 -28.196  -7.284  0.00  0.00    +0.048 A 
ATOM      6  C   UNL     1      65.436 -28.551  -7.209  0.00  0.00    +0.116 A 
ATOM      7  N   UNL     1      64.957 -29.230  -6.109  0.00  0.00    -0.223 NA
ATOM      8  C   UNL     1      65.795 -29.578  -5.065  0.00  0.00    +0.220 A 
ATOM      9  N   UNL     1      65.333 -30.254  -3.946  0.00  0.00    -0.283 N 
ATOM     36  H   UNL     1      65.985 -30.498  -3.201  0.00  0.00    +0.155 HD
ATOM     37  N   UNL     1      67.103 -29.251  -5.114  0.00  0.00    -0.214 NA
BRANCH   4   3
ATOM      1  C   UNL     1      71.049 -26.747  -5.579  0.00  0.00    +0.020 A 
ATOM      2  C   UNL     1      69.626 -26.993  -5.626  0.00  0.00    +0.013 A 
ATOM      3  C   UNL     1      69.105 -28.263  -6.115  0.00  0.00    +0.019 A 
ATOM     38  C   UNL     1      70.059 -29.272  -6.552  0.00  0.00    +0.120 A 
ATOM     39  N   UNL     1      71.423 -29.006  -6.497  0.00  0.00    -0.263 NA
ATOM     40  C   UNL     1      71.936 -27.787  -6.030  0.00  0.00    +0.111 A 
ENDBRANCH   4   3
ENDBRANCH  10   9
BRANCH  12  13
ATOM     13  N   UNL     1      60.764 -29.182  -2.295  0.00  0.00    -0.281 N 
ATOM     14  C   UNL     1      59.725 -28.446  -2.841  0.00  0.00    +0.248 C 
ATOM     30  O   UNL     1      59.575 -28.243  -4.037  0.00  0.00    -0.270 OA
ATOM     31  H   UNL     1      60.881 -29.111  -1.285  0.00  0.00    +0.155 HD
BRANCH  14  15
ATOM     15  C   UNL     1      58.714 -27.835  -1.925  0.00  0.00    +0.037 A 
ATOM     16  C   UNL     1      58.613 -26.382  -1.765  0.00  0.00    +0.013 A 
ATOM     17  C   UNL     1      57.641 -25.819  -0.863  0.00  0.00    +0.005 A 
ATOM     18  C   UNL     1      56.759 -26.711  -0.113  0.00  0.00    -0.033 A 
ATOM     28  C   UNL     1      56.877 -28.149  -0.294  0.00  0.00    +0.005 A 
ATOM     29  C   UNL     1      57.830 -28.704  -1.178  0.00  0.00    +0.013 A 
BRANCH  18  19
ATOM     19  C   UNL     1      55.707 -26.199   0.888  0.00  0.00    +0.119 C 
BRANCH  19  20
ATOM     20  N   UNL     1      54.347 -25.892   0.353  0.00  0.00    -0.302 NA
ATOM     21  C   UNL     1      54.253 -24.464  -0.191  0.00  0.00    +0.066 C 
ATOM     22  C   UNL     1      52.830 -24.167  -0.767  0.00  0.00    -0.064 C 
ATOM     23  N   UNL     1      51.782 -24.402   0.322  0.00  0.00    +0.379 N 
ATOM     24  C   UNL     1      50.449 -24.068  -0.199  0.00  0.00    -0.096 C 
ATOM     25  H   UNL     1      52.004 -23.700   1.160  0.00  0.00    -0.082 HD
ATOM     26  C   UNL     1      51.871 -25.819   0.871  0.00  0.00    -0.064 C 
ATOM     27  C   UNL     1      53.297 -26.113   1.414  0.00  0.00    +0.066 C 
ENDBRANCH  19  20
ENDBRANCH  18  19
ENDBRANCH  14  15
ENDBRANCH  12  13
TORSDOF 6
ENDMDL
MODEL 2
REMARK VINA RESULT:      -7.2     14.706     15.795
REMARK  Name = C:\Users\Docking\Desktop\test protocol\1iep_ligandH.pdb
REMARK  8 active torsions:
REMARK  status: ('A' for Active; 'I' for Inactive)
REMARK    1  A    between atoms: _5  and  _11
REMARK    2  A    between atoms: _19  and  _21
REMARK    3  A    between atoms: _22  and  _66
REMARK    4  A    between atoms: _27  and  _30
REMARK    5  A    between atoms: _32  and  _33
REMARK    6  A    between atoms: _38  and  _43
REMARK    7  A    between atoms: _43  and  _46
REMARK    8  A    between atoms: _53  and  _55
REMARK                            x       y       z     vdW  Elec       q    Type
REMARK                         _______ _______ _______ _____ _____    ______ ____
ROOT
ATOM     10  C   UNL     1      69.425 -27.293  11.547  0.00  0.00    +0.038 A 
ATOM     11  C   UNL     1      68.160 -27.473  10.930  0.00  0.00    +0.047 A 
ATOM     12  C   UNL     1      67.154 -26.423  10.955  0.00  0.00    +0.035 A 
ATOM     32  C   UNL     1      67.471 -25.200  11.615  0.00  0.00    +0.024 A 
ATOM     33  C   UNL     1      68.751 -25.000  12.248  0.00  0.00    +0.007 A 
ATOM     34  C   UNL     1      69.746 -26.034  12.229  0.00  0.00    -0.029 A 
ATOM     35  C   UNL     1      71.099 -25.767  12.929  0.00  0.00    +0.045 C 
ENDROOT
BRANCH  10   9
ATOM      4  C   UNL     1      70.932 -31.686  12.757  0.00  0.00    +0.077 A 
ATOM      5  C   UNL     1      69.786 -31.914  13.590  0.00  0.00    +0.048 A 
ATOM      6  C   UNL     1      68.836 -30.873  13.685  0.00  0.00    +0.116 A 
ATOM      7  N   UNL     1      69.027 -29.696  12.994  0.00  0.00    -0.223 NA
ATOM      8  C   UNL     1      70.144 -29.508  12.202  0.00  0.00    +0.220 A 
ATOM      9  N   UNL     1      70.353 -28.335  11.492  0.00  0.00    -0.283 N 
ATOM     36  H   UNL     1      71.194 -28.232  10.924  0.00  0.00    +0.155 HD
ATOM     37  N   UNL     1      71.067 -30.486  12.095  0.00  0.00    -0.214 NA
BRANCH   4   3
ATOM      1  C   UNL     1      73.887 -34.170  13.390  0.00  0.00    +0.020 A 
ATOM      2  C   UNL     1      72.847 -33.199  13.642  0.00  0.00    +0.013 A 
ATOM      3  C   UNL     1      72.022 -32.692  12.552  0.00  0.00    +0.019 A 
ATOM     38  C   UNL     1      72.276 -33.193  11.210  0.00  0.00    +0.120 A 
ATOM     39  N   UNL     1      73.285 -34.127  10.998  0.00  0.00    -0.263 NA
ATOM     40  C   UNL     1      74.087 -34.620  12.038  0.00  0.00    +0.111 A 
ENDBRANCH   4   3
ENDBRANCH  10   9
BRANCH  12  13
ATOM     13  N   UNL     1      65.850 -26.551  10.353  0.00  0.00    -0.281 N 
ATOM     14  C   UNL     1      65.539 -26.642   9.006  0.00  0.00    +0.248 C 
ATOM     30  O   UNL     1      66.324 -26.410   8.098  0.00  0.00    -0.270 OA
ATOM     31  H   UNL     1      65.061 -26.579  10.998  0.00  0.00    +0.155 HD
BRANCH  14  15
ATOM     15  C   UNL     1      64.152 -27.032   8.610  0.00  0.00    +0.037 A 
ATOM     16  C   UNL     1      63.724 -26.999   7.209  0.00  0.00    +0.013 A 
ATOM     17  C   UNL     1      62.374 -27.364   6.857  0.00  0.00    +0.005 A 
ATOM     18  C   UNL     1      61.444 -27.768   7.908  0.00  0.00    -0.033 A 
ATOM     28  C   UNL     1      61.897 -27.797   9.289  0.00  0.00    +0.005 A 
ATOM     29  C   UNL     1      63.218 -27.439   9.638  0.00  0.00    +0.013 A 
BRANCH  18  19
ATOM     19  C   UNL     1      59.980 -28.154   7.626  0.00  0.00    +0.119 C 
BRANCH  19  20
ATOM     20  N   UNL     1      59.049 -28.203   8.793  0.00  0.00    -0.302 NA
ATOM     21  C   UNL     1      58.268 -29.519   8.849  0.00  0.00    +0.066 C 
ATOM     22  C   UNL     1      57.315 -29.563  10.088  0.00  0.00    -0.064 C 
ATOM     23  N   UNL     1      56.361 -28.369  10.037  0.00  0.00    +0.379 N 
ATOM     24  C   UNL     1      55.426 -28.439  11.169  0.00  0.00    -0.096 C 
ATOM     25  H   UNL     1      55.764 -28.453   9.099  0.00  0.00    -0.082 HD
ATOM     26  C   UNL     1      57.129 -27.056   9.978  0.00  0.00    -0.064 C 
ATOM     27  C   UNL     1      58.094 -27.035   8.760  0.00  0.00    +0.066 C 
ENDBRANCH  19  20
ENDBRANCH  18  19
ENDBRANCH  14  15
ENDBRANCH  12  13
TORSDOF 6
ENDMDL
MODEL 3
REMARK VINA RESULT:      -7.2     11.820     14.486
REMARK  Name = C:\Users\Docking\Desktop\test protocol\1iep_ligandH.pdb
REMARK  8 active torsions:
REMARK  status: ('A' for Active; 'I' for Inactive)
REMARK    1  A    between atoms: _5  and  _11
REMARK    2  A    between atoms: _19  and  _21
REMARK    3  A    between atoms: _22  and  _66
REMARK    4  A    between atoms: _27  and  _30
REMARK    5  A    between atoms: _32  and  _33
REMARK    6  A    between atoms: _38  and  _43
REMARK    7  A    between atoms: _43  and  _46
REMARK    8  A    between atoms: _53  and  _55
REMARK                            x       y       z     vdW  Elec       q    Type
REMARK                         _______ _______ _______ _____ _____    ______ ____
ROOT
ATOM     10  C   UNL     1      56.499 -26.706  11.297  0.00  0.00    +0.038 A 
ATOM     11  C   UNL     1      55.525 -26.193  10.402  0.00  0.00    +0.047 A 
ATOM     12  C   UNL     1      54.104 -26.334  10.675  0.00  0.00    +0.035 A 
ATOM     32  C   UNL     1      53.708 -27.002  11.871  0.00  0.00    +0.024 A 
ATOM     33  C   UNL     1      54.685 -27.531  12.791  0.00  0.00    +0.007 A 
ATOM     34  C   UNL     1      56.088 -27.397  12.526  0.00  0.00    -0.029 A 
ATOM     35  C   UNL     1      57.090 -27.989  13.544  0.00  0.00    +0.045 C 
ENDROOT
BRANCH  10   9
ATOM      4  C   UNL     1      60.460 -27.916   8.872  0.00  0.00    +0.077 A 
ATOM      5  C   UNL     1      59.787 -28.982   8.188  0.00  0.00    +0.048 A 
ATOM      6  C   UNL     1      58.424 -29.191   8.494  0.00  0.00    +0.116 A 
ATOM      7  N   UNL     1      57.791 -28.387   9.417  0.00  0.00    -0.223 NA
ATOM      8  C   UNL     1      58.469 -27.368  10.060  0.00  0.00    +0.220 A 
ATOM      9  N   UNL     1      57.850 -26.542  10.985  0.00  0.00    -0.283 N 
ATOM     36  H   UNL     1      58.388 -25.807  11.444  0.00  0.00    +0.155 HD
ATOM     37  N   UNL     1      59.773 -27.149   9.786  0.00  0.00    -0.214 NA
BRANCH   4   3
ATOM      1  C   UNL     1      63.838 -26.878   7.194  0.00  0.00    +0.020 A 
ATOM      2  C   UNL     1      62.439 -27.205   7.350  0.00  0.00    +0.013 A 
ATOM      3  C   UNL     1      61.901 -27.569   8.655  0.00  0.00    +0.019 A 
ATOM     38  C   UNL     1      62.811 -27.591   9.790  0.00  0.00    +0.120 A 
ATOM     39  N   UNL     1      64.153 -27.273   9.609  0.00  0.00    -0.263 NA
ATOM     40  C   UNL     1      64.683 -26.923   8.358  0.00  0.00    +0.111 A 
ENDBRANCH   4   3
ENDBRANCH  10   9
BRANCH  12  13
ATOM     13  N   UNL     1      53.070 -25.841   9.800  0.00  0.00    -0.281 N 
ATOM     14  C   UNL     1      52.347 -24.665   9.914  0.00  0.00    +0.248 C 
ATOM     30  O   UNL     1      52.331 -23.957  10.911  0.00  0.00    -0.270 OA
ATOM     31  H   UNL     1      52.843 -26.430   8.999  0.00  0.00    +0.155 HD
BRANCH  14  15
ATOM     15  C   UNL     1      51.508 -24.217   8.761  0.00  0.00    +0.037 A 
ATOM     16  C   UNL     1      52.024 -23.270   7.769  0.00  0.00    +0.013 A 
ATOM     17  C   UNL     1      51.188 -22.842   6.675  0.00  0.00    +0.005 A 
ATOM     18  C   UNL     1      49.827 -23.363   6.567  0.00  0.00    -0.033 A 
ATOM     28  C   UNL     1      49.343 -24.305   7.562  0.00  0.00    +0.005 A 
ATOM     29  C   UNL     1      50.159 -24.726   8.636  0.00  0.00    +0.013 A 
BRANCH  18  19
ATOM     19  C   UNL     1      48.859 -22.944   5.445  0.00  0.00    +0.119 C 
BRANCH  19  20
ATOM     20  N   UNL     1      49.459 -22.532   4.142  0.00  0.00    -0.302 NA
ATOM     21  C   UNL     1      49.321 -21.027   3.896  0.00  0.00    +0.066 C 
ATOM     22  C   UNL     1      49.975 -20.609   2.539  0.00  0.00    -0.064 C 
ATOM     23  N   UNL     1      49.333 -21.404   1.401  0.00  0.00    +0.379 N 
ATOM     24  C   UNL     1      49.905 -20.972   0.117  0.00  0.00    -0.096 C 
ATOM     25  H   UNL     1      48.246 -21.158   1.387  0.00  0.00    -0.082 HD
ATOM     26  C   UNL     1      49.463 -22.902   1.638  0.00  0.00    -0.064 C 
ATOM     27  C   UNL     1      48.837 -23.302   3.003  0.00  0.00    +0.066 C 
ENDBRANCH  19  20
ENDBRANCH  18  19
ENDBRANCH  14  15
ENDBRANCH  12  13
TORSDOF 6
ENDMDL
MODEL 4
REMARK VINA RESULT:      -7.1     12.018     14.578
REMARK  Name = C:\Users\Docking\Desktop\test protocol\1iep_ligandH.pdb
REMARK  8 active torsions:
REMARK  status: ('A' for Active; 'I' for Inactive)
REMARK    1  A    between atoms: _5  and  _11
REMARK    2  A    between atoms: _19  and  _21
REMARK    3  A    between atoms: _22  and  _66
REMARK    4  A    between atoms: _27  and  _30
REMARK    5  A    between atoms: _32  and  _33
REMARK    6  A    between atoms: _38  and  _43
REMARK    7  A    between atoms: _43  and  _46
REMARK    8  A    between atoms: _53  and  _55
REMARK                            x       y       z     vdW  Elec       q    Type
REMARK                         _______ _______ _______ _____ _____    ______ ____
ROOT
ATOM     10  C   UNL     1      56.452 -26.635  11.162  0.00  0.00    +0.038 A 
ATOM     11  C   UNL     1      55.526 -25.867  10.411  0.00  0.00    +0.047 A 
ATOM     12  C   UNL     1      54.094 -25.971  10.648  0.00  0.00    +0.035 A 
ATOM     32  C   UNL     1      53.641 -26.866  11.661  0.00  0.00    +0.024 A 
ATOM     33  C   UNL     1      54.568 -27.654  12.433  0.00  0.00    +0.007 A 
ATOM     34  C   UNL     1      55.981 -27.558  12.202  0.00  0.00    -0.029 A 
ATOM     35  C   UNL     1      56.929 -28.432  13.056  0.00  0.00    +0.045 C 
ENDROOT
BRANCH  10   9
ATOM      4  C   UNL     1      60.457 -27.893   8.836  0.00  0.00    +0.077 A 
ATOM      5  C   UNL     1      59.782 -28.934   8.116  0.00  0.00    +0.048 A 
ATOM      6  C   UNL     1      58.406 -29.118   8.379  0.00  0.00    +0.116 A 
ATOM      7  N   UNL     1      57.763 -28.315   9.295  0.00  0.00    -0.223 NA
ATOM      8  C   UNL     1      58.444 -27.320   9.973  0.00  0.00    +0.220 A 
ATOM      9  N   UNL     1      57.815 -26.495  10.893  0.00  0.00    -0.283 N 
ATOM     36  H   UNL     1      58.354 -25.778  11.378  0.00  0.00    +0.155 HD
ATOM     37  N   UNL     1      59.759 -27.126   9.741  0.00  0.00    -0.214 NA
BRANCH   4   3
ATOM      1  C   UNL     1      63.899 -26.881   7.277  0.00  0.00    +0.020 A 
ATOM      2  C   UNL     1      62.490 -27.179   7.388  0.00  0.00    +0.013 A 
ATOM      3  C   UNL     1      61.910 -27.574   8.665  0.00  0.00    +0.019 A 
ATOM     38  C   UNL     1      62.790 -27.656   9.821  0.00  0.00    +0.120 A 
ATOM     39  N   UNL     1      64.144 -27.365   9.684  0.00  0.00    -0.263 NA
ATOM     40  C   UNL     1      64.713 -26.986   8.460  0.00  0.00    +0.111 A 
ENDBRANCH   4   3
ENDBRANCH  10   9
BRANCH  12  13
ATOM     13  N   UNL     1      53.106 -25.223   9.911  0.00  0.00    -0.281 N 
ATOM     14  C   UNL     1      52.653 -25.451   8.622  0.00  0.00    +0.248 C 
ATOM     30  O   UNL     1      53.185 -26.210   7.825  0.00  0.00    -0.270 OA
ATOM     31  H   UNL     1      52.691 -24.429  10.398  0.00  0.00    +0.155 HD
BRANCH  14  15
ATOM     15  C   UNL     1      51.440 -24.720   8.144  0.00  0.00    +0.037 A 
ATOM     16  C   UNL     1      51.551 -23.574   7.238  0.00  0.00    +0.013 A 
ATOM     17  C   UNL     1      50.366 -22.876   6.805  0.00  0.00    +0.005 A 
ATOM     18  C   UNL     1      49.058 -23.325   7.278  0.00  0.00    -0.033 A 
ATOM     28  C   UNL     1      48.976 -24.468   8.172  0.00  0.00    +0.005 A 
ATOM     29  C   UNL     1      50.136 -25.154   8.598  0.00  0.00    +0.013 A 
BRANCH  18  19
ATOM     19  C   UNL     1      47.743 -22.627   6.885  0.00  0.00    +0.119 C 
BRANCH  19  20
ATOM     20  N   UNL     1      47.537 -22.321   5.438  0.00  0.00    -0.302 NA
ATOM     21  C   UNL     1      48.115 -20.957   5.051  0.00  0.00    +0.066 C 
ATOM     22  C   UNL     1      47.911 -20.663   3.529  0.00  0.00    -0.064 C 
ATOM     23  N   UNL     1      46.420 -20.733   3.194  0.00  0.00    +0.379 N 
ATOM     24  C   UNL     1      46.220 -20.400   1.777  0.00  0.00    -0.096 C 
ATOM     25  H   UNL     1      45.900 -19.956   3.802  0.00  0.00    -0.082 HD
ATOM     26  C   UNL     1      45.837 -22.086   3.578  0.00  0.00    -0.064 C 
ATOM     27  C   UNL     1      46.071 -22.381   5.086  0.00  0.00    +0.066 C 
ENDBRANCH  19  20
ENDBRANCH  18  19
ENDBRANCH  14  15
ENDBRANCH  12  13
TORSDOF 6
ENDMDL
MODEL 5
REMARK VINA RESULT:      -7.1     11.949     18.298
REMARK  Name = C:\Users\Docking\Desktop\test protocol\1iep_ligandH.pdb
REMARK  8 active torsions:
REMARK  status: ('A' for Active; 'I' for Inactive)
REMARK    1  A    between atoms: _5  and  _11
REMARK    2  A    between atoms: _19  and  _21
REMARK    3  A    between atoms: _22  and  _66
REMARK    4  A    between atoms: _27  and  _30
REMARK    5  A    between atoms: _32  and  _33
REMARK    6  A    between atoms: _38  and  _43
REMARK    7  A    between atoms: _43  and  _46
REMARK    8  A    between atoms: _53  and  _55
REMARK                            x       y       z     vdW  Elec       q    Type
REMARK                         _______ _______ _______ _____ _____    ______ ____
ROOT
ATOM     10  C   UNL     1      53.117 -25.759  10.112  0.00  0.00    +0.038 A 
ATOM     11  C   UNL     1      54.431 -26.158   9.755  0.00  0.00    +0.047 A 
ATOM     12  C   UNL     1      55.563 -25.885  10.625  0.00  0.00    +0.035 A 
ATOM     32  C   UNL     1      55.322 -25.205  11.855  0.00  0.00    +0.024 A 
ATOM     33  C   UNL     1      53.994 -24.791  12.234  0.00  0.00    +0.007 A 
ATOM     34  C   UNL     1      52.873 -25.056  11.378  0.00  0.00    -0.029 A 
ATOM     35  C   UNL     1      51.472 -24.584  11.832  0.00  0.00    +0.045 C 
ENDROOT
BRANCH  10   9
ATOM      4  C   UNL     1      50.184 -24.603   6.494  0.00  0.00    +0.077 A 
ATOM      5  C   UNL     1      50.777 -23.305   6.349  0.00  0.00    +0.048 A 
ATOM      6  C   UNL     1      51.830 -22.971   7.230  0.00  0.00    +0.116 A 
ATOM      7  N   UNL     1      52.250 -23.876   8.181  0.00  0.00    -0.223 NA
ATOM      8  C   UNL     1      51.655 -25.119   8.295  0.00  0.00    +0.220 A 
ATOM      9  N   UNL     1      52.066 -26.047   9.239  0.00  0.00    -0.283 N 
ATOM     36  H   UNL     1      51.597 -26.950   9.296  0.00  0.00    +0.155 HD
ATOM     37  N   UNL     1      50.646 -25.461   7.467  0.00  0.00    -0.214 NA
BRANCH   4   3
ATOM      1  C   UNL     1      46.744 -24.928   4.659  0.00  0.00    +0.020 A 
ATOM      2  C   UNL     1      47.794 -24.402   5.501  0.00  0.00    +0.013 A 
ATOM      3  C   UNL     1      49.064 -25.104   5.636  0.00  0.00    +0.019 A 
ATOM     38  C   UNL     1      49.242 -26.345   4.897  0.00  0.00    +0.120 A 
ATOM     39  N   UNL     1      48.213 -26.828   4.095  0.00  0.00    -0.263 NA
ATOM     40  C   UNL     1      46.986 -26.162   3.959  0.00  0.00    +0.111 A 
ENDBRANCH   4   3
ENDBRANCH  10   9
BRANCH  12  13
ATOM     13  N   UNL     1      56.920 -26.259  10.311  0.00  0.00    -0.281 N 
ATOM     14  C   UNL     1      57.410 -27.521  10.021  0.00  0.00    +0.248 C 
ATOM     30  O   UNL     1      56.791 -28.560  10.197  0.00  0.00    -0.270 OA
ATOM     31  H   UNL     1      57.602 -25.500  10.302  0.00  0.00    +0.155 HD
BRANCH  14  15
ATOM     15  C   UNL     1      58.793 -27.650   9.468  0.00  0.00    +0.037 A 
ATOM     16  C   UNL     1      59.024 -28.138   8.106  0.00  0.00    +0.013 A 
ATOM     17  C   UNL     1      60.369 -28.269   7.603  0.00  0.00    +0.005 A 
ATOM     18  C   UNL     1      61.493 -27.908   8.464  0.00  0.00    -0.033 A 
ATOM     28  C   UNL     1      61.235 -27.421   9.808  0.00  0.00    +0.005 A 
ATOM     29  C   UNL     1      59.918 -27.293  10.305  0.00  0.00    +0.013 A 
BRANCH  18  19
ATOM     19  C   UNL     1      62.962 -28.036   8.018  0.00  0.00    +0.119 C 
BRANCH  19  20
ATOM     20  N   UNL     1      63.979 -27.254   8.783  0.00  0.00    -0.302 NA
ATOM     21  C   UNL     1      64.484 -26.042   7.996  0.00  0.00    +0.066 C 
ATOM     22  C   UNL     1      65.530 -25.223   8.820  0.00  0.00    -0.064 C 
ATOM     23  N   UNL     1      66.693 -26.136   9.212  0.00  0.00    +0.379 N 
ATOM     24  C   UNL     1      67.706 -25.356   9.937  0.00  0.00    -0.096 C 
ATOM     25  H   UNL     1      67.162 -26.509   8.272  0.00  0.00    -0.082 HD
ATOM     26  C   UNL     1      66.200 -27.346   9.993  0.00  0.00    -0.064 C 
ATOM     27  C   UNL     1      65.139 -28.136   9.177  0.00  0.00    +0.066 C 
ENDBRANCH  19  20
ENDBRANCH  18  19
ENDBRANCH  14  15
ENDBRANCH  12  13
TORSDOF 6
ENDMDL
