MODEL 1
REMARK VINA RESULT:      -9.2      0.000      0.000
REMARK  Name = C:\Users\Docking\Desktop\test protocol\1iep_ligandH.pdb
REMARK  8 active torsions:
REMARK  status: ('A' for Active; 'I' for Inactive)
REMARK    1  A    between atoms: _5  and  _11
REMARK    2  A    between atoms: _19  and  _21
REMARK    3  A    between atoms: _22  and  _66
REMARK    4  A    between atoms: _27  and  _30
REMARK    5  A    between atoms: _32  and  _33
REMARK    6  A    between atoms: _38  and  _43
REMARK    7  A    between atoms: _43  and  _46
REMARK    8  A    between atoms: _53  and  _55
REMARK                            x       y       z     vdW  Elec       q    Type
REMARK                         _______ _______ _______ _____ _____    ______ ____
ROOT
ATOM     10  C   UNL     1       8.055  17.178  33.214  0.00  0.00    +0.038 A 
ATOM     11  C   UNL     1       7.146  16.283  32.593  0.00  0.00    +0.047 A 
ATOM     12  C   UNL     1       6.891  16.342  31.162  0.00  0.00    +0.035 A 
ATOM     32  C   UNL     1       7.582  17.323  30.392  0.00  0.00    +0.024 A 
ATOM     33  C   UNL     1       8.508  18.241  31.007  0.00  0.00    +0.007 A 
ATOM     34  C   UNL     1       8.762  18.189  32.419  0.00  0.00    -0.029 A 
ATOM     35  C   UNL     1       9.760  19.203  33.025  0.00  0.00    +0.045 C 
ENDROOT
BRANCH  10   9
ATOM      4  C   UNL     1       9.737  14.893  37.085  0.00  0.00    +0.077 A 
ATOM      5  C   UNL     1      10.221  13.795  36.300  0.00  0.00    +0.048 A 
ATOM      6  C   UNL     1      10.011  13.853  34.904  0.00  0.00    +0.116 A 
ATOM      7  N   UNL     1       9.364  14.934  34.345  0.00  0.00    -0.223 NA
ATOM      8  C   UNL     1       8.908  15.976  35.132  0.00  0.00    +0.220 A 
ATOM      9  N   UNL     1       8.261  17.077  34.591  0.00  0.00    -0.283 N 
ATOM     36  H   UNL     1       7.933  17.821  35.206  0.00  0.00    +0.155 HD
ATOM     37  N   UNL     1       9.095  15.943  36.468  0.00  0.00    -0.214 NA
BRANCH   4   3
ATOM      1  C   UNL     1      10.090  13.941  40.862  0.00  0.00    +0.020 A 
ATOM      2  C   UNL     1       9.946  13.803  39.432  0.00  0.00    +0.013 A 
ATOM      3  C   UNL     1       9.886  14.979  38.572  0.00  0.00    +0.019 A 
ATOM     38  C   UNL     1       9.977  16.290  39.197  0.00  0.00    +0.120 A 
ATOM     39  N   UNL     1      10.114  16.392  40.578  0.00  0.00    -0.263 NA
ATOM     40  C   UNL     1      10.171  15.267  41.415  0.00  0.00    +0.111 A 
ENDBRANCH   4   3
ENDBRANCH  10   9
BRANCH  12  13
ATOM     13  N   UNL     1       5.974  15.465  30.478  0.00  0.00    -0.281 N 
ATOM     14  C   UNL     1       4.629  15.674  30.219  0.00  0.00    +0.248 C 
ATOM     30  O   UNL     1       3.956  16.558  30.728  0.00  0.00    -0.270 OA
ATOM     31  H   UNL     1       6.363  14.583  30.143  0.00  0.00    +0.155 HD
BRANCH  14  15
ATOM     15  C   UNL     1       3.925  14.759  29.269  0.00  0.00    +0.037 A 
ATOM     16  C   UNL     1       4.370  13.376  29.076  0.00  0.00    +0.013 A 
ATOM     17  C   UNL     1       3.684  12.520  28.141  0.00  0.00    +0.005 A 
ATOM     18  C   UNL     1       2.544  13.044  27.393  0.00  0.00    -0.033 A 
ATOM     28  C   UNL     1       2.122  14.418  27.607  0.00  0.00    +0.005 A 
ATOM     29  C   UNL     1       2.792  15.261  28.522  0.00  0.00    +0.013 A 
BRANCH  18  19
ATOM     19  C   UNL     1       1.767  12.209  26.359  0.00  0.00    +0.119 C 
BRANCH  19  20
ATOM     20  N   UNL     1       0.580  11.446  26.849  0.00  0.00    -0.302 NA
ATOM     21  C   UNL     1       0.548  10.017  26.299  0.00  0.00    +0.066 C 
ATOM     22  C   UNL     1      -0.688   9.227  26.840  0.00  0.00    -0.064 C 
ATOM     23  N   UNL     1      -1.970   9.977  26.475  0.00  0.00    +0.379 N 
ATOM     24  C   UNL     1      -3.136   9.207  26.931  0.00  0.00    -0.096 C 
ATOM     25  H   UNL     1      -2.020  10.040  25.363  0.00  0.00    -0.082 HD
ATOM     26  C   UNL     1      -1.945  11.400  27.016  0.00  0.00    -0.064 C 
ATOM     27  C   UNL     1      -0.697  12.167  26.496  0.00  0.00    +0.066 C 
ENDBRANCH  19  20
ENDBRANCH  18  19
ENDBRANCH  14  15
ENDBRANCH  12  13
TORSDOF 6
ENDMDL
MODEL 2
REMARK VINA RESULT:      -9.2     22.472     26.570
REMARK  Name = C:\Users\Docking\Desktop\test protocol\1iep_ligandH.pdb
REMARK  8 active torsions:
REMARK  status: ('A' for Active; 'I' for Inactive)
REMARK    1  A    between atoms: _5  and  _11
REMARK    2  A    between atoms: _19  and  _21
REMARK    3  A    between atoms: _22  and  _66
REMARK    4  A    between atoms: _27  and  _30
REMARK    5  A    between atoms: _32  and  _33
REMARK    6  A    between atoms: _38  and  _43
REMARK    7  A    between atoms: _43  and  _46
REMARK    8  A    between atoms: _53  and  _55
REMARK                            x       y       z     vdW  Elec       q    Type
REMARK                         _______ _______ _______ _____ _____    ______ ____
ROOT
ATOM     10  C   UNL     1      11.215  10.159  59.439  0.00  0.00    +0.038 A 
ATOM     11  C   UNL     1      11.643   9.323  58.376  0.00  0.00    +0.047 A 
ATOM     12  C   UNL     1      10.955   8.078  58.074  0.00  0.00    +0.035 A 
ATOM     32  C   UNL     1       9.832   7.715  58.874  0.00  0.00    +0.024 A 
ATOM     33  C   UNL     1       9.384   8.552  59.959  0.00  0.00    +0.007 A 
ATOM     34  C   UNL     1      10.060   9.780  60.263  0.00  0.00    -0.029 A 
ATOM     35  C   UNL     1       9.540  10.635  61.442  0.00  0.00    +0.045 C 
ENDROOT
BRANCH  10   9
ATOM      4  C   UNL     1      11.603  14.942  59.331  0.00  0.00    +0.077 A 
ATOM      5  C   UNL     1      10.320  15.091  58.708  0.00  0.00    +0.048 A 
ATOM      6  C   UNL     1       9.595  13.912  58.425  0.00  0.00    +0.116 A 
ATOM      7  N   UNL     1      10.123  12.680  58.747  0.00  0.00    -0.223 NA
ATOM      8  C   UNL     1      11.365  12.572  59.346  0.00  0.00    +0.220 A 
ATOM      9  N   UNL     1      11.912  11.344  59.685  0.00  0.00    -0.283 N 
ATOM     36  H   UNL     1      12.834  11.305  60.119  0.00  0.00    +0.155 HD
ATOM     37  N   UNL     1      12.078  13.683  59.625  0.00  0.00    -0.214 NA
BRANCH   4   3
ATOM      1  C   UNL     1      14.746  17.123  60.146  0.00  0.00    +0.020 A 
ATOM      2  C   UNL     1      13.938  15.979  59.791  0.00  0.00    +0.013 A 
ATOM      3  C   UNL     1      12.488  16.093  59.695  0.00  0.00    +0.019 A 
ATOM     38  C   UNL     1      11.883  17.389  59.966  0.00  0.00    +0.120 A 
ATOM     39  N   UNL     1      12.687  18.472  60.308  0.00  0.00    -0.263 NA
ATOM     40  C   UNL     1      14.083  18.374  60.405  0.00  0.00    +0.111 A 
ENDBRANCH   4   3
ENDBRANCH  10   9
BRANCH  12  13
ATOM     13  N   UNL     1      11.349   7.185  57.013  0.00  0.00    -0.281 N 
ATOM     14  C   UNL     1      11.600   7.497  55.687  0.00  0.00    +0.248 C 
ATOM     30  O   UNL     1      11.315   8.563  55.162  0.00  0.00    -0.270 OA
ATOM     31  H   UNL     1      11.456   6.204  57.270  0.00  0.00    +0.155 HD
BRANCH  14  15
ATOM     15  C   UNL     1      12.249   6.472  54.814  0.00  0.00    +0.037 A 
ATOM     16  C   UNL     1      11.536   5.880  53.679  0.00  0.00    +0.013 A 
ATOM     17  C   UNL     1      12.179   4.880  52.863  0.00  0.00    +0.005 A 
ATOM     18  C   UNL     1      13.545   4.467  53.180  0.00  0.00    -0.033 A 
ATOM     28  C   UNL     1      14.230   5.075  54.308  0.00  0.00    +0.005 A 
ATOM     29  C   UNL     1      13.603   6.054  55.111  0.00  0.00    +0.013 A 
BRANCH  18  19
ATOM     19  C   UNL     1      14.301   3.392  52.376  0.00  0.00    +0.119 C 
BRANCH  19  20
ATOM     20  N   UNL     1      13.674   2.922  51.105  0.00  0.00    -0.302 NA
ATOM     21  C   UNL     1      13.933   1.433  50.854  0.00  0.00    +0.066 C 
ATOM     22  C   UNL     1      13.251   0.952  49.532  0.00  0.00    -0.064 C 
ATOM     23  N   UNL     1      13.761   1.796  48.362  0.00  0.00    +0.379 N 
ATOM     24  C   UNL     1      13.166   1.308  47.109  0.00  0.00    -0.096 C 
ATOM     25  H   UNL     1      14.864   1.647  48.294  0.00  0.00    -0.082 HD
ATOM     26  C   UNL     1      13.510   3.277  48.605  0.00  0.00    -0.064 C 
ATOM     27  C   UNL     1      14.167   3.738  49.936  0.00  0.00    +0.066 C 
ENDBRANCH  19  20
ENDBRANCH  18  19
ENDBRANCH  14  15
ENDBRANCH  12  13
TORSDOF 6
ENDMDL
MODEL 3
REMARK VINA RESULT:      -9.0     24.231     27.191
REMARK  Name = C:\Users\Docking\Desktop\test protocol\1iep_ligandH.pdb
REMARK  8 active torsions:
REMARK  status: ('A' for Active; 'I' for Inactive)
REMARK    1  A    between atoms: _5  and  _11
REMARK    2  A    between atoms: _19  and  _21
REMARK    3  A    between atoms: _22  and  _66
REMARK    4  A    between atoms: _27  and  _30
REMARK    5  A    between atoms: _32  and  _33
REMARK    6  A    between atoms: _38  and  _43
REMARK    7  A    between atoms: _43  and  _46
REMARK    8  A    between atoms: _53  and  _55
REMARK                            x       y       z     vdW  Elec       q    Type
REMARK                         _______ _______ _______ _____ _____    ______ ____
ROOT
ATOM     10  C   UNL     1      10.043  12.310  59.651  0.00  0.00    +0.038 A 
ATOM     11  C   UNL     1      10.349  11.571  58.480  0.00  0.00    +0.047 A 
ATOM     12  C   UNL     1      10.324  10.116  58.480  0.00  0.00    +0.035 A 
ATOM     32  C   UNL     1       9.981   9.446  59.690  0.00  0.00    +0.024 A 
ATOM     33  C   UNL     1       9.669  10.182  60.890  0.00  0.00    +0.007 A 
ATOM     34  C   UNL     1       9.694  11.617  60.897  0.00  0.00    -0.029 A 
ATOM     35  C   UNL     1       9.356  12.353  62.214  0.00  0.00    +0.045 C 
ENDROOT
BRANCH  10   9
ATOM      4  C   UNL     1      12.413  16.483  59.701  0.00  0.00    +0.077 A 
ATOM      5  C   UNL     1      13.678  15.831  59.882  0.00  0.00    +0.048 A 
ATOM      6  C   UNL     1      13.674  14.420  59.964  0.00  0.00    +0.116 A 
ATOM      7  N   UNL     1      12.488  13.724  59.871  0.00  0.00    -0.223 NA
ATOM      8  C   UNL     1      11.286  14.385  59.699  0.00  0.00    +0.220 A 
ATOM      9  N   UNL     1      10.082  13.705  59.595  0.00  0.00    -0.283 N 
ATOM     36  H   UNL     1       9.216  14.229  59.475  0.00  0.00    +0.155 HD
ATOM     37  N   UNL     1      11.262  15.731  59.618  0.00  0.00    -0.214 NA
BRANCH   4   3
ATOM      1  C   UNL     1      10.856  20.066  59.507  0.00  0.00    +0.020 A 
ATOM      2  C   UNL     1      10.955  18.629  59.615  0.00  0.00    +0.013 A 
ATOM      3  C   UNL     1      12.254  17.968  59.592  0.00  0.00    +0.019 A 
ATOM     38  C   UNL     1      13.442  18.797  59.460  0.00  0.00    +0.120 A 
ATOM     39  N   UNL     1      13.316  20.179  59.356  0.00  0.00    -0.263 NA
ATOM     40  C   UNL     1      12.071  20.826  59.375  0.00  0.00    +0.111 A 
ENDBRANCH   4   3
ENDBRANCH  10   9
BRANCH  12  13
ATOM     13  N   UNL     1      10.633   9.313  57.323  0.00  0.00    -0.281 N 
ATOM     14  C   UNL     1      11.839   8.711  57.002  0.00  0.00    +0.248 C 
ATOM     30  O   UNL     1      12.901   8.951  57.557  0.00  0.00    -0.270 OA
ATOM     31  H   UNL     1       9.871   9.170  56.661  0.00  0.00    +0.155 HD
BRANCH  14  15
ATOM     15  C   UNL     1      11.873   7.708  55.894  0.00  0.00    +0.037 A 
ATOM     16  C   UNL     1      11.387   8.040  54.553  0.00  0.00    +0.013 A 
ATOM     17  C   UNL     1      11.415   7.048  53.507  0.00  0.00    +0.005 A 
ATOM     18  C   UNL     1      11.933   5.714  53.799  0.00  0.00    -0.033 A 
ATOM     28  C   UNL     1      12.414   5.413  55.137  0.00  0.00    +0.005 A 
ATOM     29  C   UNL     1      12.387   6.382  56.165  0.00  0.00    +0.013 A 
BRANCH  18  19
ATOM     19  C   UNL     1      11.981   4.587  52.750  0.00  0.00    +0.119 C 
BRANCH  19  20
ATOM     20  N   UNL     1      13.326   4.046  52.390  0.00  0.00    -0.302 NA
ATOM     21  C   UNL     1      13.468   3.819  50.882  0.00  0.00    +0.066 C 
ATOM     22  C   UNL     1      14.888   3.273  50.521  0.00  0.00    -0.064 C 
ATOM     23  N   UNL     1      15.144   1.976  51.290  0.00  0.00    +0.379 N 
ATOM     24  C   UNL     1      16.455   1.430  50.908  0.00  0.00    -0.096 C 
ATOM     25  H   UNL     1      14.367   1.240  50.979  0.00  0.00    -0.082 HD
ATOM     26  C   UNL     1      15.001   2.192  52.790  0.00  0.00    -0.064 C 
ATOM     27  C   UNL     1      13.597   2.762  53.135  0.00  0.00    +0.066 C 
ENDBRANCH  19  20
ENDBRANCH  18  19
ENDBRANCH  14  15
ENDBRANCH  12  13
TORSDOF 6
ENDMDL
