MODEL 1
REMARK VINA RESULT:      -8.7      0.000      0.000
REMARK  Name = C:\Users\Docking\Desktop\test protocol\1iep_ligandH.pdb
REMARK  8 active torsions:
REMARK  status: ('A' for Active; 'I' for Inactive)
REMARK    1  A    between atoms: _5  and  _11
REMARK    2  A    between atoms: _19  and  _21
REMARK    3  A    between atoms: _22  and  _66
REMARK    4  A    between atoms: _27  and  _30
REMARK    5  A    between atoms: _32  and  _33
REMARK    6  A    between atoms: _38  and  _43
REMARK    7  A    between atoms: _43  and  _46
REMARK    8  A    between atoms: _53  and  _55
REMARK                            x       y       z     vdW  Elec       q    Type
REMARK                         _______ _______ _______ _____ _____    ______ ____
ROOT
ATOM     10  C   UNL     1       3.140  17.077  25.217  0.00  0.00    +0.038 A 
ATOM     11  C   UNL     1       2.640  17.186  26.540  0.00  0.00    +0.047 A 
ATOM     12  C   UNL     1       2.741  18.434  27.281  0.00  0.00    +0.035 A 
ATOM     32  C   UNL     1       3.354  19.551  26.643  0.00  0.00    +0.024 A 
ATOM     33  C   UNL     1       3.867  19.457  25.299  0.00  0.00    +0.007 A 
ATOM     34  C   UNL     1       3.773  18.228  24.564  0.00  0.00    -0.029 A 
ATOM     35  C   UNL     1       4.347  18.183  23.129  0.00  0.00    +0.045 C 
ENDROOT
BRANCH  10   9
ATOM      4  C   UNL     1       4.773  12.725  24.022  0.00  0.00    +0.077 A 
ATOM      5  C   UNL     1       5.987  12.911  24.764  0.00  0.00    +0.048 A 
ATOM      6  C   UNL     1       6.155  14.144  25.433  0.00  0.00    +0.116 A 
ATOM      7  N   UNL     1       5.176  15.111  25.359  0.00  0.00    -0.223 NA
ATOM      8  C   UNL     1       4.018  14.900  24.633  0.00  0.00    +0.220 A 
ATOM      9  N   UNL     1       3.016  15.855  24.552  0.00  0.00    -0.283 N 
ATOM     36  H   UNL     1       2.181  15.663  24.000  0.00  0.00    +0.155 HD
ATOM     37  N   UNL     1       3.834  13.731  23.984  0.00  0.00    -0.214 NA
BRANCH   4   3
ATOM      1  C   UNL     1       2.822   9.825  22.265  0.00  0.00    +0.020 A 
ATOM      2  C   UNL     1       3.082  11.040  23.002  0.00  0.00    +0.013 A 
ATOM      3  C   UNL     1       4.448  11.475  23.264  0.00  0.00    +0.019 A 
ATOM     38  C   UNL     1       5.538  10.652  22.762  0.00  0.00    +0.120 A 
ATOM     39  N   UNL     1       5.257   9.486  22.056  0.00  0.00    -0.263 NA
ATOM     40  C   UNL     1       3.946   9.056  21.799  0.00  0.00    +0.111 A 
ENDBRANCH   4   3
ENDBRANCH  10   9
BRANCH  12  13
ATOM     13  N   UNL     1       2.259  18.602  28.630  0.00  0.00    -0.281 N 
ATOM     14  C   UNL     1       1.445  19.608  29.124  0.00  0.00    +0.248 C 
ATOM     30  O   UNL     1       1.180  20.639  28.525  0.00  0.00    -0.270 OA
ATOM     31  H   UNL     1       2.555  17.894  29.302  0.00  0.00    +0.155 HD
BRANCH  14  15
ATOM     15  C   UNL     1       0.851  19.452  30.487  0.00  0.00    +0.037 A 
ATOM     16  C   UNL     1       1.629  18.892  31.595  0.00  0.00    +0.013 A 
ATOM     17  C   UNL     1       1.026  18.736  32.895  0.00  0.00    +0.005 A 
ATOM     18  C   UNL     1      -0.362  19.144  33.095  0.00  0.00    -0.033 A 
ATOM     28  C   UNL     1      -1.109  19.702  31.979  0.00  0.00    +0.005 A 
ATOM     29  C   UNL     1      -0.522  19.855  30.703  0.00  0.00    +0.013 A 
BRANCH  18  19
ATOM     19  C   UNL     1      -1.093  18.995  34.443  0.00  0.00    +0.119 C 
BRANCH  19  20
ATOM     20  N   UNL     1      -2.575  19.179  34.441  0.00  0.00    -0.302 NA
ATOM     21  C   UNL     1      -3.104  19.589  35.818  0.00  0.00    +0.066 C 
ATOM     22  C   UNL     1      -4.653  19.798  35.793  0.00  0.00    -0.064 C 
ATOM     23  N   UNL     1      -5.331  18.514  35.313  0.00  0.00    +0.379 N 
ATOM     24  C   UNL     1      -6.790  18.688  35.344  0.00  0.00    -0.096 C 
ATOM     25  H   UNL     1      -5.071  17.705  36.035  0.00  0.00    -0.082 HD
ATOM     26  C   UNL     1      -4.808  18.097  33.946  0.00  0.00    -0.064 C 
ATOM     27  C   UNL     1      -3.264  17.920  33.974  0.00  0.00    +0.066 C 
ENDBRANCH  19  20
ENDBRANCH  18  19
ENDBRANCH  14  15
ENDBRANCH  12  13
TORSDOF 6
ENDMDL
MODEL 2
REMARK VINA RESULT:      -8.6      3.033      4.059
REMARK  Name = C:\Users\Docking\Desktop\test protocol\1iep_ligandH.pdb
REMARK  8 active torsions:
REMARK  status: ('A' for Active; 'I' for Inactive)
REMARK    1  A    between atoms: _5  and  _11
REMARK    2  A    between atoms: _19  and  _21
REMARK    3  A    between atoms: _22  and  _66
REMARK    4  A    between atoms: _27  and  _30
REMARK    5  A    between atoms: _32  and  _33
REMARK    6  A    between atoms: _38  and  _43
REMARK    7  A    between atoms: _43  and  _46
REMARK    8  A    between atoms: _53  and  _55
REMARK                            x       y       z     vdW  Elec       q    Type
REMARK                         _______ _______ _______ _____ _____    ______ ____
ROOT
ATOM     10  C   UNL     1       3.819  17.485  24.635  0.00  0.00    +0.038 A 
ATOM     11  C   UNL     1       3.459  17.841  25.959  0.00  0.00    +0.047 A 
ATOM     12  C   UNL     1       3.707  19.178  26.474  0.00  0.00    +0.035 A 
ATOM     32  C   UNL     1       4.323  20.131  25.610  0.00  0.00    +0.024 A 
ATOM     33  C   UNL     1       4.697  19.786  24.261  0.00  0.00    +0.007 A 
ATOM     34  C   UNL     1       4.456  18.468  23.749  0.00  0.00    -0.029 A 
ATOM     35  C   UNL     1       4.884  18.152  22.297  0.00  0.00    +0.045 C 
ENDROOT
BRANCH  10   9
ATOM      4  C   UNL     1       5.052  12.884  24.048  0.00  0.00    +0.077 A 
ATOM      5  C   UNL     1       6.338  13.091  24.649  0.00  0.00    +0.048 A 
ATOM      6  C   UNL     1       6.646  14.398  25.089  0.00  0.00    +0.116 A 
ATOM      7  N   UNL     1       5.729  15.414  24.935  0.00  0.00    -0.223 NA
ATOM      8  C   UNL     1       4.498  15.181  24.350  0.00  0.00    +0.220 A 
ATOM      9  N   UNL     1       3.557  16.187  24.192  0.00  0.00    -0.283 N 
ATOM     36  H   UNL     1       2.663  15.976  23.749  0.00  0.00    +0.155 HD
ATOM     37  N   UNL     1       4.180  13.942  23.920  0.00  0.00    -0.214 NA
BRANCH   4   3
ATOM      1  C   UNL     1       2.866  10.070  22.434  0.00  0.00    +0.020 A 
ATOM      2  C   UNL     1       3.275  11.371  22.912  0.00  0.00    +0.013 A 
ATOM      3  C   UNL     1       4.579  11.559  23.536  0.00  0.00    +0.019 A 
ATOM     38  C   UNL     1       5.453  10.402  23.660  0.00  0.00    +0.120 A 
ATOM     39  N   UNL     1       5.032   9.162  23.192  0.00  0.00    -0.263 NA
ATOM     40  C   UNL     1       3.778   8.968  22.592  0.00  0.00    +0.111 A 
ENDBRANCH   4   3
ENDBRANCH  10   9
BRANCH  12  13
ATOM     13  N   UNL     1       3.371  19.594  27.813  0.00  0.00    -0.281 N 
ATOM     14  C   UNL     1       2.161  19.446  28.472  0.00  0.00    +0.248 C 
ATOM     30  O   UNL     1       1.115  19.122  27.931  0.00  0.00    -0.270 OA
ATOM     31  H   UNL     1       4.114  20.054  28.339  0.00  0.00    +0.155 HD
BRANCH  14  15
ATOM     15  C   UNL     1       2.103  19.710  29.942  0.00  0.00    +0.037 A 
ATOM     16  C   UNL     1       0.919  19.360  30.730  0.00  0.00    +0.013 A 
ATOM     17  C   UNL     1       0.882  19.641  32.144  0.00  0.00    +0.005 A 
ATOM     18  C   UNL     1       2.036  20.274  32.778  0.00  0.00    -0.033 A 
ATOM     28  C   UNL     1       3.200  20.606  31.974  0.00  0.00    +0.005 A 
ATOM     29  C   UNL     1       3.239  20.333  30.588  0.00  0.00    +0.013 A 
BRANCH  18  19
ATOM     19  C   UNL     1       2.076  20.629  34.277  0.00  0.00    +0.119 C 
BRANCH  19  20
ATOM     20  N   UNL     1       2.727  19.648  35.195  0.00  0.00    -0.302 NA
ATOM     21  C   UNL     1       4.235  19.887  35.315  0.00  0.00    +0.066 C 
ATOM     22  C   UNL     1       4.896  18.866  36.297  0.00  0.00    -0.064 C 
ATOM     23  N   UNL     1       4.611  17.442  35.817  0.00  0.00    +0.379 N 
ATOM     24  C   UNL     1       5.280  16.481  36.705  0.00  0.00    -0.096 C 
ATOM     25  H   UNL     1       5.057  17.332  34.801  0.00  0.00    -0.082 HD
ATOM     26  C   UNL     1       3.114  17.197  35.692  0.00  0.00    -0.064 C 
ATOM     27  C   UNL     1       2.461  18.235  34.737  0.00  0.00    +0.066 C 
ENDBRANCH  19  20
ENDBRANCH  18  19
ENDBRANCH  14  15
ENDBRANCH  12  13
TORSDOF 6
ENDMDL
MODEL 3
REMARK VINA RESULT:      -8.4      1.728      2.445
REMARK  Name = C:\Users\Docking\Desktop\test protocol\1iep_ligandH.pdb
REMARK  8 active torsions:
REMARK  status: ('A' for Active; 'I' for Inactive)
REMARK    1  A    between atoms: _5  and  _11
REMARK    2  A    between atoms: _19  and  _21
REMARK    3  A    between atoms: _22  and  _66
REMARK    4  A    between atoms: _27  and  _30
REMARK    5  A    between atoms: _32  and  _33
REMARK    6  A    between atoms: _38  and  _43
REMARK    7  A    between atoms: _43  and  _46
REMARK    8  A    between atoms: _53  and  _55
REMARK                            x       y       z     vdW  Elec       q    Type
REMARK                         _______ _______ _______ _____ _____    ______ ____
ROOT
ATOM     10  C   UNL     1       3.495  16.913  24.993  0.00  0.00    +0.038 A 
ATOM     11  C   UNL     1       2.890  17.211  26.241  0.00  0.00    +0.047 A 
ATOM     12  C   UNL     1       3.065  18.510  26.870  0.00  0.00    +0.035 A 
ATOM     32  C   UNL     1       3.861  19.484  26.200  0.00  0.00    +0.024 A 
ATOM     33  C   UNL     1       4.484  19.198  24.932  0.00  0.00    +0.007 A 
ATOM     34  C   UNL     1       4.317  17.917  24.307  0.00  0.00    -0.029 A 
ATOM     35  C   UNL     1       5.014  17.663  22.950  0.00  0.00    +0.045 C 
ENDROOT
BRANCH  10   9
ATOM      4  C   UNL     1       4.881  12.401  24.118  0.00  0.00    +0.077 A 
ATOM      5  C   UNL     1       6.123  12.586  24.811  0.00  0.00    +0.048 A 
ATOM      6  C   UNL     1       6.370  13.859  25.372  0.00  0.00    +0.116 A 
ATOM      7  N   UNL     1       5.437  14.865  25.244  0.00  0.00    -0.223 NA
ATOM      8  C   UNL     1       4.249  14.654  24.568  0.00  0.00    +0.220 A 
ATOM      9  N   UNL     1       3.293  15.649  24.434  0.00  0.00    -0.283 N 
ATOM     36  H   UNL     1       2.433  15.456  23.921  0.00  0.00    +0.155 HD
ATOM     37  N   UNL     1       3.990  13.448  24.022  0.00  0.00    -0.214 NA
BRANCH   4   3
ATOM      1  C   UNL     1       2.906   9.703  22.089  0.00  0.00    +0.020 A 
ATOM      2  C   UNL     1       3.253  10.970  22.690  0.00  0.00    +0.013 A 
ATOM      3  C   UNL     1       4.473  11.113  23.474  0.00  0.00    +0.019 A 
ATOM     38  C   UNL     1       5.327   9.945  23.631  0.00  0.00    +0.120 A 
ATOM     39  N   UNL     1       4.967   8.738  23.042  0.00  0.00    -0.263 NA
ATOM     40  C   UNL     1       3.794   8.588  22.287  0.00  0.00    +0.111 A 
ENDBRANCH   4   3
ENDBRANCH  10   9
BRANCH  12  13
ATOM     13  N   UNL     1       2.482  18.868  28.140  0.00  0.00    -0.281 N 
ATOM     14  C   UNL     1       1.284  19.524  28.372  0.00  0.00    +0.248 C 
ATOM     30  O   UNL     1       0.631  20.096  27.512  0.00  0.00    -0.270 OA
ATOM     31  H   UNL     1       3.017  18.605  28.968  0.00  0.00    +0.155 HD
BRANCH  14  15
ATOM     15  C   UNL     1       0.740  19.562  29.764  0.00  0.00    +0.037 A 
ATOM     16  C   UNL     1       1.585  19.249  30.919  0.00  0.00    +0.013 A 
ATOM     17  C   UNL     1       1.031  19.278  32.249  0.00  0.00    +0.005 A 
ATOM     18  C   UNL     1      -0.377  19.622  32.432  0.00  0.00    -0.033 A 
ATOM     28  C   UNL     1      -1.191  19.933  31.269  0.00  0.00    +0.005 A 
ATOM     29  C   UNL     1      -0.652  19.905  29.963  0.00  0.00    +0.013 A 
BRANCH  18  19
ATOM     19  C   UNL     1      -1.058  19.656  33.813  0.00  0.00    +0.119 C 
BRANCH  19  20
ATOM     20  N   UNL     1      -0.453  18.822  34.894  0.00  0.00    -0.302 NA
ATOM     21  C   UNL     1      -1.487  18.404  35.944  0.00  0.00    +0.066 C 
ATOM     22  C   UNL     1      -0.841  17.514  37.055  0.00  0.00    -0.064 C 
ATOM     23  N   UNL     1       0.315  18.274  37.706  0.00  0.00    +0.379 N 
ATOM     24  C   UNL     1       0.887  17.462  38.791  0.00  0.00    -0.096 C 
ATOM     25  H   UNL     1      -0.104  19.201  38.162  0.00  0.00    -0.082 HD
ATOM     26  C   UNL     1       1.346  18.696  36.669  0.00  0.00    -0.064 C 
ATOM     27  C   UNL     1       0.689  19.555  35.554  0.00  0.00    +0.066 C 
ENDBRANCH  19  20
ENDBRANCH  18  19
ENDBRANCH  14  15
ENDBRANCH  12  13
TORSDOF 6
ENDMDL
MODEL 4
REMARK VINA RESULT:      -8.3      6.743     12.073
REMARK  Name = C:\Users\Docking\Desktop\test protocol\1iep_ligandH.pdb
REMARK  8 active torsions:
REMARK  status: ('A' for Active; 'I' for Inactive)
REMARK    1  A    between atoms: _5  and  _11
REMARK    2  A    between atoms: _19  and  _21
REMARK    3  A    between atoms: _22  and  _66
REMARK    4  A    between atoms: _27  and  _30
REMARK    5  A    between atoms: _32  and  _33
REMARK    6  A    between atoms: _38  and  _43
REMARK    7  A    between atoms: _43  and  _46
REMARK    8  A    between atoms: _53  and  _55
REMARK                            x       y       z     vdW  Elec       q    Type
REMARK                         _______ _______ _______ _____ _____    ______ ____
ROOT
ATOM     10  C   UNL     1       3.914  15.889  24.256  0.00  0.00    +0.038 A 
ATOM     11  C   UNL     1       5.171  16.234  23.696  0.00  0.00    +0.047 A 
ATOM     12  C   UNL     1       5.579  17.624  23.562  0.00  0.00    +0.035 A 
ATOM     32  C   UNL     1       4.683  18.637  24.010  0.00  0.00    +0.024 A 
ATOM     33  C   UNL     1       3.401  18.305  24.580  0.00  0.00    +0.007 A 
ATOM     34  C   UNL     1       2.992  16.936  24.713  0.00  0.00    -0.029 A 
ATOM     35  C   UNL     1       1.604  16.638  25.326  0.00  0.00    +0.045 C 
ENDROOT
BRANCH  10   9
ATOM      4  C   UNL     1       4.376  11.293  22.952  0.00  0.00    +0.077 A 
ATOM      5  C   UNL     1       5.359  11.613  21.958  0.00  0.00    +0.048 A 
ATOM      6  C   UNL     1       5.714  12.972  21.809  0.00  0.00    +0.116 A 
ATOM      7  N   UNL     1       5.122  13.932  22.600  0.00  0.00    -0.223 NA
ATOM      8  C   UNL     1       4.175  13.591  23.549  0.00  0.00    +0.220 A 
ATOM      9  N   UNL     1       3.573  14.539  24.361  0.00  0.00    -0.283 N 
ATOM     36  H   UNL     1       2.874  14.247  25.044  0.00  0.00    +0.155 HD
ATOM     37  N   UNL     1       3.819  12.299  23.709  0.00  0.00    -0.214 NA
BRANCH   4   3
ATOM      1  C   UNL     1       2.303   7.976  22.900  0.00  0.00    +0.020 A 
ATOM      2  C   UNL     1       2.720   9.326  22.596  0.00  0.00    +0.013 A 
ATOM      3  C   UNL     1       3.899   9.901  23.231  0.00  0.00    +0.019 A 
ATOM     38  C   UNL     1       4.640   9.078  24.174  0.00  0.00    +0.120 A 
ATOM     39  N   UNL     1       4.214   7.783  24.448  0.00  0.00    -0.263 NA
ATOM     40  C   UNL     1       3.080   7.219  23.845  0.00  0.00    +0.111 A 
ENDBRANCH   4   3
ENDBRANCH  10   9
BRANCH  12  13
ATOM     13  N   UNL     1       6.839  18.034  22.994  0.00  0.00    -0.281 N 
ATOM     14  C   UNL     1       7.053  18.800  21.859  0.00  0.00    +0.248 C 
ATOM     30  O   UNL     1       6.191  19.071  21.036  0.00  0.00    -0.270 OA
ATOM     31  H   UNL     1       7.675  17.723  23.488  0.00  0.00    +0.155 HD
BRANCH  14  15
ATOM     15  C   UNL     1       8.425  19.330  21.594  0.00  0.00    +0.037 A 
ATOM     16  C   UNL     1       9.558  18.428  21.374  0.00  0.00    +0.013 A 
ATOM     17  C   UNL     1      10.875  18.965  21.136  0.00  0.00    +0.005 A 
ATOM     18  C   UNL     1      11.064  20.414  21.116  0.00  0.00    -0.033 A 
ATOM     28  C   UNL     1       9.921  21.285  21.333  0.00  0.00    +0.005 A 
ATOM     29  C   UNL     1       8.630  20.762  21.566  0.00  0.00    +0.013 A 
BRANCH  18  19
ATOM     19  C   UNL     1      12.437  21.074  20.892  0.00  0.00    +0.119 C 
BRANCH  19  20
ATOM     20  N   UNL     1      13.008  21.866  22.022  0.00  0.00    -0.302 NA
ATOM     21  C   UNL     1      14.516  22.082  21.868  0.00  0.00    +0.066 C 
ATOM     22  C   UNL     1      15.093  22.931  23.047  0.00  0.00    -0.064 C 
ATOM     23  N   UNL     1      14.778  22.237  24.373  0.00  0.00    +0.379 N 
ATOM     24  C   UNL     1      15.370  23.002  25.480  0.00  0.00    -0.096 C 
ATOM     25  H   UNL     1      15.268  21.235  24.355  0.00  0.00    -0.082 HD
ATOM     26  C   UNL     1      13.281  22.015  24.534  0.00  0.00    -0.064 C 
ATOM     27  C   UNL     1      12.712  21.196  23.341  0.00  0.00    +0.066 C 
ENDBRANCH  19  20
ENDBRANCH  18  19
ENDBRANCH  14  15
ENDBRANCH  12  13
TORSDOF 6
ENDMDL
MODEL 5
REMARK VINA RESULT:      -8.2     17.939     24.514
REMARK  Name = C:\Users\Docking\Desktop\test protocol\1iep_ligandH.pdb
REMARK  8 active torsions:
REMARK  status: ('A' for Active; 'I' for Inactive)
REMARK    1  A    between atoms: _5  and  _11
REMARK    2  A    between atoms: _19  and  _21
REMARK    3  A    between atoms: _22  and  _66
REMARK    4  A    between atoms: _27  and  _30
REMARK    5  A    between atoms: _32  and  _33
REMARK    6  A    between atoms: _38  and  _43
REMARK    7  A    between atoms: _43  and  _46
REMARK    8  A    between atoms: _53  and  _55
REMARK                            x       y       z     vdW  Elec       q    Type
REMARK                         _______ _______ _______ _____ _____    ______ ____
ROOT
ATOM     10  C   UNL     1      15.270  -2.526  16.059  0.00  0.00    +0.038 A 
ATOM     11  C   UNL     1      15.250  -1.108  16.015  0.00  0.00    +0.047 A 
ATOM     12  C   UNL     1      16.478  -0.335  16.117  0.00  0.00    +0.035 A 
ATOM     32  C   UNL     1      17.709  -1.038  16.262  0.00  0.00    +0.024 A 
ATOM     33  C   UNL     1      17.747  -2.479  16.310  0.00  0.00    +0.007 A 
ATOM     34  C   UNL     1      16.539  -3.247  16.212  0.00  0.00    -0.029 A 
ATOM     35  C   UNL     1      16.639  -4.789  16.276  0.00  0.00    +0.045 C 
ENDROOT
BRANCH  10   9
ATOM      4  C   UNL     1      11.385  -4.571  17.999  0.00  0.00    +0.077 A 
ATOM      5  C   UNL     1      11.813  -4.258  19.332  0.00  0.00    +0.048 A 
ATOM      6  C   UNL     1      13.042  -3.576  19.475  0.00  0.00    +0.116 A 
ATOM      7  N   UNL     1      13.780  -3.237  18.362  0.00  0.00    -0.223 NA
ATOM      8  C   UNL     1      13.339  -3.556  17.090  0.00  0.00    +0.220 A 
ATOM      9  N   UNL     1      14.061  -3.218  15.956  0.00  0.00    -0.283 N 
ATOM     36  H   UNL     1      13.706  -3.477  15.036  0.00  0.00    +0.155 HD
ATOM     37  N   UNL     1      12.169  -4.208  16.927  0.00  0.00    -0.214 NA
BRANCH   4   3
ATOM      1  C   UNL     1       8.643  -7.340  17.654  0.00  0.00    +0.020 A 
ATOM      2  C   UNL     1       9.896  -6.697  17.979  0.00  0.00    +0.013 A 
ATOM      3  C   UNL     1      10.108  -5.286  17.684  0.00  0.00    +0.019 A 
ATOM     38  C   UNL     1       9.023  -4.547  17.056  0.00  0.00    +0.120 A 
ATOM     39  N   UNL     1       7.828  -5.192  16.754  0.00  0.00    -0.263 NA
ATOM     40  C   UNL     1       7.613  -6.550  17.031  0.00  0.00    +0.111 A 
ENDBRANCH   4   3
ENDBRANCH  10   9
BRANCH  12  13
ATOM     13  N   UNL     1      16.519   1.106  16.086  0.00  0.00    -0.281 N 
ATOM     14  C   UNL     1      16.389   1.938  14.987  0.00  0.00    +0.248 C 
ATOM     30  O   UNL     1      16.431   1.561  13.825  0.00  0.00    -0.270 OA
ATOM     31  H   UNL     1      16.661   1.569  16.984  0.00  0.00    +0.155 HD
BRANCH  14  15
ATOM     15  C   UNL     1      16.200   3.404  15.209  0.00  0.00    +0.037 A 
ATOM     16  C   UNL     1      16.837   4.394  14.337  0.00  0.00    +0.013 A 
ATOM     17  C   UNL     1      16.652   5.802  14.583  0.00  0.00    +0.005 A 
ATOM     18  C   UNL     1      15.822   6.228  15.708  0.00  0.00    -0.033 A 
ATOM     28  C   UNL     1      15.197   5.225  16.554  0.00  0.00    +0.005 A 
ATOM     29  C   UNL     1      15.378   3.844  16.316  0.00  0.00    +0.013 A 
BRANCH  18  19
ATOM     19  C   UNL     1      15.586   7.709  16.059  0.00  0.00    +0.119 C 
BRANCH  19  20
ATOM     20  N   UNL     1      14.185   8.125  16.364  0.00  0.00    -0.302 NA
ATOM     21  C   UNL     1      13.313   8.175  15.106  0.00  0.00    +0.066 C 
ATOM     22  C   UNL     1      11.845   8.589  15.448  0.00  0.00    -0.064 C 
ATOM     23  N   UNL     1      11.852   9.945  16.156  0.00  0.00    +0.379 N 
ATOM     24  C   UNL     1      10.469  10.365  16.426  0.00  0.00    -0.096 C 
ATOM     25  H   UNL     1      12.301  10.689  15.457  0.00  0.00    -0.082 HD
ATOM     26  C   UNL     1      12.719   9.905  17.406  0.00  0.00    -0.064 C 
ATOM     27  C   UNL     1      14.168   9.464  17.060  0.00  0.00    +0.066 C 
ENDBRANCH  19  20
ENDBRANCH  18  19
ENDBRANCH  14  15
ENDBRANCH  12  13
TORSDOF 6
ENDMDL
