MODEL 1
REMARK VINA RESULT:      -8.4      0.000      0.000
REMARK  Name = C:\Users\Docking\Desktop\test protocol\1iep_ligandH.pdb
REMARK  8 active torsions:
REMARK  status: ('A' for Active; 'I' for Inactive)
REMARK    1  A    between atoms: _5  and  _11
REMARK    2  A    between atoms: _19  and  _21
REMARK    3  A    between atoms: _22  and  _66
REMARK    4  A    between atoms: _27  and  _30
REMARK    5  A    between atoms: _32  and  _33
REMARK    6  A    between atoms: _38  and  _43
REMARK    7  A    between atoms: _43  and  _46
REMARK    8  A    between atoms: _53  and  _55
REMARK                            x       y       z     vdW  Elec       q    Type
REMARK                         _______ _______ _______ _____ _____    ______ ____
ROOT
ATOM     10  C   UNL     1      41.422  40.040   5.160  0.00  0.00    +0.038 A 
ATOM     11  C   UNL     1      42.295  39.695   6.223  0.00  0.00    +0.047 A 
ATOM     12  C   UNL     1      43.113  38.493   6.166  0.00  0.00    +0.035 A 
ATOM     32  C   UNL     1      43.018  37.666   5.008  0.00  0.00    +0.024 A 
ATOM     33  C   UNL     1      42.136  38.002   3.919  0.00  0.00    +0.007 A 
ATOM     34  C   UNL     1      41.325  39.184   3.971  0.00  0.00    -0.029 A 
ATOM     35  C   UNL     1      40.392  39.491   2.776  0.00  0.00    +0.045 C 
ENDROOT
BRANCH  10   9
ATOM      4  C   UNL     1      37.360  42.356   6.241  0.00  0.00    +0.077 A 
ATOM      5  C   UNL     1      36.690  41.138   6.595  0.00  0.00    +0.048 A 
ATOM      6  C   UNL     1      37.424  39.936   6.479  0.00  0.00    +0.116 A 
ATOM      7  N   UNL     1      38.730  39.963   6.039  0.00  0.00    -0.223 NA
ATOM      8  C   UNL     1      39.346  41.154   5.704  0.00  0.00    +0.220 A 
ATOM      9  N   UNL     1      40.660  41.205   5.267  0.00  0.00    -0.283 N 
ATOM     36  H   UNL     1      41.076  42.104   5.022  0.00  0.00    +0.155 HD
ATOM     37  N   UNL     1      38.666  42.315   5.805  0.00  0.00    -0.214 NA
BRANCH   4   3
ATOM      1  C   UNL     1      36.665  46.185   5.844  0.00  0.00    +0.020 A 
ATOM      2  C   UNL     1      37.326  44.904   5.747  0.00  0.00    +0.013 A 
ATOM      3  C   UNL     1      36.719  43.707   6.314  0.00  0.00    +0.019 A 
ATOM     38  C   UNL     1      35.430  43.841   6.977  0.00  0.00    +0.120 A 
ATOM     39  N   UNL     1      34.818  45.087   7.057  0.00  0.00    -0.263 NA
ATOM     40  C   UNL     1      35.394  46.247   6.517  0.00  0.00    +0.111 A 
ENDBRANCH   4   3
ENDBRANCH  10   9
BRANCH  12  13
ATOM     13  N   UNL     1      44.011  38.087   7.218  0.00  0.00    -0.281 N 
ATOM     14  C   UNL     1      45.346  38.422   7.375  0.00  0.00    +0.248 C 
ATOM     30  O   UNL     1      46.031  38.951   6.512  0.00  0.00    -0.270 OA
ATOM     31  H   UNL     1      43.614  37.480   7.935  0.00  0.00    +0.155 HD
BRANCH  14  15
ATOM     15  C   UNL     1      46.021  38.110   8.671  0.00  0.00    +0.037 A 
ATOM     16  C   UNL     1      45.268  37.587   9.814  0.00  0.00    +0.013 A 
ATOM     17  C   UNL     1      45.941  37.311  11.058  0.00  0.00    +0.005 A 
ATOM     18  C   UNL     1      47.377  37.557  11.166  0.00  0.00    -0.033 A 
ATOM     28  C   UNL     1      48.101  38.071  10.015  0.00  0.00    +0.005 A 
ATOM     29  C   UNL     1      47.445  38.344   8.794  0.00  0.00    +0.013 A 
BRANCH  18  19
ATOM     19  C   UNL     1      48.173  37.311  12.461  0.00  0.00    +0.119 C 
BRANCH  19  20
ATOM     20  N   UNL     1      48.878  36.001  12.592  0.00  0.00    -0.302 NA
ATOM     21  C   UNL     1      48.020  34.957  13.311  0.00  0.00    +0.066 C 
ATOM     22  C   UNL     1      48.763  33.586  13.420  0.00  0.00    -0.064 C 
ATOM     23  N   UNL     1      50.094  33.787  14.147  0.00  0.00    +0.379 N 
ATOM     24  C   UNL     1      50.769  32.490  14.303  0.00  0.00    -0.096 C 
ATOM     25  H   UNL     1      49.866  34.174  15.168  0.00  0.00    -0.082 HD
ATOM     26  C   UNL     1      50.953  34.826  13.441  0.00  0.00    -0.064 C 
ATOM     27  C   UNL     1      50.193  36.175  13.312  0.00  0.00    +0.066 C 
ENDBRANCH  19  20
ENDBRANCH  18  19
ENDBRANCH  14  15
ENDBRANCH  12  13
TORSDOF 6
ENDMDL
MODEL 2
REMARK VINA RESULT:      -7.8      2.307      3.544
REMARK  Name = C:\Users\Docking\Desktop\test protocol\1iep_ligandH.pdb
REMARK  8 active torsions:
REMARK  status: ('A' for Active; 'I' for Inactive)
REMARK    1  A    between atoms: _5  and  _11
REMARK    2  A    between atoms: _19  and  _21
REMARK    3  A    between atoms: _22  and  _66
REMARK    4  A    between atoms: _27  and  _30
REMARK    5  A    between atoms: _32  and  _33
REMARK    6  A    between atoms: _38  and  _43
REMARK    7  A    between atoms: _43  and  _46
REMARK    8  A    between atoms: _53  and  _55
REMARK                            x       y       z     vdW  Elec       q    Type
REMARK                         _______ _______ _______ _____ _____    ______ ____
ROOT
ATOM     10  C   UNL     1      39.220  40.789   5.511  0.00  0.00    +0.038 A 
ATOM     11  C   UNL     1      40.400  40.552   6.263  0.00  0.00    +0.047 A 
ATOM     12  C   UNL     1      41.557  39.906   5.664  0.00  0.00    +0.035 A 
ATOM     32  C   UNL     1      41.479  39.516   4.295  0.00  0.00    +0.024 A 
ATOM     33  C   UNL     1      40.288  39.748   3.516  0.00  0.00    +0.007 A 
ATOM     34  C   UNL     1      39.143  40.383   4.103  0.00  0.00    -0.029 A 
ATOM     35  C   UNL     1      37.890  40.601   3.222  0.00  0.00    +0.045 C 
ENDROOT
BRANCH  10   9
ATOM      4  C   UNL     1      36.564  44.662   6.501  0.00  0.00    +0.077 A 
ATOM      5  C   UNL     1      37.417  45.518   5.729  0.00  0.00    +0.048 A 
ATOM      6  C   UNL     1      38.533  44.924   5.098  0.00  0.00    +0.116 A 
ATOM      7  N   UNL     1      38.768  43.573   5.237  0.00  0.00    -0.223 NA
ATOM      8  C   UNL     1      37.926  42.776   5.990  0.00  0.00    +0.220 A 
ATOM      9  N   UNL     1      38.139  41.414   6.137  0.00  0.00    -0.283 N 
ATOM     36  H   UNL     1      37.499  40.862   6.707  0.00  0.00    +0.155 HD
ATOM     37  N   UNL     1      36.855  43.320   6.604  0.00  0.00    -0.214 NA
BRANCH   4   3
ATOM      1  C   UNL     1      33.803  45.190   9.222  0.00  0.00    +0.020 A 
ATOM      2  C   UNL     1      34.993  44.696   8.567  0.00  0.00    +0.013 A 
ATOM      3  C   UNL     1      35.343  45.141   7.224  0.00  0.00    +0.019 A 
ATOM     38  C   UNL     1      34.462  46.094   6.566  0.00  0.00    +0.120 A 
ATOM     39  N   UNL     1      33.322  46.551   7.220  0.00  0.00    -0.263 NA
ATOM     40  C   UNL     1      32.974  46.129   8.512  0.00  0.00    +0.111 A 
ENDBRANCH   4   3
ENDBRANCH  10   9
BRANCH  12  13
ATOM     13  N   UNL     1      42.778  39.632   6.379  0.00  0.00    -0.281 N 
ATOM     14  C   UNL     1      43.559  38.489   6.325  0.00  0.00    +0.248 C 
ATOM     30  O   UNL     1      43.209  37.437   5.810  0.00  0.00    -0.270 OA
ATOM     31  H   UNL     1      43.107  40.370   7.002  0.00  0.00    +0.155 HD
BRANCH  14  15
ATOM     15  C   UNL     1      44.919  38.513   6.944  0.00  0.00    +0.037 A 
ATOM     16  C   UNL     1      45.219  37.739   8.151  0.00  0.00    +0.013 A 
ATOM     17  C   UNL     1      46.534  37.794   8.738  0.00  0.00    +0.005 A 
ATOM     18  C   UNL     1      47.561  38.626   8.116  0.00  0.00    -0.033 A 
ATOM     28  C   UNL     1      47.238  39.380   6.916  0.00  0.00    +0.005 A 
ATOM     29  C   UNL     1      45.950  39.329   6.338  0.00  0.00    +0.013 A 
BRANCH  18  19
ATOM     19  C   UNL     1      48.986  38.762   8.685  0.00  0.00    +0.119 C 
BRANCH  19  20
ATOM     20  N   UNL     1      49.117  38.976  10.157  0.00  0.00    -0.302 NA
ATOM     21  C   UNL     1      50.148  40.058  10.491  0.00  0.00    +0.066 C 
ATOM     22  C   UNL     1      50.256  40.285  12.034  0.00  0.00    -0.064 C 
ATOM     23  N   UNL     1      50.615  38.965  12.717  0.00  0.00    +0.379 N 
ATOM     24  C   UNL     1      50.774  39.188  14.162  0.00  0.00    -0.096 C 
ATOM     25  H   UNL     1      51.601  38.634  12.315  0.00  0.00    -0.082 HD
ATOM     26  C   UNL     1      49.596  37.883  12.389  0.00  0.00    -0.064 C 
ATOM     27  C   UNL     1      49.476  37.686  10.852  0.00  0.00    +0.066 C 
ENDBRANCH  19  20
ENDBRANCH  18  19
ENDBRANCH  14  15
ENDBRANCH  12  13
TORSDOF 6
ENDMDL
MODEL 3
REMARK VINA RESULT:      -7.7      2.140     13.417
REMARK  Name = C:\Users\Docking\Desktop\test protocol\1iep_ligandH.pdb
REMARK  8 active torsions:
REMARK  status: ('A' for Active; 'I' for Inactive)
REMARK    1  A    between atoms: _5  and  _11
REMARK    2  A    between atoms: _19  and  _21
REMARK    3  A    between atoms: _22  and  _66
REMARK    4  A    between atoms: _27  and  _30
REMARK    5  A    between atoms: _32  and  _33
REMARK    6  A    between atoms: _38  and  _43
REMARK    7  A    between atoms: _43  and  _46
REMARK    8  A    between atoms: _53  and  _55
REMARK                            x       y       z     vdW  Elec       q    Type
REMARK                         _______ _______ _______ _____ _____    ______ ____
ROOT
ATOM     10  C   UNL     1      42.982  38.530   5.855  0.00  0.00    +0.038 A 
ATOM     11  C   UNL     1      42.029  39.553   6.092  0.00  0.00    +0.047 A 
ATOM     12  C   UNL     1      41.270  40.142   5.000  0.00  0.00    +0.035 A 
ATOM     32  C   UNL     1      41.505  39.663   3.678  0.00  0.00    +0.024 A 
ATOM     33  C   UNL     1      42.471  38.624   3.419  0.00  0.00    +0.007 A 
ATOM     34  C   UNL     1      43.225  38.042   4.492  0.00  0.00    -0.029 A 
ATOM     35  C   UNL     1      44.252  36.936   4.156  0.00  0.00    +0.045 C 
ENDROOT
BRANCH  10   9
ATOM      4  C   UNL     1      46.886  38.225   8.632  0.00  0.00    +0.077 A 
ATOM      5  C   UNL     1      47.599  39.182   7.836  0.00  0.00    +0.048 A 
ATOM      6  C   UNL     1      46.928  39.723   6.716  0.00  0.00    +0.116 A 
ATOM      7  N   UNL     1      45.640  39.331   6.424  0.00  0.00    -0.223 NA
ATOM      8  C   UNL     1      44.981  38.404   7.212  0.00  0.00    +0.220 A 
ATOM      9  N   UNL     1      43.683  38.001   6.941  0.00  0.00    -0.283 N 
ATOM     36  H   UNL     1      43.234  37.310   7.542  0.00  0.00    +0.155 HD
ATOM     37  N   UNL     1      45.601  37.871   8.285  0.00  0.00    -0.214 NA
BRANCH   4   3
ATOM      1  C   UNL     1      47.314  36.772  12.238  0.00  0.00    +0.020 A 
ATOM      2  C   UNL     1      46.714  37.417  11.093  0.00  0.00    +0.013 A 
ATOM      3  C   UNL     1      47.458  37.566   9.848  0.00  0.00    +0.019 A 
ATOM     38  C   UNL     1      48.816  37.046   9.795  0.00  0.00    +0.120 A 
ATOM     39  N   UNL     1      49.367  36.431  10.914  0.00  0.00    -0.263 NA
ATOM     40  C   UNL     1      48.662  36.284  12.118  0.00  0.00    +0.111 A 
ENDBRANCH   4   3
ENDBRANCH  10   9
BRANCH  12  13
ATOM     13  N   UNL     1      40.294  41.189   5.178  0.00  0.00    -0.281 N 
ATOM     14  C   UNL     1      38.921  41.061   5.303  0.00  0.00    +0.248 C 
ATOM     30  O   UNL     1      38.298  40.037   5.065  0.00  0.00    -0.270 OA
ATOM     31  H   UNL     1      40.661  42.140   5.217  0.00  0.00    +0.155 HD
BRANCH  14  15
ATOM     15  C   UNL     1      38.122  42.246   5.742  0.00  0.00    +0.037 A 
ATOM     16  C   UNL     1      38.531  43.609   5.394  0.00  0.00    +0.013 A 
ATOM     17  C   UNL     1      37.752  44.735   5.845  0.00  0.00    +0.005 A 
ATOM     18  C   UNL     1      36.554  44.501   6.648  0.00  0.00    -0.033 A 
ATOM     28  C   UNL     1      36.168  43.138   6.974  0.00  0.00    +0.005 A 
ATOM     29  C   UNL     1      36.930  42.032   6.535  0.00  0.00    +0.013 A 
BRANCH  18  19
ATOM     19  C   UNL     1      35.674  45.644   7.189  0.00  0.00    +0.119 C 
BRANCH  19  20
ATOM     20  N   UNL     1      34.757  46.318   6.223  0.00  0.00    -0.302 NA
ATOM     21  C   UNL     1      33.406  46.661   6.856  0.00  0.00    +0.066 C 
ATOM     22  C   UNL     1      32.467  47.386   5.837  0.00  0.00    -0.064 C 
ATOM     23  N   UNL     1      32.278  46.501   4.604  0.00  0.00    +0.379 N 
ATOM     24  C   UNL     1      31.350  47.154   3.669  0.00  0.00    -0.096 C 
ATOM     25  H   UNL     1      31.806  45.549   4.940  0.00  0.00    -0.082 HD
ATOM     26  C   UNL     1      33.617  46.152   3.969  0.00  0.00    -0.064 C 
ATOM     27  C   UNL     1      34.553  45.459   4.998  0.00  0.00    +0.066 C 
ENDBRANCH  19  20
ENDBRANCH  18  19
ENDBRANCH  14  15
ENDBRANCH  12  13
TORSDOF 6
ENDMDL
MODEL 4
REMARK VINA RESULT:      -7.6     27.589     30.296
REMARK  Name = C:\Users\Docking\Desktop\test protocol\1iep_ligandH.pdb
REMARK  8 active torsions:
REMARK  status: ('A' for Active; 'I' for Inactive)
REMARK    1  A    between atoms: _5  and  _11
REMARK    2  A    between atoms: _19  and  _21
REMARK    3  A    between atoms: _22  and  _66
REMARK    4  A    between atoms: _27  and  _30
REMARK    5  A    between atoms: _32  and  _33
REMARK    6  A    between atoms: _38  and  _43
REMARK    7  A    between atoms: _43  and  _46
REMARK    8  A    between atoms: _53  and  _55
REMARK                            x       y       z     vdW  Elec       q    Type
REMARK                         _______ _______ _______ _____ _____    ______ ____
ROOT
ATOM     10  C   UNL     1      14.471  44.215   8.985  0.00  0.00    +0.038 A 
ATOM     11  C   UNL     1      14.522  42.818   8.748  0.00  0.00    +0.047 A 
ATOM     12  C   UNL     1      14.581  42.285   7.396  0.00  0.00    +0.035 A 
ATOM     32  C   UNL     1      14.591  43.206   6.308  0.00  0.00    +0.024 A 
ATOM     33  C   UNL     1      14.539  44.629   6.530  0.00  0.00    +0.007 A 
ATOM     34  C   UNL     1      14.477  45.160   7.862  0.00  0.00    -0.029 A 
ATOM     35  C   UNL     1      14.417  46.695   8.041  0.00  0.00    +0.045 C 
ENDROOT
BRANCH  10   9
ATOM      4  C   UNL     1      12.054  45.324  12.981  0.00  0.00    +0.077 A 
ATOM      5  C   UNL     1      10.794  44.992  12.382  0.00  0.00    +0.048 A 
ATOM      6  C   UNL     1      10.810  44.547  11.041  0.00  0.00    +0.116 A 
ATOM      7  N   UNL     1      12.004  44.444  10.360  0.00  0.00    -0.223 NA
ATOM      8  C   UNL     1      13.202  44.774  10.967  0.00  0.00    +0.220 A 
ATOM      9  N   UNL     1      14.415  44.671  10.304  0.00  0.00    -0.283 N 
ATOM     36  H   UNL     1      15.276  44.931  10.785  0.00  0.00    +0.155 HD
ATOM     37  N   UNL     1      13.213  45.204  12.246  0.00  0.00    -0.214 NA
BRANCH   4   3
ATOM      1  C   UNL     1      13.566  46.678  16.325  0.00  0.00    +0.020 A 
ATOM      2  C   UNL     1      13.479  46.219  14.958  0.00  0.00    +0.013 A 
ATOM      3  C   UNL     1      12.201  45.806  14.391  0.00  0.00    +0.019 A 
ATOM     38  C   UNL     1      11.022  45.870  15.240  0.00  0.00    +0.120 A 
ATOM     39  N   UNL     1      11.136  46.314  16.554  0.00  0.00    -0.263 NA
ATOM     40  C   UNL     1      12.361  46.713  17.111  0.00  0.00    +0.111 A 
ENDBRANCH   4   3
ENDBRANCH  10   9
BRANCH  12  13
ATOM     13  N   UNL     1      14.626  40.876   7.094  0.00  0.00    -0.281 N 
ATOM     14  C   UNL     1      13.594  39.955   7.173  0.00  0.00    +0.248 C 
ATOM     30  O   UNL     1      12.523  40.163   7.723  0.00  0.00    -0.270 OA
ATOM     31  H   UNL     1      15.528  40.514   6.784  0.00  0.00    +0.155 HD
BRANCH  14  15
ATOM     15  C   UNL     1      13.786  38.603   6.565  0.00  0.00    +0.037 A 
ATOM     16  C   UNL     1      15.125  38.061   6.323  0.00  0.00    +0.013 A 
ATOM     17  C   UNL     1      15.282  36.761   5.720  0.00  0.00    +0.005 A 
ATOM     18  C   UNL     1      14.093  35.993   5.356  0.00  0.00    -0.033 A 
ATOM     28  C   UNL     1      12.776  36.552   5.613  0.00  0.00    +0.005 A 
ATOM     29  C   UNL     1      12.619  37.826   6.203  0.00  0.00    +0.013 A 
BRANCH  18  19
ATOM     19  C   UNL     1      14.166  34.607   4.689  0.00  0.00    +0.119 C 
BRANCH  19  20
ATOM     20  N   UNL     1      15.212  34.405   3.643  0.00  0.00    -0.302 NA
ATOM     21  C   UNL     1      14.710  33.531   2.490  0.00  0.00    +0.066 C 
ATOM     22  C   UNL     1      15.810  33.349   1.393  0.00  0.00    -0.064 C 
ATOM     23  N   UNL     1      17.063  32.743   2.027  0.00  0.00    +0.379 N 
ATOM     24  C   UNL     1      18.078  32.517   0.988  0.00  0.00    -0.096 C 
ATOM     25  H   UNL     1      16.782  31.749   2.448  0.00  0.00    -0.082 HD
ATOM     26  C   UNL     1      17.567  33.604   3.177  0.00  0.00    -0.064 C 
ATOM     27  C   UNL     1      16.457  33.803   4.246  0.00  0.00    +0.066 C 
ENDBRANCH  19  20
ENDBRANCH  18  19
ENDBRANCH  14  15
ENDBRANCH  12  13
TORSDOF 6
ENDMDL
MODEL 5
REMARK VINA RESULT:      -7.5      7.059     12.263
REMARK  Name = C:\Users\Docking\Desktop\test protocol\1iep_ligandH.pdb
REMARK  8 active torsions:
REMARK  status: ('A' for Active; 'I' for Inactive)
REMARK    1  A    between atoms: _5  and  _11
REMARK    2  A    between atoms: _19  and  _21
REMARK    3  A    between atoms: _22  and  _66
REMARK    4  A    between atoms: _27  and  _30
REMARK    5  A    between atoms: _32  and  _33
REMARK    6  A    between atoms: _38  and  _43
REMARK    7  A    between atoms: _43  and  _46
REMARK    8  A    between atoms: _53  and  _55
REMARK                            x       y       z     vdW  Elec       q    Type
REMARK                         _______ _______ _______ _____ _____    ______ ____
ROOT
ATOM     10  C   UNL     1      49.871  36.857  13.199  0.00  0.00    +0.038 A 
ATOM     11  C   UNL     1      50.073  37.903  14.136  0.00  0.00    +0.047 A 
ATOM     12  C   UNL     1      50.451  37.618  15.511  0.00  0.00    +0.035 A 
ATOM     32  C   UNL     1      50.619  36.257  15.898  0.00  0.00    +0.024 A 
ATOM     33  C   UNL     1      50.417  35.181  14.959  0.00  0.00    +0.007 A 
ATOM     34  C   UNL     1      50.041  35.455  13.602  0.00  0.00    -0.029 A 
ATOM     35  C   UNL     1      49.832  34.262  12.640  0.00  0.00    +0.045 C 
ENDROOT
BRANCH  10   9
ATOM      4  C   UNL     1      46.586  37.696   9.802  0.00  0.00    +0.077 A 
ATOM      5  C   UNL     1      45.501  37.429  10.702  0.00  0.00    +0.048 A 
ATOM      6  C   UNL     1      45.831  37.071  12.028  0.00  0.00    +0.116 A 
ATOM      7  N   UNL     1      47.151  36.991  12.415  0.00  0.00    -0.223 NA
ATOM      8  C   UNL     1      48.174  37.254  11.522  0.00  0.00    +0.220 A 
ATOM      9  N   UNL     1      49.508  37.187  11.891  0.00  0.00    -0.283 N 
ATOM     36  H   UNL     1      50.233  37.381  11.201  0.00  0.00    +0.155 HD
ATOM     37  N   UNL     1      47.884  37.596  10.249  0.00  0.00    -0.214 NA
BRANCH   4   3
ATOM      1  C   UNL     1      45.097  38.108   6.208  0.00  0.00    +0.020 A 
ATOM      2  C   UNL     1      45.230  37.702   7.588  0.00  0.00    +0.013 A 
ATOM      3  C   UNL     1      46.398  38.089   8.370  0.00  0.00    +0.019 A 
ATOM     38  C   UNL     1      47.421  38.895   7.720  0.00  0.00    +0.120 A 
ATOM     39  N   UNL     1      47.266  39.269   6.389  0.00  0.00    -0.263 NA
ATOM     40  C   UNL     1      46.148  38.901   5.626  0.00  0.00    +0.111 A 
ENDBRANCH   4   3
ENDBRANCH  10   9
BRANCH  12  13
ATOM     13  N   UNL     1      50.662  38.638  16.508  0.00  0.00    -0.281 N 
ATOM     14  C   UNL     1      51.679  39.578  16.564  0.00  0.00    +0.248 C 
ATOM     30  O   UNL     1      52.688  39.546  15.875  0.00  0.00    -0.270 OA
ATOM     31  H   UNL     1      49.979  38.672  17.265  0.00  0.00    +0.155 HD
BRANCH  14  15
ATOM     15  C   UNL     1      51.565  40.708  17.536  0.00  0.00    +0.037 A 
ATOM     16  C   UNL     1      50.465  40.772  18.502  0.00  0.00    +0.013 A 
ATOM     17  C   UNL     1      50.370  41.882  19.417  0.00  0.00    +0.005 A 
ATOM     18  C   UNL     1      51.379  42.937  19.370  0.00  0.00    -0.033 A 
ATOM     28  C   UNL     1      52.462  42.846  18.405  0.00  0.00    +0.005 A 
ATOM     29  C   UNL     1      52.558  41.760  17.506  0.00  0.00    +0.013 A 
BRANCH  18  19
ATOM     19  C   UNL     1      51.344  44.169  20.294  0.00  0.00    +0.119 C 
BRANCH  19  20
ATOM     20  N   UNL     1      50.306  45.205  20.013  0.00  0.00    -0.302 NA
ATOM     21  C   UNL     1      50.698  46.108  18.841  0.00  0.00    +0.066 C 
ATOM     22  C   UNL     1      49.590  47.172  18.547  0.00  0.00    -0.064 C 
ATOM     23  N   UNL     1      49.335  48.000  19.807  0.00  0.00    +0.379 N 
ATOM     24  C   UNL     1      48.335  49.039  19.517  0.00  0.00    -0.096 C 
ATOM     25  H   UNL     1      50.288  48.513  20.074  0.00  0.00    -0.082 HD
ATOM     26  C   UNL     1      48.947  47.109  20.978  0.00  0.00    -0.064 C 
ATOM     27  C   UNL     1      50.040  46.037  21.244  0.00  0.00    +0.066 C 
ENDBRANCH  19  20
ENDBRANCH  18  19
ENDBRANCH  14  15
ENDBRANCH  12  13
TORSDOF 6
ENDMDL
