MODEL 1
REMARK VINA RESULT:      -8.0      0.000      0.000
REMARK  Name = C:\Users\Docking\Desktop\test protocol\1iep_ligandH.pdb
REMARK  8 active torsions:
REMARK  status: ('A' for Active; 'I' for Inactive)
REMARK    1  A    between atoms: _5  and  _11
REMARK    2  A    between atoms: _19  and  _21
REMARK    3  A    between atoms: _22  and  _66
REMARK    4  A    between atoms: _27  and  _30
REMARK    5  A    between atoms: _32  and  _33
REMARK    6  A    between atoms: _38  and  _43
REMARK    7  A    between atoms: _43  and  _46
REMARK    8  A    between atoms: _53  and  _55
REMARK                            x       y       z     vdW  Elec       q    Type
REMARK                         _______ _______ _______ _____ _____    ______ ____
ROOT
ATOM     10  C   UNL     1      67.855 108.582   3.473  0.00  0.00    +0.038 A 
ATOM     11  C   UNL     1      67.436 107.238   3.304  0.00  0.00    +0.047 A 
ATOM     12  C   UNL     1      67.935 106.426   2.205  0.00  0.00    +0.035 A 
ATOM     32  C   UNL     1      68.864 107.015   1.298  0.00  0.00    +0.024 A 
ATOM     33  C   UNL     1      69.300 108.380   1.454  0.00  0.00    +0.007 A 
ATOM     34  C   UNL     1      68.809 109.187   2.535  0.00  0.00    -0.029 A 
ATOM     35  C   UNL     1      69.306 110.646   2.650  0.00  0.00    +0.045 C 
ENDROOT
BRANCH  10   9
ATOM      4  C   UNL     1      64.618 111.550   5.410  0.00  0.00    +0.077 A 
ATOM      5  C   UNL     1      63.901 111.670   4.173  0.00  0.00    +0.048 A 
ATOM      6  C   UNL     1      64.402 110.958   3.060  0.00  0.00    +0.116 A 
ATOM      7  N   UNL     1      65.537 110.186   3.187  0.00  0.00    -0.223 NA
ATOM      8  C   UNL     1      66.205 110.093   4.393  0.00  0.00    +0.220 A 
ATOM      9  N   UNL     1      67.343 109.316   4.545  0.00  0.00    -0.283 N 
ATOM     36  H   UNL     1      67.812 109.279   5.450  0.00  0.00    +0.155 HD
ATOM     37  N   UNL     1      65.748 110.765   5.471  0.00  0.00    -0.214 NA
BRANCH   4   3
ATOM      1  C   UNL     1      63.357 114.235   7.959  0.00  0.00    +0.020 A 
ATOM      2  C   UNL     1      63.738 113.617   6.710  0.00  0.00    +0.013 A 
ATOM      3  C   UNL     1      64.212 112.239   6.675  0.00  0.00    +0.019 A 
ATOM     38  C   UNL     1      64.288 111.509   7.931  0.00  0.00    +0.120 A 
ATOM     39  N   UNL     1      63.915 112.131   9.119  0.00  0.00    -0.263 NA
ATOM     40  C   UNL     1      63.460 113.457   9.165  0.00  0.00    +0.111 A 
ENDBRANCH   4   3
ENDBRANCH  10   9
BRANCH  12  13
ATOM     13  N   UNL     1      67.539 105.058   1.978  0.00  0.00    -0.281 N 
ATOM     14  C   UNL     1      66.742 104.560   0.960  0.00  0.00    +0.248 C 
ATOM     30  O   UNL     1      66.071 105.250   0.208  0.00  0.00    -0.270 OA
ATOM     31  H   UNL     1      67.888 104.375   2.650  0.00  0.00    +0.155 HD
BRANCH  14  15
ATOM     15  C   UNL     1      66.670 103.081   0.758  0.00  0.00    +0.037 A 
ATOM     16  C   UNL     1      65.738 102.490  -0.205  0.00  0.00    +0.013 A 
ATOM     17  C   UNL     1      65.676 101.059  -0.368  0.00  0.00    +0.005 A 
ATOM     18  C   UNL     1      66.552 100.209   0.434  0.00  0.00    -0.033 A 
ATOM     28  C   UNL     1      67.471 100.822   1.379  0.00  0.00    +0.005 A 
ATOM     29  C   UNL     1      67.534 102.224   1.542  0.00  0.00    +0.013 A 
BRANCH  18  19
ATOM     19  C   UNL     1      66.539  98.672   0.342  0.00  0.00    +0.119 C 
BRANCH  19  20
ATOM     20  N   UNL     1      66.618  97.909   1.623  0.00  0.00    -0.302 NA
ATOM     21  C   UNL     1      67.788  96.920   1.632  0.00  0.00    +0.066 C 
ATOM     22  C   UNL     1      67.869  96.147   2.988  0.00  0.00    -0.064 C 
ATOM     23  N   UNL     1      66.546  95.422   3.239  0.00  0.00    +0.379 N 
ATOM     24  C   UNL     1      66.639  94.647   4.485  0.00  0.00    -0.096 C 
ATOM     25  H   UNL     1      66.392  94.701   2.403  0.00  0.00    -0.082 HD
ATOM     26  C   UNL     1      65.377  96.397   3.229  0.00  0.00    -0.064 C 
ATOM     27  C   UNL     1      65.323  97.181   1.888  0.00  0.00    +0.066 C 
ENDBRANCH  19  20
ENDBRANCH  18  19
ENDBRANCH  14  15
ENDBRANCH  12  13
TORSDOF 6
ENDMDL
MODEL 2
REMARK VINA RESULT:      -7.7      3.667      5.427
REMARK  Name = C:\Users\Docking\Desktop\test protocol\1iep_ligandH.pdb
REMARK  8 active torsions:
REMARK  status: ('A' for Active; 'I' for Inactive)
REMARK    1  A    between atoms: _5  and  _11
REMARK    2  A    between atoms: _19  and  _21
REMARK    3  A    between atoms: _22  and  _66
REMARK    4  A    between atoms: _27  and  _30
REMARK    5  A    between atoms: _32  and  _33
REMARK    6  A    between atoms: _38  and  _43
REMARK    7  A    between atoms: _43  and  _46
REMARK    8  A    between atoms: _53  and  _55
REMARK                            x       y       z     vdW  Elec       q    Type
REMARK                         _______ _______ _______ _____ _____    ______ ____
ROOT
ATOM     10  C   UNL     1      63.236 109.478   1.519  0.00  0.00    +0.038 A 
ATOM     11  C   UNL     1      63.813 108.300   0.979  0.00  0.00    +0.047 A 
ATOM     12  C   UNL     1      63.906 107.079   1.764  0.00  0.00    +0.035 A 
ATOM     32  C   UNL     1      63.398 107.091   3.095  0.00  0.00    +0.024 A 
ATOM     33  C   UNL     1      62.808 108.280   3.661  0.00  0.00    +0.007 A 
ATOM     34  C   UNL     1      62.716 109.488   2.892  0.00  0.00    -0.029 A 
ATOM     35  C   UNL     1      62.080 110.734   3.552  0.00  0.00    +0.045 C 
ENDROOT
BRANCH  10   9
ATOM      4  C   UNL     1      65.018 113.650  -0.046  0.00  0.00    +0.077 A 
ATOM      5  C   UNL     1      66.158 113.555   0.819  0.00  0.00    +0.048 A 
ATOM      6  C   UNL     1      66.245 112.420   1.656  0.00  0.00    +0.116 A 
ATOM      7  N   UNL     1      65.259 111.458   1.622  0.00  0.00    -0.223 NA
ATOM      8  C   UNL     1      64.171 111.581   0.777  0.00  0.00    +0.220 A 
ATOM      9  N   UNL     1      63.172 110.622   0.721  0.00  0.00    -0.283 N 
ATOM     36  H   UNL     1      62.382 110.753   0.090  0.00  0.00    +0.155 HD
ATOM     37  N   UNL     1      64.065 112.656  -0.031  0.00  0.00    -0.214 NA
BRANCH   4   3
ATOM      1  C   UNL     1      63.339 116.130  -2.562  0.00  0.00    +0.020 A 
ATOM      2  C   UNL     1      63.510 115.016  -1.658  0.00  0.00    +0.013 A 
ATOM      3  C   UNL     1      64.786 114.788  -0.992  0.00  0.00    +0.019 A 
ATOM     38  C   UNL     1      65.876 115.712  -1.263  0.00  0.00    +0.120 A 
ATOM     39  N   UNL     1      65.682 116.775  -2.139  0.00  0.00    -0.263 NA
ATOM     40  C   UNL     1      64.459 117.004  -2.788  0.00  0.00    +0.111 A 
ENDBRANCH   4   3
ENDBRANCH  10   9
BRANCH  12  13
ATOM     13  N   UNL     1      64.490 105.856   1.272  0.00  0.00    -0.281 N 
ATOM     14  C   UNL     1      65.685 105.268   1.654  0.00  0.00    +0.248 C 
ATOM     30  O   UNL     1      66.541 105.820   2.328  0.00  0.00    -0.270 OA
ATOM     31  H   UNL     1      63.957 105.364   0.554  0.00  0.00    +0.155 HD
BRANCH  14  15
ATOM     15  C   UNL     1      65.976 103.871   1.210  0.00  0.00    +0.037 A 
ATOM     16  C   UNL     1      65.164 103.215   0.183  0.00  0.00    +0.013 A 
ATOM     17  C   UNL     1      65.456 101.860  -0.214  0.00  0.00    +0.005 A 
ATOM     18  C   UNL     1      66.568 101.153   0.417  0.00  0.00    -0.033 A 
ATOM     28  C   UNL     1      67.361 101.830   1.430  0.00  0.00    +0.005 A 
ATOM     29  C   UNL     1      67.077 103.157   1.822  0.00  0.00    +0.013 A 
BRANCH  18  19
ATOM     19  C   UNL     1      66.939  99.699   0.070  0.00  0.00    +0.119 C 
BRANCH  19  20
ATOM     20  N   UNL     1      66.913  98.703   1.183  0.00  0.00    -0.302 NA
ATOM     21  C   UNL     1      68.316  98.206   1.542  0.00  0.00    +0.066 C 
ATOM     22  C   UNL     1      68.271  97.182   2.723  0.00  0.00    -0.064 C 
ATOM     23  N   UNL     1      67.362  96.011   2.345  0.00  0.00    +0.379 N 
ATOM     24  C   UNL     1      67.365  95.018   3.429  0.00  0.00    -0.096 C 
ATOM     25  H   UNL     1      67.796  95.525   1.440  0.00  0.00    -0.082 HD
ATOM     26  C   UNL     1      65.966  96.497   1.983  0.00  0.00    -0.064 C 
ATOM     27  C   UNL     1      66.024  97.536   0.829  0.00  0.00    +0.066 C 
ENDBRANCH  19  20
ENDBRANCH  18  19
ENDBRANCH  14  15
ENDBRANCH  12  13
TORSDOF 6
ENDMDL
MODEL 3
REMARK VINA RESULT:      -7.5      4.366      6.322
REMARK  Name = C:\Users\Docking\Desktop\test protocol\1iep_ligandH.pdb
REMARK  8 active torsions:
REMARK  status: ('A' for Active; 'I' for Inactive)
REMARK    1  A    between atoms: _5  and  _11
REMARK    2  A    between atoms: _19  and  _21
REMARK    3  A    between atoms: _22  and  _66
REMARK    4  A    between atoms: _27  and  _30
REMARK    5  A    between atoms: _32  and  _33
REMARK    6  A    between atoms: _38  and  _43
REMARK    7  A    between atoms: _43  and  _46
REMARK    8  A    between atoms: _53  and  _55
REMARK                            x       y       z     vdW  Elec       q    Type
REMARK                         _______ _______ _______ _____ _____    ______ ____
ROOT
ATOM     10  C   UNL     1      63.671 111.066   1.952  0.00  0.00    +0.038 A 
ATOM     11  C   UNL     1      64.140 109.763   1.644  0.00  0.00    +0.047 A 
ATOM     12  C   UNL     1      63.594 108.590   2.309  0.00  0.00    +0.035 A 
ATOM     32  C   UNL     1      62.569 108.781   3.281  0.00  0.00    +0.024 A 
ATOM     33  C   UNL     1      62.081 110.098   3.607  0.00  0.00    +0.007 A 
ATOM     34  C   UNL     1      62.618 111.259   2.956  0.00  0.00    -0.029 A 
ATOM     35  C   UNL     1      62.062 112.647   3.350  0.00  0.00    +0.045 C 
ENDROOT
BRANCH  10   9
ATOM      4  C   UNL     1      63.679 114.313  -1.583  0.00  0.00    +0.077 A 
ATOM      5  C   UNL     1      62.482 113.773  -2.161  0.00  0.00    +0.048 A 
ATOM      6  C   UNL     1      61.899 112.656  -1.522  0.00  0.00    +0.116 A 
ATOM      7  N   UNL     1      62.479 112.126  -0.390  0.00  0.00    -0.223 NA
ATOM      8  C   UNL     1      63.635 112.669   0.140  0.00  0.00    +0.220 A 
ATOM      9  N   UNL     1      64.230 112.157   1.283  0.00  0.00    -0.283 N 
ATOM     36  H   UNL     1      65.087 112.581   1.638  0.00  0.00    +0.155 HD
ATOM     37  N   UNL     1      64.211 113.735  -0.452  0.00  0.00    -0.214 NA
BRANCH   4   3
ATOM      1  C   UNL     1      65.046 117.043  -4.028  0.00  0.00    +0.020 A 
ATOM      2  C   UNL     1      64.320 115.894  -3.540  0.00  0.00    +0.013 A 
ATOM      3  C   UNL     1      64.410 115.494  -2.141  0.00  0.00    +0.019 A 
ATOM     38  C   UNL     1      65.251 116.285  -1.255  0.00  0.00    +0.120 A 
ATOM     39  N   UNL     1      65.940 117.387  -1.754  0.00  0.00    -0.263 NA
ATOM     40  C   UNL     1      65.862 117.780  -3.098  0.00  0.00    +0.111 A 
ENDBRANCH   4   3
ENDBRANCH  10   9
BRANCH  12  13
ATOM     13  N   UNL     1      64.036 107.244   2.044  0.00  0.00    -0.281 N 
ATOM     14  C   UNL     1      63.338 106.228   1.411  0.00  0.00    +0.248 C 
ATOM     30  O   UNL     1      62.142 106.260   1.166  0.00  0.00    -0.270 OA
ATOM     31  H   UNL     1      64.977 107.012   2.361  0.00  0.00    +0.155 HD
BRANCH  14  15
ATOM     15  C   UNL     1      64.074 104.991   1.005  0.00  0.00    +0.037 A 
ATOM     16  C   UNL     1      63.532 104.084  -0.009  0.00  0.00    +0.013 A 
ATOM     17  C   UNL     1      64.253 102.889  -0.370  0.00  0.00    +0.005 A 
ATOM     18  C   UNL     1      65.527 102.596   0.284  0.00  0.00    -0.033 A 
ATOM     28  C   UNL     1      66.043 103.517   1.283  0.00  0.00    +0.005 A 
ATOM     29  C   UNL     1      65.339 104.688   1.640  0.00  0.00    +0.013 A 
BRANCH  18  19
ATOM     19  C   UNL     1      66.354 101.334  -0.023  0.00  0.00    +0.119 C 
BRANCH  19  20
ATOM     20  N   UNL     1      66.283 100.214   0.962  0.00  0.00    -0.302 NA
ATOM     21  C   UNL     1      67.665  99.840   1.506  0.00  0.00    +0.066 C 
ATOM     22  C   UNL     1      67.570  98.681   2.552  0.00  0.00    -0.064 C 
ATOM     23  N   UNL     1      66.896  97.469   1.906  0.00  0.00    +0.379 N 
ATOM     24  C   UNL     1      66.858  96.359   2.869  0.00  0.00    -0.096 C 
ATOM     25  H   UNL     1      67.529  97.150   1.046  0.00  0.00    -0.082 HD
ATOM     26  C   UNL     1      65.523  97.833   1.360  0.00  0.00    -0.064 C 
ATOM     27  C   UNL     1      65.625  99.005   0.344  0.00  0.00    +0.066 C 
ENDBRANCH  19  20
ENDBRANCH  18  19
ENDBRANCH  14  15
ENDBRANCH  12  13
TORSDOF 6
ENDMDL
MODEL 4
REMARK VINA RESULT:      -7.5      2.455      3.500
REMARK  Name = C:\Users\Docking\Desktop\test protocol\1iep_ligandH.pdb
REMARK  8 active torsions:
REMARK  status: ('A' for Active; 'I' for Inactive)
REMARK    1  A    between atoms: _5  and  _11
REMARK    2  A    between atoms: _19  and  _21
REMARK    3  A    between atoms: _22  and  _66
REMARK    4  A    between atoms: _27  and  _30
REMARK    5  A    between atoms: _32  and  _33
REMARK    6  A    between atoms: _38  and  _43
REMARK    7  A    between atoms: _43  and  _46
REMARK    8  A    between atoms: _53  and  _55
REMARK                            x       y       z     vdW  Elec       q    Type
REMARK                         _______ _______ _______ _____ _____    ______ ____
ROOT
ATOM     10  C   UNL     1      63.540 107.847   3.370  0.00  0.00    +0.038 A 
ATOM     11  C   UNL     1      64.111 106.621   2.942  0.00  0.00    +0.047 A 
ATOM     12  C   UNL     1      63.408 105.748   2.014  0.00  0.00    +0.035 A 
ATOM     32  C   UNL     1      62.127 106.156   1.541  0.00  0.00    +0.024 A 
ATOM     33  C   UNL     1      61.532 107.398   1.967  0.00  0.00    +0.007 A 
ATOM     34  C   UNL     1      62.220 108.262   2.883  0.00  0.00    -0.029 A 
ATOM     35  C   UNL     1      61.531 109.579   3.311  0.00  0.00    +0.045 C 
ENDROOT
BRANCH  10   9
ATOM      4  C   UNL     1      66.735 111.298   4.332  0.00  0.00    +0.077 A 
ATOM      5  C   UNL     1      67.016 111.507   2.940  0.00  0.00    +0.048 A 
ATOM      6  C   UNL     1      66.322 110.701   2.010  0.00  0.00    +0.116 A 
ATOM      7  N   UNL     1      65.417 109.760   2.449  0.00  0.00    -0.223 NA
ATOM      8  C   UNL     1      65.171 109.582   3.798  0.00  0.00    +0.220 A 
ATOM      9  N   UNL     1      64.259 108.646   4.262  0.00  0.00    -0.283 N 
ATOM     36  H   UNL     1      64.111 108.541   5.265  0.00  0.00    +0.155 HD
ATOM     37  N   UNL     1      65.821 110.338   4.707  0.00  0.00    -0.214 NA
BRANCH   4   3
ATOM      1  C   UNL     1      67.322 113.699   7.363  0.00  0.00    +0.020 A 
ATOM      2  C   UNL     1      66.647 112.974   6.312  0.00  0.00    +0.013 A 
ATOM      3  C   UNL     1      67.385 112.073   5.435  0.00  0.00    +0.019 A 
ATOM     38  C   UNL     1      68.816 111.927   5.651  0.00  0.00    +0.120 A 
ATOM     39  N   UNL     1      69.440 112.640   6.670  0.00  0.00    -0.263 NA
ATOM     40  C   UNL     1      68.740 113.510   7.519  0.00  0.00    +0.111 A 
ENDBRANCH   4   3
ENDBRANCH  10   9
BRANCH  12  13
ATOM     13  N   UNL     1      63.933 104.488   1.550  0.00  0.00    -0.281 N 
ATOM     14  C   UNL     1      65.019 104.272   0.717  0.00  0.00    +0.248 C 
ATOM     30  O   UNL     1      65.576 105.146   0.068  0.00  0.00    -0.270 OA
ATOM     31  H   UNL     1      63.446 103.653   1.876  0.00  0.00    +0.155 HD
BRANCH  14  15
ATOM     15  C   UNL     1      65.553 102.884   0.571  0.00  0.00    +0.037 A 
ATOM     16  C   UNL     1      65.131 102.019  -0.533  0.00  0.00    +0.013 A 
ATOM     17  C   UNL     1      65.649 100.678  -0.640  0.00  0.00    +0.005 A 
ATOM     18  C   UNL     1      66.598 100.195   0.360  0.00  0.00    -0.033 A 
ATOM     28  C   UNL     1      67.004 101.077   1.442  0.00  0.00    +0.005 A 
ATOM     29  C   UNL     1      66.497 102.391   1.551  0.00  0.00    +0.013 A 
BRANCH  18  19
ATOM     19  C   UNL     1      67.186  98.772   0.336  0.00  0.00    +0.119 C 
BRANCH  19  20
ATOM     20  N   UNL     1      67.028  97.946   1.570  0.00  0.00    -0.302 NA
ATOM     21  C   UNL     1      67.943  96.718   1.561  0.00  0.00    +0.066 C 
ATOM     22  C   UNL     1      67.781  95.878   2.869  0.00  0.00    -0.064 C 
ATOM     23  N   UNL     1      66.318  95.461   3.027  0.00  0.00    +0.379 N 
ATOM     24  C   UNL     1      66.173  94.622   4.225  0.00  0.00    -0.096 C 
ATOM     25  H   UNL     1      66.047  94.838   2.142  0.00  0.00    -0.082 HD
ATOM     26  C   UNL     1      65.401  96.675   3.034  0.00  0.00    -0.064 C 
ATOM     27  C   UNL     1      65.591  97.520   1.743  0.00  0.00    +0.066 C 
ENDBRANCH  19  20
ENDBRANCH  18  19
ENDBRANCH  14  15
ENDBRANCH  12  13
TORSDOF 6
ENDMDL
MODEL 5
REMARK VINA RESULT:      -7.3      3.384      4.658
REMARK  Name = C:\Users\Docking\Desktop\test protocol\1iep_ligandH.pdb
REMARK  8 active torsions:
REMARK  status: ('A' for Active; 'I' for Inactive)
REMARK    1  A    between atoms: _5  and  _11
REMARK    2  A    between atoms: _19  and  _21
REMARK    3  A    between atoms: _22  and  _66
REMARK    4  A    between atoms: _27  and  _30
REMARK    5  A    between atoms: _32  and  _33
REMARK    6  A    between atoms: _38  and  _43
REMARK    7  A    between atoms: _43  and  _46
REMARK    8  A    between atoms: _53  and  _55
REMARK                            x       y       z     vdW  Elec       q    Type
REMARK                         _______ _______ _______ _____ _____    ______ ____
ROOT
ATOM     10  C   UNL     1      63.881 109.220   2.435  0.00  0.00    +0.038 A 
ATOM     11  C   UNL     1      64.565 108.109   1.878  0.00  0.00    +0.047 A 
ATOM     12  C   UNL     1      63.900 106.828   1.702  0.00  0.00    +0.035 A 
ATOM     32  C   UNL     1      62.536 106.713   2.101  0.00  0.00    +0.024 A 
ATOM     33  C   UNL     1      61.826 107.832   2.669  0.00  0.00    +0.007 A 
ATOM     34  C   UNL     1      62.477 109.098   2.848  0.00  0.00    -0.029 A 
ATOM     35  C   UNL     1      61.669 110.261   3.468  0.00  0.00    +0.045 C 
ENDROOT
BRANCH  10   9
ATOM      4  C   UNL     1      64.923 113.693   1.041  0.00  0.00    +0.077 A 
ATOM      5  C   UNL     1      64.045 113.609  -0.090  0.00  0.00    +0.048 A 
ATOM      6  C   UNL     1      63.348 112.394  -0.281  0.00  0.00    +0.116 A 
ATOM      7  N   UNL     1      63.525 111.349   0.599  0.00  0.00    -0.223 NA
ATOM      8  C   UNL     1      64.381 111.463   1.679  0.00  0.00    +0.220 A 
ATOM      9  N   UNL     1      64.568 110.427   2.581  0.00  0.00    -0.283 N 
ATOM     36  H   UNL     1      65.214 110.548   3.361  0.00  0.00    +0.155 HD
ATOM     37  N   UNL     1      65.058 112.612   1.883  0.00  0.00    -0.214 NA
BRANCH   4   3
ATOM      1  C   UNL     1      67.388 116.171   2.799  0.00  0.00    +0.020 A 
ATOM      2  C   UNL     1      66.636 114.970   2.516  0.00  0.00    +0.013 A 
ATOM      3  C   UNL     1      65.725 114.911   1.380  0.00  0.00    +0.019 A 
ATOM     38  C   UNL     1      65.598 116.094   0.542  0.00  0.00    +0.120 A 
ATOM     39  N   UNL     1      66.334 117.237   0.840  0.00  0.00    -0.263 NA
ATOM     40  C   UNL     1      67.212 117.306   1.932  0.00  0.00    +0.111 A 
ENDBRANCH   4   3
ENDBRANCH  10   9
BRANCH  12  13
ATOM     13  N   UNL     1      64.546 105.662   1.150  0.00  0.00    -0.281 N 
ATOM     14  C   UNL     1      65.228 104.665   1.828  0.00  0.00    +0.248 C 
ATOM     30  O   UNL     1      65.572 104.737   2.999  0.00  0.00    -0.270 OA
ATOM     31  H   UNL     1      64.494 105.560   0.137  0.00  0.00    +0.155 HD
BRANCH  14  15
ATOM     15  C   UNL     1      65.594 103.415   1.096  0.00  0.00    +0.037 A 
ATOM     16  C   UNL     1      64.831 102.966  -0.071  0.00  0.00    +0.013 A 
ATOM     17  C   UNL     1      65.195 101.747  -0.748  0.00  0.00    +0.005 A 
ATOM     18  C   UNL     1      66.330 100.968  -0.260  0.00  0.00    -0.033 A 
ATOM     28  C   UNL     1      67.073 101.439   0.897  0.00  0.00    +0.005 A 
ATOM     29  C   UNL     1      66.719 102.633   1.564  0.00  0.00    +0.013 A 
BRANCH  18  19
ATOM     19  C   UNL     1      66.777  99.644  -0.908  0.00  0.00    +0.119 C 
BRANCH  19  20
ATOM     20  N   UNL     1      66.585  98.395  -0.112  0.00  0.00    -0.302 NA
ATOM     21  C   UNL     1      65.313  98.445   0.739  0.00  0.00    +0.066 C 
ATOM     22  C   UNL     1      65.117  97.122   1.548  0.00  0.00    -0.064 C 
ATOM     23  N   UNL     1      66.346  96.875   2.424  0.00  0.00    +0.379 N 
ATOM     24  C   UNL     1      66.139  95.662   3.228  0.00  0.00    -0.096 C 
ATOM     25  H   UNL     1      66.438  97.735   3.126  0.00  0.00    -0.082 HD
ATOM     26  C   UNL     1      67.615  96.826   1.585  0.00  0.00    -0.064 C 
ATOM     27  C   UNL     1      67.786  98.134   0.763  0.00  0.00    +0.066 C 
ENDBRANCH  19  20
ENDBRANCH  18  19
ENDBRANCH  14  15
ENDBRANCH  12  13
TORSDOF 6
ENDMDL
