MODEL 1
REMARK VINA RESULT:      -7.0      0.000      0.000
REMARK  Name = C:\Users\Docking\Desktop\test protocol\1iep_ligandH.pdb
REMARK  8 active torsions:
REMARK  status: ('A' for Active; 'I' for Inactive)
REMARK    1  A    between atoms: _5  and  _11
REMARK    2  A    between atoms: _19  and  _21
REMARK    3  A    between atoms: _22  and  _66
REMARK    4  A    between atoms: _27  and  _30
REMARK    5  A    between atoms: _32  and  _33
REMARK    6  A    between atoms: _38  and  _43
REMARK    7  A    between atoms: _43  and  _46
REMARK    8  A    between atoms: _53  and  _55
REMARK                            x       y       z     vdW  Elec       q    Type
REMARK                         _______ _______ _______ _____ _____    ______ ____
ROOT
ATOM     10  C   UNL     1      -5.876   3.275  -6.040  0.00  0.00    +0.038 A 
ATOM     11  C   UNL     1      -5.931   3.333  -4.624  0.00  0.00    +0.047 A 
ATOM     12  C   UNL     1      -7.187   3.163  -3.911  0.00  0.00    +0.035 A 
ATOM     32  C   UNL     1      -8.370   2.933  -4.673  0.00  0.00    +0.024 A 
ATOM     33  C   UNL     1      -8.333   2.872  -6.113  0.00  0.00    +0.007 A 
ATOM     34  C   UNL     1      -7.097   3.041  -6.821  0.00  0.00    -0.029 A 
ATOM     35  C   UNL     1      -7.118   2.973  -8.366  0.00  0.00    +0.045 C 
ENDROOT
BRANCH  10   9
ATOM      4  C   UNL     1      -2.512   6.018  -8.087  0.00  0.00    +0.077 A 
ATOM      5  C   UNL     1      -3.289   7.210  -7.905  0.00  0.00    +0.048 A 
ATOM      6  C   UNL     1      -4.552   7.073  -7.287  0.00  0.00    +0.116 A 
ATOM      7  N   UNL     1      -4.995   5.832  -6.885  0.00  0.00    -0.223 NA
ATOM      8  C   UNL     1      -4.221   4.702  -7.076  0.00  0.00    +0.220 A 
ATOM      9  N   UNL     1      -4.643   3.445  -6.672  0.00  0.00    -0.283 N 
ATOM     36  H   UNL     1      -4.046   2.635  -6.838  0.00  0.00    +0.155 HD
ATOM     37  N   UNL     1      -3.012   4.806  -7.666  0.00  0.00    -0.214 NA
BRANCH   4   3
ATOM      1  C   UNL     1       0.850   7.140  -9.742  0.00  0.00    +0.020 A 
ATOM      2  C   UNL     1      -0.459   7.212  -9.134  0.00  0.00    +0.013 A 
ATOM      3  C   UNL     1      -1.156   6.001  -8.721  0.00  0.00    +0.019 A 
ATOM     38  C   UNL     1      -0.495   4.722  -8.938  0.00  0.00    +0.120 A 
ATOM     39  N   UNL     1       0.765   4.684  -9.526  0.00  0.00    -0.263 NA
ATOM     40  C   UNL     1       1.445   5.843  -9.930  0.00  0.00    +0.111 A 
ENDBRANCH   4   3
ENDBRANCH  10   9
BRANCH  12  13
ATOM     13  N   UNL     1      -7.305   3.220  -2.475  0.00  0.00    -0.281 N 
ATOM     14  C   UNL     1      -8.010   4.138  -1.714  0.00  0.00    +0.248 C 
ATOM     30  O   UNL     1      -8.474   5.183  -2.146  0.00  0.00    -0.270 OA
ATOM     31  H   UNL     1      -6.809   2.495  -1.957  0.00  0.00    +0.155 HD
BRANCH  14  15
ATOM     15  C   UNL     1      -8.216   3.863  -0.259  0.00  0.00    +0.037 A 
ATOM     16  C   UNL     1      -9.212   4.603   0.520  0.00  0.00    +0.013 A 
ATOM     17  C   UNL     1      -9.379   4.330   1.925  0.00  0.00    +0.005 A 
ATOM     18  C   UNL     1      -8.547   3.311   2.561  0.00  0.00    -0.033 A 
ATOM     28  C   UNL     1      -7.570   2.589   1.763  0.00  0.00    +0.005 A 
ATOM     29  C   UNL     1      -7.403   2.854   0.385  0.00  0.00    +0.013 A 
BRANCH  18  19
ATOM     19  C   UNL     1      -8.642   2.969   4.059  0.00  0.00    +0.119 C 
BRANCH  19  20
ATOM     20  N   UNL     1      -9.971   2.525   4.576  0.00  0.00    -0.302 NA
ATOM     21  C   UNL     1      -9.903   2.102   6.047  0.00  0.00    +0.066 C 
ATOM     22  C   UNL     1     -11.307   1.662   6.578  0.00  0.00    -0.064 C 
ATOM     23  N   UNL     1     -11.842   0.521   5.711  0.00  0.00    +0.379 N 
ATOM     24  C   UNL     1     -13.135   0.066   6.242  0.00  0.00    -0.096 C 
ATOM     25  H   UNL     1     -11.125  -0.329   5.790  0.00  0.00    -0.082 HD
ATOM     26  C   UNL     1     -11.910   0.932   4.246  0.00  0.00    -0.064 C 
ATOM     27  C   UNL     1     -10.517   1.396   3.737  0.00  0.00    +0.066 C 
ENDBRANCH  19  20
ENDBRANCH  18  19
ENDBRANCH  14  15
ENDBRANCH  12  13
TORSDOF 6
ENDMDL
MODEL 2
REMARK VINA RESULT:      -6.9      1.516      2.375
REMARK  Name = C:\Users\Docking\Desktop\test protocol\1iep_ligandH.pdb
REMARK  8 active torsions:
REMARK  status: ('A' for Active; 'I' for Inactive)
REMARK    1  A    between atoms: _5  and  _11
REMARK    2  A    between atoms: _19  and  _21
REMARK    3  A    between atoms: _22  and  _66
REMARK    4  A    between atoms: _27  and  _30
REMARK    5  A    between atoms: _32  and  _33
REMARK    6  A    between atoms: _38  and  _43
REMARK    7  A    between atoms: _43  and  _46
REMARK    8  A    between atoms: _53  and  _55
REMARK                            x       y       z     vdW  Elec       q    Type
REMARK                         _______ _______ _______ _____ _____    ______ ____
ROOT
ATOM     10  C   UNL     1      -5.962   3.199  -6.251  0.00  0.00    +0.038 A 
ATOM     11  C   UNL     1      -6.047   3.173  -4.836  0.00  0.00    +0.047 A 
ATOM     12  C   UNL     1      -7.321   2.976  -4.162  0.00  0.00    +0.035 A 
ATOM     32  C   UNL     1      -8.489   2.805  -4.961  0.00  0.00    +0.024 A 
ATOM     33  C   UNL     1      -8.421   2.829  -6.401  0.00  0.00    +0.007 A 
ATOM     34  C   UNL     1      -7.167   3.026  -7.072  0.00  0.00    -0.029 A 
ATOM     35  C   UNL     1      -7.155   3.050  -8.618  0.00  0.00    +0.045 C 
ENDROOT
BRANCH  10   9
ATOM      4  C   UNL     1      -2.529   6.019  -8.069  0.00  0.00    +0.077 A 
ATOM      5  C   UNL     1      -3.301   7.206  -7.838  0.00  0.00    +0.048 A 
ATOM      6  C   UNL     1      -4.579   7.047  -7.257  0.00  0.00    +0.116 A 
ATOM      7  N   UNL     1      -5.040   5.790  -6.934  0.00  0.00    -0.223 NA
ATOM      8  C   UNL     1      -4.272   4.665  -7.171  0.00  0.00    +0.220 A 
ATOM      9  N   UNL     1      -4.713   3.392  -6.846  0.00  0.00    -0.283 N 
ATOM     36  H   UNL     1      -4.119   2.587  -7.043  0.00  0.00    +0.155 HD
ATOM     37  N   UNL     1      -3.048   4.790  -7.726  0.00  0.00    -0.214 NA
BRANCH   4   3
ATOM      1  C   UNL     1       0.841   7.193  -9.668  0.00  0.00    +0.020 A 
ATOM      2  C   UNL     1      -0.482   7.244  -9.091  0.00  0.00    +0.013 A 
ATOM      3  C   UNL     1      -1.159   6.023  -8.672  0.00  0.00    +0.019 A 
ATOM     38  C   UNL     1      -0.464   4.758  -8.852  0.00  0.00    +0.120 A 
ATOM     39  N   UNL     1       0.809   4.740  -9.413  0.00  0.00    -0.263 NA
ATOM     40  C   UNL     1       1.470   5.908  -9.821  0.00  0.00    +0.111 A 
ENDBRANCH   4   3
ENDBRANCH  10   9
BRANCH  12  13
ATOM     13  N   UNL     1      -7.470   2.949  -2.728  0.00  0.00    -0.281 N 
ATOM     14  C   UNL     1      -7.600   4.025  -1.865  0.00  0.00    +0.248 C 
ATOM     30  O   UNL     1      -7.392   5.188  -2.175  0.00  0.00    -0.270 OA
ATOM     31  H   UNL     1      -7.481   2.024  -2.297  0.00  0.00    +0.155 HD
BRANCH  14  15
ATOM     15  C   UNL     1      -8.005   3.769  -0.449  0.00  0.00    +0.037 A 
ATOM     16  C   UNL     1      -9.191   4.406   0.129  0.00  0.00    +0.013 A 
ATOM     17  C   UNL     1      -9.550   4.156   1.502  0.00  0.00    +0.005 A 
ATOM     18  C   UNL     1      -8.721   3.263   2.308  0.00  0.00    -0.033 A 
ATOM     28  C   UNL     1      -7.552   2.640   1.708  0.00  0.00    +0.005 A 
ATOM     29  C   UNL     1      -7.197   2.883   0.362  0.00  0.00    +0.013 A 
BRANCH  18  19
ATOM     19  C   UNL     1      -9.016   2.955   3.788  0.00  0.00    +0.119 C 
BRANCH  19  20
ATOM     20  N   UNL     1      -9.158   4.119   4.713  0.00  0.00    -0.302 NA
ATOM     21  C   UNL     1      -7.958   5.066   4.633  0.00  0.00    +0.066 C 
ATOM     22  C   UNL     1      -8.134   6.290   5.590  0.00  0.00    -0.064 C 
ATOM     23  N   UNL     1      -8.334   5.789   7.021  0.00  0.00    +0.379 N 
ATOM     24  C   UNL     1      -8.442   6.938   7.933  0.00  0.00    -0.096 C 
ATOM     25  H   UNL     1      -7.424   5.213   7.308  0.00  0.00    -0.082 HD
ATOM     26  C   UNL     1      -9.524   4.844   7.109  0.00  0.00    -0.064 C 
ATOM     27  C   UNL     1      -9.353   3.647   6.133  0.00  0.00    +0.066 C 
ENDBRANCH  19  20
ENDBRANCH  18  19
ENDBRANCH  14  15
ENDBRANCH  12  13
TORSDOF 6
ENDMDL
MODEL 3
REMARK VINA RESULT:      -6.7      1.166      1.901
REMARK  Name = C:\Users\Docking\Desktop\test protocol\1iep_ligandH.pdb
REMARK  8 active torsions:
REMARK  status: ('A' for Active; 'I' for Inactive)
REMARK    1  A    between atoms: _5  and  _11
REMARK    2  A    between atoms: _19  and  _21
REMARK    3  A    between atoms: _22  and  _66
REMARK    4  A    between atoms: _27  and  _30
REMARK    5  A    between atoms: _32  and  _33
REMARK    6  A    between atoms: _38  and  _43
REMARK    7  A    between atoms: _43  and  _46
REMARK    8  A    between atoms: _53  and  _55
REMARK                            x       y       z     vdW  Elec       q    Type
REMARK                         _______ _______ _______ _____ _____    ______ ____
ROOT
ATOM     10  C   UNL     1      -6.658   4.079  -5.654  0.00  0.00    +0.038 A 
ATOM     11  C   UNL     1      -6.646   3.970  -4.240  0.00  0.00    +0.047 A 
ATOM     12  C   UNL     1      -7.716   3.288  -3.529  0.00  0.00    +0.035 A 
ATOM     32  C   UNL     1      -8.782   2.726  -4.290  0.00  0.00    +0.024 A 
ATOM     33  C   UNL     1      -8.810   2.828  -5.728  0.00  0.00    +0.007 A 
ATOM     34  C   UNL     1      -7.759   3.502  -6.435  0.00  0.00    -0.029 A 
ATOM     35  C   UNL     1      -7.844   3.587  -7.977  0.00  0.00    +0.045 C 
ENDROOT
BRANCH  10   9
ATOM      4  C   UNL     1      -2.337   4.144  -7.743  0.00  0.00    +0.077 A 
ATOM      5  C   UNL     1      -2.150   2.737  -7.535  0.00  0.00    +0.048 A 
ATOM      6  C   UNL     1      -3.186   2.035  -6.880  0.00  0.00    +0.116 A 
ATOM      7  N   UNL     1      -4.321   2.700  -6.469  0.00  0.00    -0.223 NA
ATOM      8  C   UNL     1      -4.469   4.058  -6.683  0.00  0.00    +0.220 A 
ATOM      9  N   UNL     1      -5.605   4.745  -6.285  0.00  0.00    -0.283 N 
ATOM     36  H   UNL     1      -5.673   5.748  -6.455  0.00  0.00    +0.155 HD
ATOM     37  N   UNL     1      -3.493   4.752  -7.305  0.00  0.00    -0.214 NA
BRANCH   4   3
ATOM      1  C   UNL     1       0.592   5.409 -10.006  0.00  0.00    +0.020 A 
ATOM      2  C   UNL     1      -0.355   4.518  -9.378  0.00  0.00    +0.013 A 
ATOM      3  C   UNL     1      -1.333   5.023  -8.422  0.00  0.00    +0.019 A 
ATOM     38  C   UNL     1      -1.327   6.447  -8.124  0.00  0.00    +0.120 A 
ATOM     39  N   UNL     1      -0.402   7.282  -8.744  0.00  0.00    -0.263 NA
ATOM     40  C   UNL     1       0.545   6.806  -9.663  0.00  0.00    +0.111 A 
ENDBRANCH   4   3
ENDBRANCH  10   9
BRANCH  12  13
ATOM     13  N   UNL     1      -7.762   3.153  -2.094  0.00  0.00    -0.281 N 
ATOM     14  C   UNL     1      -7.966   4.148  -1.151  0.00  0.00    +0.248 C 
ATOM     30  O   UNL     1      -7.928   5.345  -1.391  0.00  0.00    -0.270 OA
ATOM     31  H   UNL     1      -7.627   2.210  -1.729  0.00  0.00    +0.155 HD
BRANCH  14  15
ATOM     15  C   UNL     1      -8.238   3.755   0.265  0.00  0.00    +0.037 A 
ATOM     16  C   UNL     1      -7.435   2.730   0.937  0.00  0.00    +0.013 A 
ATOM     17  C   UNL     1      -7.729   2.358   2.298  0.00  0.00    +0.005 A 
ATOM     18  C   UNL     1      -8.833   3.013   2.997  0.00  0.00    -0.033 A 
ATOM     28  C   UNL     1      -9.610   4.030   2.308  0.00  0.00    +0.005 A 
ATOM     29  C   UNL     1      -9.325   4.396   0.974  0.00  0.00    +0.013 A 
BRANCH  18  19
ATOM     19  C   UNL     1      -9.231   2.664   4.443  0.00  0.00    +0.119 C 
BRANCH  19  20
ATOM     20  N   UNL     1     -10.640   2.225   4.677  0.00  0.00    -0.302 NA
ATOM     21  C   UNL     1     -10.893   1.865   6.144  0.00  0.00    +0.066 C 
ATOM     22  C   UNL     1     -12.377   1.430   6.375  0.00  0.00    -0.064 C 
ATOM     23  N   UNL     1     -12.707   0.248   5.462  0.00  0.00    +0.379 N 
ATOM     24  C   UNL     1     -14.083  -0.201   5.719  0.00  0.00    -0.096 C 
ATOM     25  H   UNL     1     -12.022  -0.589   5.733  0.00  0.00    -0.082 HD
ATOM     26  C   UNL     1     -12.455   0.596   4.002  0.00  0.00    -0.064 C 
ATOM     27  C   UNL     1     -10.986   1.056   3.789  0.00  0.00    +0.066 C 
ENDBRANCH  19  20
ENDBRANCH  18  19
ENDBRANCH  14  15
ENDBRANCH  12  13
TORSDOF 6
ENDMDL
