MODEL 1
REMARK VINA RESULT:      -7.9      0.000      0.000
REMARK  Name = C:\Users\Docking\Desktop\test protocol\1iep_ligandH.pdb
REMARK  8 active torsions:
REMARK  status: ('A' for Active; 'I' for Inactive)
REMARK    1  A    between atoms: _5  and  _11
REMARK    2  A    between atoms: _19  and  _21
REMARK    3  A    between atoms: _22  and  _66
REMARK    4  A    between atoms: _27  and  _30
REMARK    5  A    between atoms: _32  and  _33
REMARK    6  A    between atoms: _38  and  _43
REMARK    7  A    between atoms: _43  and  _46
REMARK    8  A    between atoms: _53  and  _55
REMARK                            x       y       z     vdW  Elec       q    Type
REMARK                         _______ _______ _______ _____ _____    ______ ____
ROOT
ATOM     10  C   UNL     1     -40.525   7.782   4.941  0.00  0.00    +0.038 A 
ATOM     11  C   UNL     1     -39.145   8.025   4.720  0.00  0.00    +0.047 A 
ATOM     12  C   UNL     1     -38.588   9.364   4.834  0.00  0.00    +0.035 A 
ATOM     32  C   UNL     1     -39.466  10.433   5.177  0.00  0.00    +0.024 A 
ATOM     33  C   UNL     1     -40.871  10.205   5.404  0.00  0.00    +0.007 A 
ATOM     34  C   UNL     1     -41.426   8.887   5.291  0.00  0.00    -0.029 A 
ATOM     35  C   UNL     1     -42.941   8.702   5.539  0.00  0.00    +0.045 C 
ENDROOT
BRANCH  10   9
ATOM      4  C   UNL     1     -41.611   3.483   6.777  0.00  0.00    +0.077 A 
ATOM      5  C   UNL     1     -41.158   3.861   8.085  0.00  0.00    +0.048 A 
ATOM      6  C   UNL     1     -40.646   5.169   8.241  0.00  0.00    +0.116 A 
ATOM      7  N   UNL     1     -40.595   6.026   7.163  0.00  0.00    -0.223 NA
ATOM      8  C   UNL     1     -41.039   5.629   5.915  0.00  0.00    +0.220 A 
ATOM      9  N   UNL     1     -41.005   6.477   4.819  0.00  0.00    -0.283 N 
ATOM     36  H   UNL     1     -41.335   6.144   3.913  0.00  0.00    +0.155 HD
ATOM     37  N   UNL     1     -41.532   4.385   5.740  0.00  0.00    -0.214 NA
BRANCH   4   3
ATOM      1  C   UNL     1     -43.850   0.633   5.306  0.00  0.00    +0.020 A 
ATOM      2  C   UNL     1     -43.339   1.955   5.587  0.00  0.00    +0.013 A 
ATOM      3  C   UNL     1     -42.182   2.137   6.454  0.00  0.00    +0.019 A 
ATOM     38  C   UNL     1     -41.559   0.952   7.024  0.00  0.00    +0.120 A 
ATOM     39  N   UNL     1     -42.074  -0.308   6.737  0.00  0.00    -0.263 NA
ATOM     40  C   UNL     1     -43.189  -0.496   5.906  0.00  0.00    +0.111 A 
ENDBRANCH   4   3
ENDBRANCH  10   9
BRANCH  12  13
ATOM     13  N   UNL     1     -37.197   9.672   4.613  0.00  0.00    -0.281 N 
ATOM     14  C   UNL     1     -36.106   9.274   5.368  0.00  0.00    +0.248 C 
ATOM     30  O   UNL     1     -36.182   8.765   6.477  0.00  0.00    -0.270 OA
ATOM     31  H   UNL     1     -36.991  10.254   3.801  0.00  0.00    +0.155 HD
BRANCH  14  15
ATOM     15  C   UNL     1     -34.732   9.483   4.819  0.00  0.00    +0.037 A 
ATOM     16  C   UNL     1     -34.221   8.662   3.718  0.00  0.00    +0.013 A 
ATOM     17  C   UNL     1     -32.885   8.874   3.219  0.00  0.00    +0.005 A 
ATOM     18  C   UNL     1     -32.052   9.913   3.819  0.00  0.00    -0.033 A 
ATOM     28  C   UNL     1     -32.586  10.716   4.906  0.00  0.00    +0.005 A 
ATOM     29  C   UNL     1     -33.894  10.511   5.400  0.00  0.00    +0.013 A 
BRANCH  18  19
ATOM     19  C   UNL     1     -30.608  10.194   3.364  0.00  0.00    +0.119 C 
BRANCH  19  20
ATOM     20  N   UNL     1     -29.530  10.066   4.390  0.00  0.00    -0.302 NA
ATOM     21  C   UNL     1     -28.163  10.483   3.841  0.00  0.00    +0.066 C 
ATOM     22  C   UNL     1     -27.051  10.365   4.934  0.00  0.00    -0.064 C 
ATOM     23  N   UNL     1     -27.008   8.930   5.461  0.00  0.00    +0.379 N 
ATOM     24  C   UNL     1     -25.925   8.801   6.447  0.00  0.00    -0.096 C 
ATOM     25  H   UNL     1     -26.765   8.262   4.603  0.00  0.00    -0.082 HD
ATOM     26  C   UNL     1     -28.365   8.506   6.006  0.00  0.00    -0.064 C 
ATOM     27  C   UNL     1     -29.467   8.655   4.921  0.00  0.00    +0.066 C 
ENDBRANCH  19  20
ENDBRANCH  18  19
ENDBRANCH  14  15
ENDBRANCH  12  13
TORSDOF 6
ENDMDL
MODEL 2
REMARK VINA RESULT:      -7.8     10.988     13.098
REMARK  Name = C:\Users\Docking\Desktop\test protocol\1iep_ligandH.pdb
REMARK  8 active torsions:
REMARK  status: ('A' for Active; 'I' for Inactive)
REMARK    1  A    between atoms: _5  and  _11
REMARK    2  A    between atoms: _19  and  _21
REMARK    3  A    between atoms: _22  and  _66
REMARK    4  A    between atoms: _27  and  _30
REMARK    5  A    between atoms: _32  and  _33
REMARK    6  A    between atoms: _38  and  _43
REMARK    7  A    between atoms: _43  and  _46
REMARK    8  A    between atoms: _53  and  _55
REMARK                            x       y       z     vdW  Elec       q    Type
REMARK                         _______ _______ _______ _____ _____    ______ ____
ROOT
ATOM     10  C   UNL     1     -42.453  21.000   6.936  0.00  0.00    +0.038 A 
ATOM     11  C   UNL     1     -41.043  20.849   6.882  0.00  0.00    +0.047 A 
ATOM     12  C   UNL     1     -40.173  21.989   6.638  0.00  0.00    +0.035 A 
ATOM     32  C   UNL     1     -40.772  23.269   6.457  0.00  0.00    +0.024 A 
ATOM     33  C   UNL     1     -42.203  23.441   6.507  0.00  0.00    +0.007 A 
ATOM     34  C   UNL     1     -43.067  22.319   6.745  0.00  0.00    -0.029 A 
ATOM     35  C   UNL     1     -44.594  22.561   6.782  0.00  0.00    +0.045 C 
ENDROOT
BRANCH  10   9
ATOM      4  C   UNL     1     -44.405  17.741   9.869  0.00  0.00    +0.077 A 
ATOM      5  C   UNL     1     -43.780  18.319  11.024  0.00  0.00    +0.048 A 
ATOM      6  C   UNL     1     -42.959  19.450  10.819  0.00  0.00    +0.116 A 
ATOM      7  N   UNL     1     -42.782  19.957   9.550  0.00  0.00    -0.223 NA
ATOM      8  C   UNL     1     -43.398  19.374   8.457  0.00  0.00    +0.220 A 
ATOM      9  N   UNL     1     -43.241  19.871   7.173  0.00  0.00    -0.283 N 
ATOM     36  H   UNL     1     -43.705  19.408   6.392  0.00  0.00    +0.155 HD
ATOM     37  N   UNL     1     -44.186  18.292   8.626  0.00  0.00    -0.214 NA
BRANCH   4   3
ATOM      1  C   UNL     1     -47.083  15.039   8.959  0.00  0.00    +0.020 A 
ATOM      2  C   UNL     1     -46.238  16.206   8.857  0.00  0.00    +0.013 A 
ATOM      3  C   UNL     1     -45.303  16.545   9.924  0.00  0.00    +0.019 A 
ATOM     38  C   UNL     1     -45.249  15.674  11.088  0.00  0.00    +0.120 A 
ATOM     39  N   UNL     1     -46.076  14.558  11.159  0.00  0.00    -0.263 NA
ATOM     40  C   UNL     1     -46.980  14.223  10.140  0.00  0.00    +0.111 A 
ENDBRANCH   4   3
ENDBRANCH  10   9
BRANCH  12  13
ATOM     13  N   UNL     1     -38.736  21.895   6.565  0.00  0.00    -0.281 N 
ATOM     14  C   UNL     1     -37.821  22.018   7.598  0.00  0.00    +0.248 C 
ATOM     30  O   UNL     1     -38.089  22.442   8.712  0.00  0.00    -0.270 OA
ATOM     31  H   UNL     1     -38.347  21.716   5.640  0.00  0.00    +0.155 HD
BRANCH  14  15
ATOM     15  C   UNL     1     -36.399  21.628   7.353  0.00  0.00    +0.037 A 
ATOM     16  C   UNL     1     -35.599  20.979   8.394  0.00  0.00    +0.013 A 
ATOM     17  C   UNL     1     -34.225  20.628   8.138  0.00  0.00    +0.005 A 
ATOM     18  C   UNL     1     -33.642  20.924   6.831  0.00  0.00    -0.033 A 
ATOM     28  C   UNL     1     -34.460  21.563   5.814  0.00  0.00    +0.005 A 
ATOM     29  C   UNL     1     -35.807  21.910   6.062  0.00  0.00    +0.013 A 
BRANCH  18  19
ATOM     19  C   UNL     1     -32.178  20.604   6.476  0.00  0.00    +0.119 C 
BRANCH  19  20
ATOM     20  N   UNL     1     -31.434  19.696   7.399  0.00  0.00    -0.302 NA
ATOM     21  C   UNL     1     -30.008  20.189   7.663  0.00  0.00    +0.066 C 
ATOM     22  C   UNL     1     -29.251  19.241   8.648  0.00  0.00    -0.064 C 
ATOM     23  N   UNL     1     -29.237  17.822   8.077  0.00  0.00    +0.379 N 
ATOM     24  C   UNL     1     -28.475  16.939   8.973  0.00  0.00    -0.096 C 
ATOM     25  H   UNL     1     -28.700  17.857   7.100  0.00  0.00    -0.082 HD
ATOM     26  C   UNL     1     -30.650  17.325   7.809  0.00  0.00    -0.064 C 
ATOM     27  C   UNL     1     -31.404  18.291   6.852  0.00  0.00    +0.066 C 
ENDBRANCH  19  20
ENDBRANCH  18  19
ENDBRANCH  14  15
ENDBRANCH  12  13
TORSDOF 6
ENDMDL
MODEL 3
REMARK VINA RESULT:      -7.7     25.478     28.300
REMARK  Name = C:\Users\Docking\Desktop\test protocol\1iep_ligandH.pdb
REMARK  8 active torsions:
REMARK  status: ('A' for Active; 'I' for Inactive)
REMARK    1  A    between atoms: _5  and  _11
REMARK    2  A    between atoms: _19  and  _21
REMARK    3  A    between atoms: _22  and  _66
REMARK    4  A    between atoms: _27  and  _30
REMARK    5  A    between atoms: _32  and  _33
REMARK    6  A    between atoms: _38  and  _43
REMARK    7  A    between atoms: _43  and  _46
REMARK    8  A    between atoms: _53  and  _55
REMARK                            x       y       z     vdW  Elec       q    Type
REMARK                         _______ _______ _______ _____ _____    ______ ____
ROOT
ATOM     10  C   UNL     1     -44.494  26.254  23.110  0.00  0.00    +0.038 A 
ATOM     11  C   UNL     1     -44.236  25.455  24.252  0.00  0.00    +0.047 A 
ATOM     12  C   UNL     1     -42.904  25.382  24.834  0.00  0.00    +0.035 A 
ATOM     32  C   UNL     1     -41.860  26.139  24.228  0.00  0.00    +0.024 A 
ATOM     33  C   UNL     1     -42.105  26.956  23.066  0.00  0.00    +0.007 A 
ATOM     34  C   UNL     1     -43.415  27.030  22.486  0.00  0.00    -0.029 A 
ATOM     35  C   UNL     1     -43.619  27.917  21.235  0.00  0.00    +0.045 C 
ENDROOT
BRANCH  10   9
ATOM      4  C   UNL     1     -48.182  24.232  20.797  0.00  0.00    +0.077 A 
ATOM      5  C   UNL     1     -47.453  23.015  20.577  0.00  0.00    +0.048 A 
ATOM      6  C   UNL     1     -46.130  22.954  21.069  0.00  0.00    +0.116 A 
ATOM      7  N   UNL     1     -45.586  24.033  21.730  0.00  0.00    -0.223 NA
ATOM      8  C   UNL     1     -46.315  25.192  21.924  0.00  0.00    +0.220 A 
ATOM      9  N   UNL     1     -45.791  26.287  22.593  0.00  0.00    -0.283 N 
ATOM     36  H   UNL     1     -46.359  27.127  22.709  0.00  0.00    +0.155 HD
ATOM     37  N   UNL     1     -47.581  25.277  21.463  0.00  0.00    -0.214 NA
BRANCH   4   3
ATOM      1  C   UNL     1     -51.760  25.737  20.316  0.00  0.00    +0.020 A 
ATOM      2  C   UNL     1     -50.404  25.573  20.788  0.00  0.00    +0.013 A 
ATOM      3  C   UNL     1     -49.591  24.449  20.341  0.00  0.00    +0.019 A 
ATOM     38  C   UNL     1     -50.184  23.502  19.408  0.00  0.00    +0.120 A 
ATOM     39  N   UNL     1     -51.492  23.685  18.972  0.00  0.00    -0.263 NA
ATOM     40  C   UNL     1     -52.285  24.762  19.397  0.00  0.00    +0.111 A 
ENDBRANCH   4   3
ENDBRANCH  10   9
BRANCH  12  13
ATOM     13  N   UNL     1     -42.580  24.581  25.989  0.00  0.00    -0.281 N 
ATOM     14  C   UNL     1     -41.756  23.470  26.050  0.00  0.00    +0.248 C 
ATOM     30  O   UNL     1     -41.338  22.865  25.074  0.00  0.00    -0.270 OA
ATOM     31  H   UNL     1     -43.011  24.869  26.868  0.00  0.00    +0.155 HD
BRANCH  14  15
ATOM     15  C   UNL     1     -41.348  22.946  27.389  0.00  0.00    +0.037 A 
ATOM     16  C   UNL     1     -40.146  23.442  28.065  0.00  0.00    +0.013 A 
ATOM     17  C   UNL     1     -39.766  22.907  29.349  0.00  0.00    +0.005 A 
ATOM     18  C   UNL     1     -40.591  21.872  29.966  0.00  0.00    -0.033 A 
ATOM     28  C   UNL     1     -41.781  21.402  29.276  0.00  0.00    +0.005 A 
ATOM     29  C   UNL     1     -42.156  21.923  28.017  0.00  0.00    +0.013 A 
BRANCH  18  19
ATOM     19  C   UNL     1     -40.250  21.229  31.324  0.00  0.00    +0.119 C 
BRANCH  19  20
ATOM     20  N   UNL     1     -41.352  20.521  32.041  0.00  0.00    -0.302 NA
ATOM     21  C   UNL     1     -42.075  21.439  33.032  0.00  0.00    +0.066 C 
ATOM     22  C   UNL     1     -43.239  20.688  33.757  0.00  0.00    -0.064 C 
ATOM     23  N   UNL     1     -42.681  19.455  34.469  0.00  0.00    +0.379 N 
ATOM     24  C   UNL     1     -43.763  18.779  35.200  0.00  0.00    -0.096 C 
ATOM     25  H   UNL     1     -41.935  19.806  35.219  0.00  0.00    -0.082 HD
ATOM     26  C   UNL     1     -41.958  18.539  33.493  0.00  0.00    -0.064 C 
ATOM     27  C   UNL     1     -40.823  19.302  32.756  0.00  0.00    +0.066 C 
ENDBRANCH  19  20
ENDBRANCH  18  19
ENDBRANCH  14  15
ENDBRANCH  12  13
TORSDOF 6
ENDMDL
MODEL 4
REMARK VINA RESULT:      -7.7     10.900     17.813
REMARK  Name = C:\Users\Docking\Desktop\test protocol\1iep_ligandH.pdb
REMARK  8 active torsions:
REMARK  status: ('A' for Active; 'I' for Inactive)
REMARK    1  A    between atoms: _5  and  _11
REMARK    2  A    between atoms: _19  and  _21
REMARK    3  A    between atoms: _22  and  _66
REMARK    4  A    between atoms: _27  and  _30
REMARK    5  A    between atoms: _32  and  _33
REMARK    6  A    between atoms: _38  and  _43
REMARK    7  A    between atoms: _43  and  _46
REMARK    8  A    between atoms: _53  and  _55
REMARK                            x       y       z     vdW  Elec       q    Type
REMARK                         _______ _______ _______ _____ _____    ______ ____
ROOT
ATOM     10  C   UNL     1     -38.378  21.888   6.994  0.00  0.00    +0.038 A 
ATOM     11  C   UNL     1     -39.318  20.921   7.434  0.00  0.00    +0.047 A 
ATOM     12  C   UNL     1     -40.713  21.273   7.653  0.00  0.00    +0.035 A 
ATOM     32  C   UNL     1     -41.116  22.619   7.411  0.00  0.00    +0.024 A 
ATOM     33  C   UNL     1     -40.174  23.614   6.964  0.00  0.00    +0.007 A 
ATOM     34  C   UNL     1     -38.796  23.273   6.749  0.00  0.00    -0.029 A 
ATOM     35  C   UNL     1     -37.829  24.383   6.276  0.00  0.00    +0.045 C 
ENDROOT
BRANCH  10   9
ATOM      4  C   UNL     1     -33.898  21.189   8.567  0.00  0.00    +0.077 A 
ATOM      5  C   UNL     1     -34.220  21.673   9.879  0.00  0.00    +0.048 A 
ATOM      6  C   UNL     1     -35.548  22.098  10.105  0.00  0.00    +0.116 A 
ATOM      7  N   UNL     1     -36.476  22.040   9.089  0.00  0.00    -0.223 NA
ATOM      8  C   UNL     1     -36.132  21.570   7.835  0.00  0.00    +0.220 A 
ATOM      9  N   UNL     1     -37.052  21.495   6.800  0.00  0.00    -0.283 N 
ATOM     36  H   UNL     1     -36.757  21.149   5.887  0.00  0.00    +0.155 HD
ATOM     37  N   UNL     1     -34.870  21.159   7.593  0.00  0.00    -0.214 NA
BRANCH   4   3
ATOM      1  C   UNL     1     -30.023  20.888   8.123  0.00  0.00    +0.020 A 
ATOM      2  C   UNL     1     -31.311  21.403   8.528  0.00  0.00    +0.013 A 
ATOM      3  C   UNL     1     -32.538  20.701   8.173  0.00  0.00    +0.019 A 
ATOM     38  C   UNL     1     -32.427  19.472   7.403  0.00  0.00    +0.120 A 
ATOM     39  N   UNL     1     -31.173  19.001   7.026  0.00  0.00    -0.263 NA
ATOM     40  C   UNL     1     -29.985  19.669   7.360  0.00  0.00    +0.111 A 
ENDBRANCH   4   3
ENDBRANCH  10   9
BRANCH  12  13
ATOM     13  N   UNL     1     -41.711  20.337   8.107  0.00  0.00    -0.281 N 
ATOM     14  C   UNL     1     -42.184  20.155   9.396  0.00  0.00    +0.248 C 
ATOM     30  O   UNL     1     -41.665  20.628  10.396  0.00  0.00    -0.270 OA
ATOM     31  H   UNL     1     -42.117  19.734   7.391  0.00  0.00    +0.155 HD
BRANCH  14  15
ATOM     15  C   UNL     1     -43.403  19.316   9.606  0.00  0.00    +0.037 A 
ATOM     16  C   UNL     1     -43.766  18.823  10.937  0.00  0.00    +0.013 A 
ATOM     17  C   UNL     1     -44.938  18.001  11.110  0.00  0.00    +0.005 A 
ATOM     18  C   UNL     1     -45.757  17.669   9.946  0.00  0.00    -0.033 A 
ATOM     28  C   UNL     1     -45.377  18.176   8.638  0.00  0.00    +0.005 A 
ATOM     29  C   UNL     1     -44.228  18.981   8.465  0.00  0.00    +0.013 A 
BRANCH  18  19
ATOM     19  C   UNL     1     -47.012  16.781  10.033  0.00  0.00    +0.119 C 
BRANCH  19  20
ATOM     20  N   UNL     1     -46.924  15.413   9.441  0.00  0.00    -0.302 NA
ATOM     21  C   UNL     1     -48.179  14.582   9.726  0.00  0.00    +0.066 C 
ATOM     22  C   UNL     1     -48.079  13.162   9.080  0.00  0.00    -0.064 C 
ATOM     23  N   UNL     1     -46.829  12.452   9.603  0.00  0.00    +0.379 N 
ATOM     24  C   UNL     1     -46.764  11.095   9.042  0.00  0.00    -0.096 C 
ATOM     25  H   UNL     1     -46.933  12.357  10.709  0.00  0.00    -0.082 HD
ATOM     26  C   UNL     1     -45.578  13.273   9.326  0.00  0.00    -0.064 C 
ATOM     27  C   UNL     1     -45.699  14.693   9.947  0.00  0.00    +0.066 C 
ENDBRANCH  19  20
ENDBRANCH  18  19
ENDBRANCH  14  15
ENDBRANCH  12  13
TORSDOF 6
ENDMDL
MODEL 5
REMARK VINA RESULT:      -7.6     13.719     16.509
REMARK  Name = C:\Users\Docking\Desktop\test protocol\1iep_ligandH.pdb
REMARK  8 active torsions:
REMARK  status: ('A' for Active; 'I' for Inactive)
REMARK    1  A    between atoms: _5  and  _11
REMARK    2  A    between atoms: _19  and  _21
REMARK    3  A    between atoms: _22  and  _66
REMARK    4  A    between atoms: _27  and  _30
REMARK    5  A    between atoms: _32  and  _33
REMARK    6  A    between atoms: _38  and  _43
REMARK    7  A    between atoms: _43  and  _46
REMARK    8  A    between atoms: _53  and  _55
REMARK                            x       y       z     vdW  Elec       q    Type
REMARK                         _______ _______ _______ _____ _____    ______ ____
ROOT
ATOM     10  C   UNL     1     -26.782  14.103  11.595  0.00  0.00    +0.038 A 
ATOM     11  C   UNL     1     -27.768  15.009  11.128  0.00  0.00    +0.047 A 
ATOM     12  C   UNL     1     -27.475  15.954  10.061  0.00  0.00    +0.035 A 
ATOM     32  C   UNL     1     -26.168  15.947   9.492  0.00  0.00    +0.024 A 
ATOM     33  C   UNL     1     -25.154  15.034   9.956  0.00  0.00    +0.007 A 
ATOM     34  C   UNL     1     -25.436  14.101  11.010  0.00  0.00    -0.029 A 
ATOM     35  C   UNL     1     -24.309  13.149  11.472  0.00  0.00    +0.045 C 
ENDROOT
BRANCH  10   9
ATOM      4  C   UNL     1     -27.120  12.936  16.239  0.00  0.00    +0.077 A 
ATOM      5  C   UNL     1     -26.555  14.187  16.655  0.00  0.00    +0.048 A 
ATOM      6  C   UNL     1     -26.185  15.101  15.643  0.00  0.00    +0.116 A 
ATOM      7  N   UNL     1     -26.370  14.776  14.317  0.00  0.00    -0.223 NA
ATOM      8  C   UNL     1     -26.915  13.560  13.949  0.00  0.00    +0.220 A 
ATOM      9  N   UNL     1     -27.118  13.216  12.621  0.00  0.00    -0.283 N 
ATOM     36  H   UNL     1     -27.516  12.306  12.391  0.00  0.00    +0.155 HD
ATOM     37  N   UNL     1     -27.276  12.670  14.897  0.00  0.00    -0.214 NA
BRANCH   4   3
ATOM      1  C   UNL     1     -29.343  10.533  18.380  0.00  0.00    +0.020 A 
ATOM      2  C   UNL     1     -28.968  11.574  17.452  0.00  0.00    +0.013 A 
ATOM      3  C   UNL     1     -27.564  11.869  17.190  0.00  0.00    +0.019 A 
ATOM     38  C   UNL     1     -26.558  11.084  17.889  0.00  0.00    +0.120 A 
ATOM     39  N   UNL     1     -26.949  10.088  18.778  0.00  0.00    -0.263 NA
ATOM     40  C   UNL     1     -28.297   9.797  19.039  0.00  0.00    +0.111 A 
ENDBRANCH   4   3
ENDBRANCH  10   9
BRANCH  12  13
ATOM     13  N   UNL     1     -28.433  16.904   9.551  0.00  0.00    -0.281 N 
ATOM     14  C   UNL     1     -28.601  17.323   8.241  0.00  0.00    +0.248 C 
ATOM     30  O   UNL     1     -27.808  17.104   7.338  0.00  0.00    -0.270 OA
ATOM     31  H   UNL     1     -29.063  17.317  10.238  0.00  0.00    +0.155 HD
BRANCH  14  15
ATOM     15  C   UNL     1     -29.820  18.113   7.887  0.00  0.00    +0.037 A 
ATOM     16  C   UNL     1     -30.934  17.504   7.155  0.00  0.00    +0.013 A 
ATOM     17  C   UNL     1     -32.090  18.293   6.811  0.00  0.00    +0.005 A 
ATOM     18  C   UNL     1     -32.138  19.700   7.200  0.00  0.00    -0.033 A 
ATOM     28  C   UNL     1     -31.022  20.277   7.930  0.00  0.00    +0.005 A 
ATOM     29  C   UNL     1     -29.886  19.507   8.268  0.00  0.00    +0.013 A 
BRANCH  18  19
ATOM     19  C   UNL     1     -33.323  20.622   6.857  0.00  0.00    +0.119 C 
BRANCH  19  20
ATOM     20  N   UNL     1     -33.800  21.550   7.926  0.00  0.00    -0.302 NA
ATOM     21  C   UNL     1     -35.195  21.173   8.433  0.00  0.00    +0.066 C 
ATOM     22  C   UNL     1     -35.668  22.140   9.566  0.00  0.00    -0.064 C 
ATOM     23  N   UNL     1     -35.652  23.579   9.046  0.00  0.00    +0.379 N 
ATOM     24  C   UNL     1     -36.152  24.484  10.090  0.00  0.00    -0.096 C 
ATOM     25  H   UNL     1     -36.356  23.634   8.184  0.00  0.00    -0.082 HD
ATOM     26  C   UNL     1     -34.269  23.961   8.537  0.00  0.00    -0.064 C 
ATOM     27  C   UNL     1     -33.795  22.976   7.432  0.00  0.00    +0.066 C 
ENDBRANCH  19  20
ENDBRANCH  18  19
ENDBRANCH  14  15
ENDBRANCH  12  13
TORSDOF 6
ENDMDL
