MODEL 1
REMARK VINA RESULT:      -8.4      0.000      0.000
REMARK  Name = C:\Users\Docking\Desktop\test protocol\1iep_ligandH.pdb
REMARK  8 active torsions:
REMARK  status: ('A' for Active; 'I' for Inactive)
REMARK    1  A    between atoms: _5  and  _11
REMARK    2  A    between atoms: _19  and  _21
REMARK    3  A    between atoms: _22  and  _66
REMARK    4  A    between atoms: _27  and  _30
REMARK    5  A    between atoms: _32  and  _33
REMARK    6  A    between atoms: _38  and  _43
REMARK    7  A    between atoms: _43  and  _46
REMARK    8  A    between atoms: _53  and  _55
REMARK                            x       y       z     vdW  Elec       q    Type
REMARK                         _______ _______ _______ _____ _____    ______ ____
ROOT
ATOM     10  C   UNL     1      -5.019   7.507   6.155  0.00  0.00    +0.038 A 
ATOM     11  C   UNL     1      -4.946   7.182   4.776  0.00  0.00    +0.047 A 
ATOM     12  C   UNL     1      -3.964   6.231   4.278  0.00  0.00    +0.035 A 
ATOM     32  C   UNL     1      -3.073   5.628   5.213  0.00  0.00    +0.024 A 
ATOM     33  C   UNL     1      -3.133   5.947   6.617  0.00  0.00    +0.007 A 
ATOM     34  C   UNL     1      -4.098   6.886   7.114  0.00  0.00    -0.029 A 
ATOM     35  C   UNL     1      -4.112   7.195   8.629  0.00  0.00    +0.045 C 
ENDROOT
BRANCH  10   9
ATOM      4  C   UNL     1      -6.542  11.996   6.907  0.00  0.00    +0.077 A 
ATOM      5  C   UNL     1      -5.306  12.556   6.442  0.00  0.00    +0.048 A 
ATOM      6  C   UNL     1      -4.301  11.654   6.025  0.00  0.00    +0.116 A 
ATOM      7  N   UNL     1      -4.527  10.296   6.073  0.00  0.00    -0.223 NA
ATOM      8  C   UNL     1      -5.730   9.788   6.529  0.00  0.00    +0.220 A 
ATOM      9  N   UNL     1      -5.981   8.426   6.578  0.00  0.00    -0.283 N 
ATOM     36  H   UNL     1      -6.879   8.091   6.927  0.00  0.00    +0.155 HD
ATOM     37  N   UNL     1      -6.705  10.629   6.934  0.00  0.00    -0.214 NA
BRANCH   4   3
ATOM      1  C   UNL     1      -9.896  13.103   8.588  0.00  0.00    +0.020 A 
ATOM      2  C   UNL     1      -8.801  12.265   8.158  0.00  0.00    +0.013 A 
ATOM      3  C   UNL     1      -7.701  12.818   7.378  0.00  0.00    +0.019 A 
ATOM     38  C   UNL     1      -7.739  14.235   7.049  0.00  0.00    +0.120 A 
ATOM     39  N   UNL     1      -8.808  15.018   7.476  0.00  0.00    -0.263 NA
ATOM     40  C   UNL     1      -9.872  14.496   8.225  0.00  0.00    +0.111 A 
ENDBRANCH   4   3
ENDBRANCH  10   9
BRANCH  12  13
ATOM     13  N   UNL     1      -3.837   5.869   2.888  0.00  0.00    -0.281 N 
ATOM     14  C   UNL     1      -4.265   4.706   2.269  0.00  0.00    +0.248 C 
ATOM     30  O   UNL     1      -4.633   3.703   2.861  0.00  0.00    -0.270 OA
ATOM     31  H   UNL     1      -3.376   6.553   2.288  0.00  0.00    +0.155 HD
BRANCH  14  15
ATOM     15  C   UNL     1      -4.270   4.643   0.775  0.00  0.00    +0.037 A 
ATOM     16  C   UNL     1      -3.928   5.814  -0.036  0.00  0.00    +0.013 A 
ATOM     17  C   UNL     1      -3.958   5.731  -1.475  0.00  0.00    +0.005 A 
ATOM     18  C   UNL     1      -4.330   4.470  -2.112  0.00  0.00    -0.033 A 
ATOM     28  C   UNL     1      -4.659   3.323  -1.283  0.00  0.00    +0.005 A 
ATOM     29  C   UNL     1      -4.632   3.401   0.128  0.00  0.00    +0.013 A 
BRANCH  18  19
ATOM     19  C   UNL     1      -4.408   4.297  -3.640  0.00  0.00    +0.119 C 
BRANCH  19  20
ATOM     20  N   UNL     1      -5.723   3.882  -4.214  0.00  0.00    -0.302 NA
ATOM     21  C   UNL     1      -5.590   2.664  -5.132  0.00  0.00    +0.066 C 
ATOM     22  C   UNL     1      -6.978   2.229  -5.707  0.00  0.00    -0.064 C 
ATOM     23  N   UNL     1      -7.608   3.406  -6.455  0.00  0.00    +0.379 N 
ATOM     24  C   UNL     1      -8.886   2.984  -7.045  0.00  0.00    -0.096 C 
ATOM     25  H   UNL     1      -6.923   3.680  -7.291  0.00  0.00    -0.082 HD
ATOM     26  C   UNL     1      -7.741   4.622  -5.550  0.00  0.00    -0.064 C 
ATOM     27  C   UNL     1      -6.361   5.027  -4.961  0.00  0.00    +0.066 C 
ENDBRANCH  19  20
ENDBRANCH  18  19
ENDBRANCH  14  15
ENDBRANCH  12  13
TORSDOF 6
ENDMDL
MODEL 2
REMARK VINA RESULT:      -8.1     21.056     23.131
REMARK  Name = C:\Users\Docking\Desktop\test protocol\1iep_ligandH.pdb
REMARK  8 active torsions:
REMARK  status: ('A' for Active; 'I' for Inactive)
REMARK    1  A    between atoms: _5  and  _11
REMARK    2  A    between atoms: _19  and  _21
REMARK    3  A    between atoms: _22  and  _66
REMARK    4  A    between atoms: _27  and  _30
REMARK    5  A    between atoms: _32  and  _33
REMARK    6  A    between atoms: _38  and  _43
REMARK    7  A    between atoms: _43  and  _46
REMARK    8  A    between atoms: _53  and  _55
REMARK                            x       y       z     vdW  Elec       q    Type
REMARK                         _______ _______ _______ _____ _____    ______ ____
ROOT
ATOM     10  C   UNL     1       2.347 -12.364  15.181  0.00  0.00    +0.038 A 
ATOM     11  C   UNL     1       1.798 -12.415  13.874  0.00  0.00    +0.047 A 
ATOM     12  C   UNL     1       1.672 -13.675  13.159  0.00  0.00    +0.035 A 
ATOM     32  C   UNL     1       2.113 -14.866  13.807  0.00  0.00    +0.024 A 
ATOM     33  C   UNL     1       2.674 -14.833  15.135  0.00  0.00    +0.007 A 
ATOM     34  C   UNL     1       2.803 -13.592  15.844  0.00  0.00    -0.029 A 
ATOM     35  C   UNL     1       3.418 -13.615  17.263  0.00  0.00    +0.045 C 
ENDROOT
BRANCH  10   9
ATOM      4  C   UNL     1       4.837  -8.507  16.581  0.00  0.00    +0.077 A 
ATOM      5  C   UNL     1       6.053  -9.012  16.012  0.00  0.00    +0.048 A 
ATOM      6  C   UNL     1       5.996 -10.271  15.374  0.00  0.00    +0.116 A 
ATOM      7  N   UNL     1       4.807 -10.965  15.315  0.00  0.00    -0.223 NA
ATOM      8  C   UNL     1       3.653 -10.450  15.876  0.00  0.00    +0.220 A 
ATOM      9  N   UNL     1       2.444 -11.127  15.822  0.00  0.00    -0.283 N 
ATOM     36  H   UNL     1       1.617 -10.716  16.254  0.00  0.00    +0.155 HD
ATOM     37  N   UNL     1       3.681  -9.250  16.492  0.00  0.00    -0.214 NA
BRANCH   4   3
ATOM      1  C   UNL     1       3.824  -4.850  17.530  0.00  0.00    +0.020 A 
ATOM      2  C   UNL     1       3.887  -6.102  16.812  0.00  0.00    +0.013 A 
ATOM      3  C   UNL     1       4.734  -7.189  17.285  0.00  0.00    +0.019 A 
ATOM     38  C   UNL     1       5.511  -6.976  18.497  0.00  0.00    +0.120 A 
ATOM     39  N   UNL     1       5.431  -5.759  19.166  0.00  0.00    -0.263 NA
ATOM     40  C   UNL     1       4.621  -4.704  18.720  0.00  0.00    +0.111 A 
ENDBRANCH   4   3
ENDBRANCH  10   9
BRANCH  12  13
ATOM     13  N   UNL     1       1.131 -13.787  11.828  0.00  0.00    -0.281 N 
ATOM     14  C   UNL     1      -0.200 -13.758  11.444  0.00  0.00    +0.248 C 
ATOM     30  O   UNL     1      -1.143 -13.846  12.216  0.00  0.00    -0.270 OA
ATOM     31  H   UNL     1       1.811 -13.902  11.076  0.00  0.00    +0.155 HD
BRANCH  14  15
ATOM     15  C   UNL     1      -0.531 -13.627   9.993  0.00  0.00    +0.037 A 
ATOM     16  C   UNL     1      -1.241 -12.454   9.478  0.00  0.00    +0.013 A 
ATOM     17  C   UNL     1      -1.563 -12.361   8.076  0.00  0.00    +0.005 A 
ATOM     18  C   UNL     1      -1.172 -13.445   7.178  0.00  0.00    -0.033 A 
ATOM     28  C   UNL     1      -0.463 -14.595   7.714  0.00  0.00    +0.005 A 
ATOM     29  C   UNL     1      -0.147 -14.690   9.088  0.00  0.00    +0.013 A 
BRANCH  18  19
ATOM     19  C   UNL     1      -1.492 -13.439   5.671  0.00  0.00    +0.119 C 
BRANCH  19  20
ATOM     20  N   UNL     1      -2.736 -14.141   5.234  0.00  0.00    -0.302 NA
ATOM     21  C   UNL     1      -3.183 -15.201   6.245  0.00  0.00    +0.066 C 
ATOM     22  C   UNL     1      -4.497 -15.910   5.783  0.00  0.00    -0.064 C 
ATOM     23  N   UNL     1      -4.279 -16.535   4.404  0.00  0.00    +0.379 N 
ATOM     24  C   UNL     1      -5.494 -17.252   3.992  0.00  0.00    -0.096 C 
ATOM     25  H   UNL     1      -3.459 -17.285   4.499  0.00  0.00    -0.082 HD
ATOM     26  C   UNL     1      -3.831 -15.489   3.393  0.00  0.00    -0.064 C 
ATOM     27  C   UNL     1      -2.541 -14.770   3.876  0.00  0.00    +0.066 C 
ENDBRANCH  19  20
ENDBRANCH  18  19
ENDBRANCH  14  15
ENDBRANCH  12  13
TORSDOF 6
ENDMDL
MODEL 3
REMARK VINA RESULT:      -8.1     19.620     23.103
REMARK  Name = C:\Users\Docking\Desktop\test protocol\1iep_ligandH.pdb
REMARK  8 active torsions:
REMARK  status: ('A' for Active; 'I' for Inactive)
REMARK    1  A    between atoms: _5  and  _11
REMARK    2  A    between atoms: _19  and  _21
REMARK    3  A    between atoms: _22  and  _66
REMARK    4  A    between atoms: _27  and  _30
REMARK    5  A    between atoms: _32  and  _33
REMARK    6  A    between atoms: _38  and  _43
REMARK    7  A    between atoms: _43  and  _46
REMARK    8  A    between atoms: _53  and  _55
REMARK                            x       y       z     vdW  Elec       q    Type
REMARK                         _______ _______ _______ _____ _____    ______ ____
ROOT
ATOM     10  C   UNL     1      17.541   6.775   6.341  0.00  0.00    +0.038 A 
ATOM     11  C   UNL     1      16.554   7.343   5.495  0.00  0.00    +0.047 A 
ATOM     12  C   UNL     1      15.142   7.276   5.837  0.00  0.00    +0.035 A 
ATOM     32  C   UNL     1      14.770   6.626   7.050  0.00  0.00    +0.024 A 
ATOM     33  C   UNL     1      15.761   6.042   7.921  0.00  0.00    +0.007 A 
ATOM     34  C   UNL     1      17.155   6.103   7.587  0.00  0.00    -0.029 A 
ATOM     35  C   UNL     1      18.172   5.455   8.555  0.00  0.00    +0.045 C 
ENDROOT
BRANCH  10   9
ATOM      4  C   UNL     1      21.346   5.274   3.829  0.00  0.00    +0.077 A 
ATOM      5  C   UNL     1      20.606   4.196   3.239  0.00  0.00    +0.048 A 
ATOM      6  C   UNL     1      19.250   4.059   3.614  0.00  0.00    +0.116 A 
ATOM      7  N   UNL     1      18.688   4.939   4.512  0.00  0.00    -0.223 NA
ATOM      8  C   UNL     1      19.430   5.967   5.064  0.00  0.00    +0.220 A 
ATOM      9  N   UNL     1      18.883   6.868   5.964  0.00  0.00    -0.283 N 
ATOM     36  H   UNL     1      19.466   7.608   6.354  0.00  0.00    +0.155 HD
ATOM     37  N   UNL     1      20.727   6.118   4.724  0.00  0.00    -0.214 NA
BRANCH   4   3
ATOM      1  C   UNL     1      24.948   5.089   2.315  0.00  0.00    +0.020 A 
ATOM      2  C   UNL     1      23.559   4.779   2.567  0.00  0.00    +0.013 A 
ATOM      3  C   UNL     1      22.787   5.552   3.531  0.00  0.00    +0.019 A 
ATOM     38  C   UNL     1      23.454   6.640   4.230  0.00  0.00    +0.120 A 
ATOM     39  N   UNL     1      24.793   6.914   3.968  0.00  0.00    -0.263 NA
ATOM     40  C   UNL     1      25.547   6.177   3.043  0.00  0.00    +0.111 A 
ENDBRANCH   4   3
ENDBRANCH  10   9
BRANCH  12  13
ATOM     13  N   UNL     1      14.094   7.827   5.014  0.00  0.00    -0.281 N 
ATOM     14  C   UNL     1      13.669   7.389   3.770  0.00  0.00    +0.248 C 
ATOM     30  O   UNL     1      14.272   6.582   3.078  0.00  0.00    -0.270 OA
ATOM     31  H   UNL     1      13.607   8.638   5.394  0.00  0.00    +0.155 HD
BRANCH  14  15
ATOM     15  C   UNL     1      12.397   7.937   3.208  0.00  0.00    +0.037 A 
ATOM     16  C   UNL     1      12.324   9.305   2.687  0.00  0.00    +0.013 A 
ATOM     17  C   UNL     1      11.081   9.815   2.165  0.00  0.00    +0.005 A 
ATOM     18  C   UNL     1       9.900   8.954   2.161  0.00  0.00    -0.033 A 
ATOM     28  C   UNL     1      10.002   7.600   2.678  0.00  0.00    +0.005 A 
ATOM     29  C   UNL     1      11.219   7.097   3.191  0.00  0.00    +0.013 A 
BRANCH  18  19
ATOM     19  C   UNL     1       8.527   9.422   1.643  0.00  0.00    +0.119 C 
BRANCH  19  20
ATOM     20  N   UNL     1       7.345   9.175   2.521  0.00  0.00    -0.302 NA
ATOM     21  C   UNL     1       6.078   9.846   1.982  0.00  0.00    +0.066 C 
ATOM     22  C   UNL     1       4.846   9.559   2.901  0.00  0.00    -0.064 C 
ATOM     23  N   UNL     1       5.150  10.040   4.321  0.00  0.00    +0.379 N 
ATOM     24  C   UNL     1       3.973   9.824   5.174  0.00  0.00    -0.096 C 
ATOM     25  H   UNL     1       5.338  11.138   4.273  0.00  0.00    -0.082 HD
ATOM     26  C   UNL     1       6.410   9.380   4.864  0.00  0.00    -0.064 C 
ATOM     27  C   UNL     1       7.622   9.646   3.928  0.00  0.00    +0.066 C 
ENDBRANCH  19  20
ENDBRANCH  18  19
ENDBRANCH  14  15
ENDBRANCH  12  13
TORSDOF 6
ENDMDL
MODEL 4
REMARK VINA RESULT:      -8.0      1.245      1.728
REMARK  Name = C:\Users\Docking\Desktop\test protocol\1iep_ligandH.pdb
REMARK  8 active torsions:
REMARK  status: ('A' for Active; 'I' for Inactive)
REMARK    1  A    between atoms: _5  and  _11
REMARK    2  A    between atoms: _19  and  _21
REMARK    3  A    between atoms: _22  and  _66
REMARK    4  A    between atoms: _27  and  _30
REMARK    5  A    between atoms: _32  and  _33
REMARK    6  A    between atoms: _38  and  _43
REMARK    7  A    between atoms: _43  and  _46
REMARK    8  A    between atoms: _53  and  _55
REMARK                            x       y       z     vdW  Elec       q    Type
REMARK                         _______ _______ _______ _____ _____    ______ ____
ROOT
ATOM     10  C   UNL     1      -5.311   7.444   6.217  0.00  0.00    +0.038 A 
ATOM     11  C   UNL     1      -5.518   6.985   4.891  0.00  0.00    +0.047 A 
ATOM     12  C   UNL     1      -4.662   5.966   4.305  0.00  0.00    +0.035 A 
ATOM     32  C   UNL     1      -3.604   5.434   5.098  0.00  0.00    +0.024 A 
ATOM     33  C   UNL     1      -3.378   5.890   6.447  0.00  0.00    +0.007 A 
ATOM     34  C   UNL     1      -4.218   6.897   7.030  0.00  0.00    -0.029 A 
ATOM     35  C   UNL     1      -3.926   7.352   8.479  0.00  0.00    +0.045 C 
ENDROOT
BRANCH  10   9
ATOM      4  C   UNL     1      -6.539  12.027   6.943  0.00  0.00    +0.077 A 
ATOM      5  C   UNL     1      -5.370  12.509   6.267  0.00  0.00    +0.048 A 
ATOM      6  C   UNL     1      -4.473  11.545   5.753  0.00  0.00    +0.116 A 
ATOM      7  N   UNL     1      -4.737  10.202   5.909  0.00  0.00    -0.223 NA
ATOM      8  C   UNL     1      -5.874   9.770   6.568  0.00  0.00    +0.220 A 
ATOM      9  N   UNL     1      -6.163   8.424   6.730  0.00  0.00    -0.283 N 
ATOM     36  H   UNL     1      -7.008   8.147   7.228  0.00  0.00    +0.155 HD
ATOM     37  N   UNL     1      -6.745  10.671   7.069  0.00  0.00    -0.214 NA
BRANCH   4   3
ATOM      1  C   UNL     1      -8.520  15.194   8.104  0.00  0.00    +0.020 A 
ATOM      2  C   UNL     1      -7.485  14.375   7.516  0.00  0.00    +0.013 A 
ATOM      3  C   UNL     1      -7.582  12.921   7.537  0.00  0.00    +0.019 A 
ATOM     38  C   UNL     1      -8.750  12.322   8.166  0.00  0.00    +0.120 A 
ATOM     39  N   UNL     1      -9.730  13.136   8.726  0.00  0.00    -0.263 NA
ATOM     40  C   UNL     1      -9.646  14.536   8.712  0.00  0.00    +0.111 A 
ENDBRANCH   4   3
ENDBRANCH  10   9
BRANCH  12  13
ATOM     13  N   UNL     1      -4.819   5.467   2.961  0.00  0.00    -0.281 N 
ATOM     14  C   UNL     1      -4.048   5.759   1.848  0.00  0.00    +0.248 C 
ATOM     30  O   UNL     1      -3.230   6.665   1.793  0.00  0.00    -0.270 OA
ATOM     31  H   UNL     1      -5.593   4.819   2.813  0.00  0.00    +0.155 HD
BRANCH  14  15
ATOM     15  C   UNL     1      -4.220   4.934   0.614  0.00  0.00    +0.037 A 
ATOM     16  C   UNL     1      -4.656   3.537   0.687  0.00  0.00    +0.013 A 
ATOM     17  C   UNL     1      -4.798   2.759  -0.518  0.00  0.00    +0.005 A 
ATOM     18  C   UNL     1      -4.505   3.378  -1.808  0.00  0.00    -0.033 A 
ATOM     28  C   UNL     1      -4.079   4.767  -1.853  0.00  0.00    +0.005 A 
ATOM     29  C   UNL     1      -3.938   5.533  -0.674  0.00  0.00    +0.013 A 
BRANCH  18  19
ATOM     19  C   UNL     1      -4.608   2.617  -3.143  0.00  0.00    +0.119 C 
BRANCH  19  20
ATOM     20  N   UNL     1      -5.962   2.507  -3.764  0.00  0.00    -0.302 NA
ATOM     21  C   UNL     1      -6.743   1.304  -3.228  0.00  0.00    +0.066 C 
ATOM     22  C   UNL     1      -8.166   1.216  -3.871  0.00  0.00    -0.064 C 
ATOM     23  N   UNL     1      -8.030   1.140  -5.393  0.00  0.00    +0.379 N 
ATOM     24  C   UNL     1      -9.363   1.000  -5.998  0.00  0.00    -0.096 C 
ATOM     25  H   UNL     1      -7.450   0.220  -5.635  0.00  0.00    -0.082 HD
ATOM     26  C   UNL     1      -7.252   2.331  -5.934  0.00  0.00    -0.064 C 
ATOM     27  C   UNL     1      -5.852   2.426  -5.267  0.00  0.00    +0.066 C 
ENDBRANCH  19  20
ENDBRANCH  18  19
ENDBRANCH  14  15
ENDBRANCH  12  13
TORSDOF 6
ENDMDL
MODEL 5
REMARK VINA RESULT:      -8.0     27.960     32.077
REMARK  Name = C:\Users\Docking\Desktop\test protocol\1iep_ligandH.pdb
REMARK  8 active torsions:
REMARK  status: ('A' for Active; 'I' for Inactive)
REMARK    1  A    between atoms: _5  and  _11
REMARK    2  A    between atoms: _19  and  _21
REMARK    3  A    between atoms: _22  and  _66
REMARK    4  A    between atoms: _27  and  _30
REMARK    5  A    between atoms: _32  and  _33
REMARK    6  A    between atoms: _38  and  _43
REMARK    7  A    between atoms: _43  and  _46
REMARK    8  A    between atoms: _53  and  _55
REMARK                            x       y       z     vdW  Elec       q    Type
REMARK                         _______ _______ _______ _____ _____    ______ ____
ROOT
ATOM     10  C   UNL     1      12.479  -5.168 -17.832  0.00  0.00    +0.038 A 
ATOM     11  C   UNL     1      11.363  -6.037 -17.734  0.00  0.00    +0.047 A 
ATOM     12  C   UNL     1      10.336  -5.831 -16.724  0.00  0.00    +0.035 A 
ATOM     32  C   UNL     1      10.477  -4.729 -15.831  0.00  0.00    +0.024 A 
ATOM     33  C   UNL     1      11.606  -3.837 -15.916  0.00  0.00    +0.007 A 
ATOM     34  C   UNL     1      12.623  -4.036 -16.909  0.00  0.00    -0.029 A 
ATOM     35  C   UNL     1      13.815  -3.051 -16.949  0.00  0.00    +0.045 C 
ENDROOT
BRANCH  10   9
ATOM      4  C   UNL     1      14.941  -8.124 -20.702  0.00  0.00    +0.077 A 
ATOM      5  C   UNL     1      14.286  -9.284 -20.167  0.00  0.00    +0.048 A 
ATOM      6  C   UNL     1      13.328  -9.077 -19.150  0.00  0.00    +0.116 A 
ATOM      7  N   UNL     1      13.052  -7.801 -18.709  0.00  0.00    -0.223 NA
ATOM      8  C   UNL     1      13.703  -6.704 -19.244  0.00  0.00    +0.220 A 
ATOM      9  N   UNL     1      13.435  -5.412 -18.820  0.00  0.00    -0.283 N 
ATOM     36  H   UNL     1      13.942  -4.630 -19.235  0.00  0.00    +0.155 HD
ATOM     37  N   UNL     1      14.623  -6.876 -20.215  0.00  0.00    -0.214 NA
BRANCH   4   3
ATOM      1  C   UNL     1      18.075  -7.357 -22.913  0.00  0.00    +0.020 A 
ATOM      2  C   UNL     1      17.103  -7.260 -21.848  0.00  0.00    +0.013 A 
ATOM      3  C   UNL     1      15.975  -8.180 -21.783  0.00  0.00    +0.019 A 
ATOM     38  C   UNL     1      15.858  -9.195 -22.819  0.00  0.00    +0.120 A 
ATOM     39  N   UNL     1      16.808  -9.263 -23.833  0.00  0.00    -0.263 NA
ATOM     40  C   UNL     1      17.897  -8.382 -23.907  0.00  0.00    +0.111 A 
ENDBRANCH   4   3
ENDBRANCH  10   9
BRANCH  12  13
ATOM     13  N   UNL     1       9.184  -6.685 -16.571  0.00  0.00    -0.281 N 
ATOM     14  C   UNL     1       9.152  -8.069 -16.509  0.00  0.00    +0.248 C 
ATOM     30  O   UNL     1      10.093  -8.795 -16.791  0.00  0.00    -0.270 OA
ATOM     31  H   UNL     1       8.283  -6.212 -16.500  0.00  0.00    +0.155 HD
BRANCH  14  15
ATOM     15  C   UNL     1       7.887  -8.743 -16.086  0.00  0.00    +0.037 A 
ATOM     16  C   UNL     1       6.642  -8.563 -16.837  0.00  0.00    +0.013 A 
ATOM     17  C   UNL     1       5.432  -9.211 -16.398  0.00  0.00    +0.005 A 
ATOM     18  C   UNL     1       5.462 -10.048 -15.201  0.00  0.00    -0.033 A 
ATOM     28  C   UNL     1       6.712 -10.214 -14.478  0.00  0.00    +0.005 A 
ATOM     29  C   UNL     1       7.900  -9.579 -14.905  0.00  0.00    +0.013 A 
BRANCH  18  19
ATOM     19  C   UNL     1       4.214 -10.761 -14.647  0.00  0.00    +0.119 C 
BRANCH  19  20
ATOM     20  N   UNL     1       3.635 -11.864 -15.471  0.00  0.00    -0.302 NA
ATOM     21  C   UNL     1       2.106 -11.897 -15.394  0.00  0.00    +0.066 C 
ATOM     22  C   UNL     1       1.516 -13.043 -16.279  0.00  0.00    -0.064 C 
ATOM     23  N   UNL     1       2.109 -14.382 -15.837  0.00  0.00    +0.379 N 
ATOM     24  C   UNL     1       1.513 -15.467 -16.629  0.00  0.00    -0.096 C 
ATOM     25  H   UNL     1       1.823 -14.543 -14.772  0.00  0.00    -0.082 HD
ATOM     26  C   UNL     1       3.629 -14.357 -15.908  0.00  0.00    -0.064 C 
ATOM     27  C   UNL     1       4.204 -13.197 -15.049  0.00  0.00    +0.066 C 
ENDBRANCH  19  20
ENDBRANCH  18  19
ENDBRANCH  14  15
ENDBRANCH  12  13
TORSDOF 6
ENDMDL
