MODEL 1
REMARK VINA RESULT:      -9.1      0.000      0.000
REMARK  Name = C:\Users\Docking\Desktop\test protocol\1iep_ligandH.pdb
REMARK  8 active torsions:
REMARK  status: ('A' for Active; 'I' for Inactive)
REMARK    1  A    between atoms: _5  and  _11
REMARK    2  A    between atoms: _19  and  _21
REMARK    3  A    between atoms: _22  and  _66
REMARK    4  A    between atoms: _27  and  _30
REMARK    5  A    between atoms: _32  and  _33
REMARK    6  A    between atoms: _38  and  _43
REMARK    7  A    between atoms: _43  and  _46
REMARK    8  A    between atoms: _53  and  _55
REMARK                            x       y       z     vdW  Elec       q    Type
REMARK                         _______ _______ _______ _____ _____    ______ ____
ROOT
ATOM     10  C   UNL     1      -8.782  -8.074   1.948  0.00  0.00    +0.038 A 
ATOM     11  C   UNL     1      -8.311  -7.413   0.784  0.00  0.00    +0.047 A 
ATOM     12  C   UNL     1      -7.509  -6.204   0.878  0.00  0.00    +0.035 A 
ATOM     32  C   UNL     1      -7.202  -5.695   2.174  0.00  0.00    +0.024 A 
ATOM     33  C   UNL     1      -7.674  -6.352   3.367  0.00  0.00    +0.007 A 
ATOM     34  C   UNL     1      -8.467  -7.545   3.281  0.00  0.00    -0.029 A 
ATOM     35  C   UNL     1      -8.951  -8.204   4.593  0.00  0.00    +0.045 C 
ENDROOT
BRANCH  10   9
ATOM      4  C   UNL     1     -12.991 -10.334   1.490  0.00  0.00    +0.077 A 
ATOM      5  C   UNL     1     -13.727  -9.107   1.581  0.00  0.00    +0.048 A 
ATOM      6  C   UNL     1     -12.986  -7.916   1.753  0.00  0.00    +0.116 A 
ATOM      7  N   UNL     1     -11.610  -7.962   1.826  0.00  0.00    -0.223 NA
ATOM      8  C   UNL     1     -10.931  -9.163   1.736  0.00  0.00    +0.220 A 
ATOM      9  N   UNL     1      -9.548  -9.232   1.799  0.00  0.00    -0.283 N 
ATOM     36  H   UNL     1      -9.085 -10.138   1.737  0.00  0.00    +0.155 HD
ATOM     37  N   UNL     1     -11.616 -10.314   1.574  0.00  0.00    -0.214 NA
BRANCH   4   3
ATOM      1  C   UNL     1     -13.576 -14.106   0.636  0.00  0.00    +0.020 A 
ATOM      2  C   UNL     1     -12.910 -12.834   0.796  0.00  0.00    +0.013 A 
ATOM      3  C   UNL     1     -13.632 -11.675   1.305  0.00  0.00    +0.019 A 
ATOM     38  C   UNL     1     -15.037 -11.837   1.645  0.00  0.00    +0.120 A 
ATOM     39  N   UNL     1     -15.652 -13.074   1.480  0.00  0.00    -0.263 NA
ATOM     40  C   UNL     1     -14.968 -14.197   0.989  0.00  0.00    +0.111 A 
ENDBRANCH   4   3
ENDBRANCH  10   9
BRANCH  12  13
ATOM     13  N   UNL     1      -7.009  -5.485  -0.268  0.00  0.00    -0.281 N 
ATOM     14  C   UNL     1      -7.647  -4.495  -0.997  0.00  0.00    +0.248 C 
ATOM     30  O   UNL     1      -8.835  -4.224  -0.902  0.00  0.00    -0.270 OA
ATOM     31  H   UNL     1      -6.072  -5.738  -0.581  0.00  0.00    +0.155 HD
BRANCH  14  15
ATOM     15  C   UNL     1      -6.854  -3.700  -1.983  0.00  0.00    +0.037 A 
ATOM     16  C   UNL     1      -5.566  -4.182  -2.488  0.00  0.00    +0.013 A 
ATOM     17  C   UNL     1      -4.814  -3.387  -3.426  0.00  0.00    +0.005 A 
ATOM     18  C   UNL     1      -5.349  -2.101  -3.866  0.00  0.00    -0.033 A 
ATOM     28  C   UNL     1      -6.632  -1.649  -3.354  0.00  0.00    +0.005 A 
ATOM     29  C   UNL     1      -7.372  -2.425  -2.433  0.00  0.00    +0.013 A 
BRANCH  18  19
ATOM     19  C   UNL     1      -4.604  -1.178  -4.848  0.00  0.00    +0.119 C 
BRANCH  19  20
ATOM     20  N   UNL     1      -3.396  -0.465  -4.335  0.00  0.00    -0.302 NA
ATOM     21  C   UNL     1      -3.251   0.932  -4.944  0.00  0.00    +0.066 C 
ATOM     22  C   UNL     1      -1.994   1.671  -4.379  0.00  0.00    -0.064 C 
ATOM     23  N   UNL     1      -0.746   0.830  -4.650  0.00  0.00    +0.379 N 
ATOM     24  C   UNL     1       0.444   1.549  -4.171  0.00  0.00    -0.096 C 
ATOM     25  H   UNL     1      -0.650   0.713  -5.754  0.00  0.00    -0.082 HD
ATOM     26  C   UNL     1      -0.883  -0.562  -4.050  0.00  0.00    -0.064 C 
ATOM     27  C   UNL     1      -2.151  -1.277  -4.595  0.00  0.00    +0.066 C 
ENDBRANCH  19  20
ENDBRANCH  18  19
ENDBRANCH  14  15
ENDBRANCH  12  13
TORSDOF 6
ENDMDL
MODEL 2
REMARK VINA RESULT:      -8.6      1.783      2.497
REMARK  Name = C:\Users\Docking\Desktop\test protocol\1iep_ligandH.pdb
REMARK  8 active torsions:
REMARK  status: ('A' for Active; 'I' for Inactive)
REMARK    1  A    between atoms: _5  and  _11
REMARK    2  A    between atoms: _19  and  _21
REMARK    3  A    between atoms: _22  and  _66
REMARK    4  A    between atoms: _27  and  _30
REMARK    5  A    between atoms: _32  and  _33
REMARK    6  A    between atoms: _38  and  _43
REMARK    7  A    between atoms: _43  and  _46
REMARK    8  A    between atoms: _53  and  _55
REMARK                            x       y       z     vdW  Elec       q    Type
REMARK                         _______ _______ _______ _____ _____    ______ ____
ROOT
ATOM     10  C   UNL     1     -10.245  -6.847   1.987  0.00  0.00    +0.038 A 
ATOM     11  C   UNL     1      -9.704  -6.179   0.860  0.00  0.00    +0.047 A 
ATOM     12  C   UNL     1      -8.266  -6.079   0.664  0.00  0.00    +0.035 A 
ATOM     32  C   UNL     1      -7.408  -6.673   1.635  0.00  0.00    +0.024 A 
ATOM     33  C   UNL     1      -7.942  -7.355   2.787  0.00  0.00    +0.007 A 
ATOM     34  C   UNL     1      -9.360  -7.455   2.987  0.00  0.00    -0.029 A 
ATOM     35  C   UNL     1      -9.876  -8.192   4.245  0.00  0.00    +0.045 C 
ENDROOT
BRANCH  10   9
ATOM      4  C   UNL     1     -14.447  -9.111   1.478  0.00  0.00    +0.077 A 
ATOM      5  C   UNL     1     -13.826 -10.248   0.859  0.00  0.00    +0.048 A 
ATOM      6  C   UNL     1     -12.425 -10.206   0.684  0.00  0.00    +0.116 A 
ATOM      7  N   UNL     1     -11.707  -9.106   1.100  0.00  0.00    -0.223 NA
ATOM      8  C   UNL     1     -12.337  -8.027   1.692  0.00  0.00    +0.220 A 
ATOM      9  N   UNL     1     -11.634  -6.913   2.126  0.00  0.00    -0.283 N 
ATOM     36  H   UNL     1     -12.136  -6.134   2.551  0.00  0.00    +0.155 HD
ATOM     37  N   UNL     1     -13.674  -8.041   1.869  0.00  0.00    -0.214 NA
BRANCH   4   3
ATOM      1  C   UNL     1     -17.993  -9.500   3.082  0.00  0.00    +0.020 A 
ATOM      2  C   UNL     1     -16.568  -9.632   2.880  0.00  0.00    +0.013 A 
ATOM      3  C   UNL     1     -15.918  -9.007   1.735  0.00  0.00    +0.019 A 
ATOM     38  C   UNL     1     -16.743  -8.248   0.807  0.00  0.00    +0.120 A 
ATOM     39  N   UNL     1     -18.113  -8.140   1.027  0.00  0.00    -0.263 NA
ATOM     40  C   UNL     1     -18.750  -8.738   2.124  0.00  0.00    +0.111 A 
ENDBRANCH   4   3
ENDBRANCH  10   9
BRANCH  12  13
ATOM     13  N   UNL     1      -7.658  -5.406  -0.457  0.00  0.00    -0.281 N 
ATOM     14  C   UNL     1      -8.104  -4.270  -1.113  0.00  0.00    +0.248 C 
ATOM     30  O   UNL     1      -9.214  -3.780  -0.969  0.00  0.00    -0.270 OA
ATOM     31  H   UNL     1      -6.793  -5.817  -0.811  0.00  0.00    +0.155 HD
BRANCH  14  15
ATOM     15  C   UNL     1      -7.190  -3.588  -2.079  0.00  0.00    +0.037 A 
ATOM     16  C   UNL     1      -5.882  -4.155  -2.418  0.00  0.00    +0.013 A 
ATOM     17  C   UNL     1      -5.013  -3.468  -3.340  0.00  0.00    +0.005 A 
ATOM     18  C   UNL     1      -5.449  -2.205  -3.930  0.00  0.00    -0.033 A 
ATOM     28  C   UNL     1      -6.754  -1.667  -3.580  0.00  0.00    +0.005 A 
ATOM     29  C   UNL     1      -7.608  -2.337  -2.676  0.00  0.00    +0.013 A 
BRANCH  18  19
ATOM     19  C   UNL     1      -4.578  -1.392  -4.906  0.00  0.00    +0.119 C 
BRANCH  19  20
ATOM     20  N   UNL     1      -3.389  -0.689  -4.339  0.00  0.00    -0.302 NA
ATOM     21  C   UNL     1      -3.231   0.724  -4.909  0.00  0.00    +0.066 C 
ATOM     22  C   UNL     1      -1.996   1.453  -4.288  0.00  0.00    -0.064 C 
ATOM     23  N   UNL     1      -0.736   0.623  -4.541  0.00  0.00    +0.379 N 
ATOM     24  C   UNL     1       0.435   1.334  -4.009  0.00  0.00    -0.096 C 
ATOM     25  H   UNL     1      -0.606   0.534  -5.644  0.00  0.00    -0.082 HD
ATOM     26  C   UNL     1      -0.886  -0.784  -3.979  0.00  0.00    -0.064 C 
ATOM     27  C   UNL     1      -2.134  -1.489  -4.581  0.00  0.00    +0.066 C 
ENDBRANCH  19  20
ENDBRANCH  18  19
ENDBRANCH  14  15
ENDBRANCH  12  13
TORSDOF 6
ENDMDL
MODEL 3
REMARK VINA RESULT:      -8.0      2.905      3.939
REMARK  Name = C:\Users\Docking\Desktop\test protocol\1iep_ligandH.pdb
REMARK  8 active torsions:
REMARK  status: ('A' for Active; 'I' for Inactive)
REMARK    1  A    between atoms: _5  and  _11
REMARK    2  A    between atoms: _19  and  _21
REMARK    3  A    between atoms: _22  and  _66
REMARK    4  A    between atoms: _27  and  _30
REMARK    5  A    between atoms: _32  and  _33
REMARK    6  A    between atoms: _38  and  _43
REMARK    7  A    between atoms: _43  and  _46
REMARK    8  A    between atoms: _53  and  _55
REMARK                            x       y       z     vdW  Elec       q    Type
REMARK                         _______ _______ _______ _____ _____    ______ ____
ROOT
ATOM     10  C   UNL     1     -11.264  -7.734   2.150  0.00  0.00    +0.038 A 
ATOM     11  C   UNL     1     -10.665  -6.753   1.319  0.00  0.00    +0.047 A 
ATOM     12  C   UNL     1      -9.453  -7.041   0.567  0.00  0.00    +0.035 A 
ATOM     32  C   UNL     1      -8.880  -8.341   0.682  0.00  0.00    +0.024 A 
ATOM     33  C   UNL     1      -9.475  -9.350   1.523  0.00  0.00    +0.007 A 
ATOM     34  C   UNL     1     -10.669  -9.071   2.269  0.00  0.00    -0.029 A 
ATOM     35  C   UNL     1     -11.260 -10.189   3.159  0.00  0.00    +0.045 C 
ENDROOT
BRANCH  10   9
ATOM      4  C   UNL     1     -16.035  -7.746   2.676  0.00  0.00    +0.077 A 
ATOM      5  C   UNL     1     -16.229  -8.447   1.440  0.00  0.00    +0.048 A 
ATOM      6  C   UNL     1     -15.075  -8.780   0.695  0.00  0.00    +0.116 A 
ATOM      7  N   UNL     1     -13.826  -8.433   1.161  0.00  0.00    -0.223 NA
ATOM      8  C   UNL     1     -13.674  -7.755   2.357  0.00  0.00    +0.220 A 
ATOM      9  N   UNL     1     -12.427  -7.403   2.849  0.00  0.00    -0.283 N 
ATOM     36  H   UNL     1     -12.357  -6.897   3.731  0.00  0.00    +0.155 HD
ATOM     37  N   UNL     1     -14.760  -7.425   3.086  0.00  0.00    -0.214 NA
BRANCH   4   3
ATOM      1  C   UNL     1     -18.226  -7.085   5.848  0.00  0.00    +0.020 A 
ATOM      2  C   UNL     1     -17.117  -7.507   5.023  0.00  0.00    +0.013 A 
ATOM      3  C   UNL     1     -17.155  -7.328   3.577  0.00  0.00    +0.019 A 
ATOM     38  C   UNL     1     -18.337  -6.712   2.993  0.00  0.00    +0.120 A 
ATOM     39  N   UNL     1     -19.389  -6.317   3.813  0.00  0.00    -0.263 NA
ATOM     40  C   UNL     1     -19.366  -6.486   5.205  0.00  0.00    +0.111 A 
ENDBRANCH   4   3
ENDBRANCH  10   9
BRANCH  12  13
ATOM     13  N   UNL     1      -8.796  -6.082  -0.285  0.00  0.00    -0.281 N 
ATOM     14  C   UNL     1      -7.715  -5.271   0.020  0.00  0.00    +0.248 C 
ATOM     30  O   UNL     1      -7.283  -5.092   1.149  0.00  0.00    -0.270 OA
ATOM     31  H   UNL     1      -9.172  -5.990  -1.229  0.00  0.00    +0.155 HD
BRANCH  14  15
ATOM     15  C   UNL     1      -7.024  -4.541  -1.086  0.00  0.00    +0.037 A 
ATOM     16  C   UNL     1      -5.611  -4.781  -1.389  0.00  0.00    +0.013 A 
ATOM     17  C   UNL     1      -4.965  -4.051  -2.451  0.00  0.00    +0.005 A 
ATOM     18  C   UNL     1      -5.733  -3.074  -3.219  0.00  0.00    -0.033 A 
ATOM     28  C   UNL     1      -7.135  -2.859  -2.901  0.00  0.00    +0.005 A 
ATOM     29  C   UNL     1      -7.771  -3.572  -1.860  0.00  0.00    +0.013 A 
BRANCH  18  19
ATOM     19  C   UNL     1      -5.119  -2.235  -4.355  0.00  0.00    +0.119 C 
BRANCH  19  20
ATOM     20  N   UNL     1      -3.943  -1.380  -4.015  0.00  0.00    -0.302 NA
ATOM     21  C   UNL     1      -3.994  -0.024  -4.725  0.00  0.00    +0.066 C 
ATOM     22  C   UNL     1      -2.767   0.866  -4.340  0.00  0.00    -0.064 C 
ATOM     23  N   UNL     1      -1.475   0.124  -4.683  0.00  0.00    +0.379 N 
ATOM     24  C   UNL     1      -0.320   0.982  -4.376  0.00  0.00    -0.096 C 
ATOM     25  H   UNL     1      -1.474  -0.064  -5.782  0.00  0.00    -0.082 HD
ATOM     26  C   UNL     1      -1.417  -1.227  -3.983  0.00  0.00    -0.064 C 
ATOM     27  C   UNL     1      -2.655  -2.092  -4.349  0.00  0.00    +0.066 C 
ENDBRANCH  19  20
ENDBRANCH  18  19
ENDBRANCH  14  15
ENDBRANCH  12  13
TORSDOF 6
ENDMDL
