MODEL 1
REMARK VINA RESULT:      -8.6      0.000      0.000
REMARK  Name = C:\Users\Docking\Desktop\test protocol\1iep_ligandH.pdb
REMARK  8 active torsions:
REMARK  status: ('A' for Active; 'I' for Inactive)
REMARK    1  A    between atoms: _5  and  _11
REMARK    2  A    between atoms: _19  and  _21
REMARK    3  A    between atoms: _22  and  _66
REMARK    4  A    between atoms: _27  and  _30
REMARK    5  A    between atoms: _32  and  _33
REMARK    6  A    between atoms: _38  and  _43
REMARK    7  A    between atoms: _43  and  _46
REMARK    8  A    between atoms: _53  and  _55
REMARK                            x       y       z     vdW  Elec       q    Type
REMARK                         _______ _______ _______ _____ _____    ______ ____
ROOT
ATOM     10  C   UNL     1      32.584  32.386  10.460  0.00  0.00    +0.038 A 
ATOM     11  C   UNL     1      33.160  33.436  11.220  0.00  0.00    +0.047 A 
ATOM     12  C   UNL     1      34.483  33.954  10.906  0.00  0.00    +0.035 A 
ATOM     32  C   UNL     1      35.190  33.381   9.809  0.00  0.00    +0.024 A 
ATOM     33  C   UNL     1      34.619  32.313   9.026  0.00  0.00    +0.007 A 
ATOM     34  C   UNL     1      33.316  31.796   9.333  0.00  0.00    -0.029 A 
ATOM     35  C   UNL     1      32.757  30.645   8.464  0.00  0.00    +0.045 C 
ENDROOT
BRANCH  10   9
ATOM      4  C   UNL     1      29.614  29.833  13.236  0.00  0.00    +0.077 A 
ATOM      5  C   UNL     1      30.693  29.352  14.049  0.00  0.00    +0.048 A 
ATOM      6  C   UNL     1      31.998  29.779  13.716  0.00  0.00    +0.116 A 
ATOM      7  N   UNL     1      32.197  30.625  12.647  0.00  0.00    -0.223 NA
ATOM      8  C   UNL     1      31.135  31.070  11.881  0.00  0.00    +0.220 A 
ATOM      9  N   UNL     1      31.311  31.927  10.806  0.00  0.00    -0.283 N 
ATOM     36  H   UNL     1      30.502  32.226  10.262  0.00  0.00    +0.155 HD
ATOM     37  N   UNL     1      29.879  30.675  12.178  0.00  0.00    -0.214 NA
BRANCH   4   3
ATOM      1  C   UNL     1      26.009  29.634  14.741  0.00  0.00    +0.020 A 
ATOM      2  C   UNL     1      27.392  30.013  14.566  0.00  0.00    +0.013 A 
ATOM      3  C   UNL     1      28.179  29.474  13.464  0.00  0.00    +0.019 A 
ATOM     38  C   UNL     1      27.531  28.547  12.549  0.00  0.00    +0.120 A 
ATOM     39  N   UNL     1      26.198  28.199  12.743  0.00  0.00    -0.263 NA
ATOM     40  C   UNL     1      25.431  28.710  13.801  0.00  0.00    +0.111 A 
ENDBRANCH   4   3
ENDBRANCH  10   9
BRANCH  12  13
ATOM     13  N   UNL     1      35.122  35.012  11.647  0.00  0.00    -0.281 N 
ATOM     14  C   UNL     1      34.590  35.776  12.673  0.00  0.00    +0.248 C 
ATOM     30  O   UNL     1      33.404  35.808  12.967  0.00  0.00    -0.270 OA
ATOM     31  H   UNL     1      36.085  35.225  11.384  0.00  0.00    +0.155 HD
BRANCH  14  15
ATOM     15  C   UNL     1      35.504  36.640  13.480  0.00  0.00    +0.037 A 
ATOM     16  C   UNL     1      36.789  37.096  12.943  0.00  0.00    +0.013 A 
ATOM     17  C   UNL     1      37.660  37.914  13.749  0.00  0.00    +0.005 A 
ATOM     18  C   UNL     1      37.247  38.283  15.101  0.00  0.00    -0.033 A 
ATOM     28  C   UNL     1      35.965  37.822  15.607  0.00  0.00    +0.005 A 
ATOM     29  C   UNL     1      35.109  37.019  14.820  0.00  0.00    +0.013 A 
BRANCH  18  19
ATOM     19  C   UNL     1      38.122  39.136  16.039  0.00  0.00    +0.119 C 
BRANCH  19  20
ATOM     20  N   UNL     1      37.469  40.295  16.717  0.00  0.00    -0.302 NA
ATOM     21  C   UNL     1      36.864  41.281  15.714  0.00  0.00    +0.066 C 
ATOM     22  C   UNL     1      36.166  42.476  16.441  0.00  0.00    -0.064 C 
ATOM     23  N   UNL     1      37.177  43.179  17.349  0.00  0.00    +0.379 N 
ATOM     24  C   UNL     1      36.539  44.338  17.989  0.00  0.00    -0.096 C 
ATOM     25  H   UNL     1      38.002  43.561  16.703  0.00  0.00    -0.082 HD
ATOM     26  C   UNL     1      37.786  42.205  18.347  0.00  0.00    -0.064 C 
ATOM     27  C   UNL     1      38.452  41.006  17.616  0.00  0.00    +0.066 C 
ENDBRANCH  19  20
ENDBRANCH  18  19
ENDBRANCH  14  15
ENDBRANCH  12  13
TORSDOF 6
ENDMDL
MODEL 2
REMARK VINA RESULT:      -8.4      2.193      2.610
REMARK  Name = C:\Users\Docking\Desktop\test protocol\1iep_ligandH.pdb
REMARK  8 active torsions:
REMARK  status: ('A' for Active; 'I' for Inactive)
REMARK    1  A    between atoms: _5  and  _11
REMARK    2  A    between atoms: _19  and  _21
REMARK    3  A    between atoms: _22  and  _66
REMARK    4  A    between atoms: _27  and  _30
REMARK    5  A    between atoms: _32  and  _33
REMARK    6  A    between atoms: _38  and  _43
REMARK    7  A    between atoms: _43  and  _46
REMARK    8  A    between atoms: _53  and  _55
REMARK                            x       y       z     vdW  Elec       q    Type
REMARK                         _______ _______ _______ _____ _____    ______ ____
ROOT
ATOM     10  C   UNL     1      31.076  33.180  11.058  0.00  0.00    +0.038 A 
ATOM     11  C   UNL     1      31.985  33.721  12.003  0.00  0.00    +0.047 A 
ATOM     12  C   UNL     1      32.705  34.955  11.733  0.00  0.00    +0.035 A 
ATOM     32  C   UNL     1      32.474  35.614  10.490  0.00  0.00    +0.024 A 
ATOM     33  C   UNL     1      31.555  35.077   9.518  0.00  0.00    +0.007 A 
ATOM     34  C   UNL     1      30.843  33.859   9.778  0.00  0.00    -0.029 A 
ATOM     35  C   UNL     1      29.874  33.326   8.697  0.00  0.00    +0.045 C 
ENDROOT
BRANCH  10   9
ATOM      4  C   UNL     1      30.914  28.400  11.462  0.00  0.00    +0.077 A 
ATOM      5  C   UNL     1      32.259  28.255  10.986  0.00  0.00    +0.048 A 
ATOM      6  C   UNL     1      32.956  29.435  10.641  0.00  0.00    +0.116 A 
ATOM      7  N   UNL     1      32.343  30.662  10.767  0.00  0.00    -0.223 NA
ATOM      8  C   UNL     1      31.044  30.767  11.228  0.00  0.00    +0.220 A 
ATOM      9  N   UNL     1      30.410  31.992  11.370  0.00  0.00    -0.283 N 
ATOM     36  H   UNL     1      29.448  32.026  11.707  0.00  0.00    +0.155 HD
ATOM     37  N   UNL     1      30.356  29.655  11.563  0.00  0.00    -0.214 NA
BRANCH   4   3
ATOM      1  C   UNL     1      29.634  25.095  13.118  0.00  0.00    +0.020 A 
ATOM      2  C   UNL     1      30.509  26.185  12.755  0.00  0.00    +0.013 A 
ATOM      3  C   UNL     1      30.049  27.247  11.870  0.00  0.00    +0.019 A 
ATOM     38  C   UNL     1      28.686  27.176  11.365  0.00  0.00    +0.120 A 
ATOM     39  N   UNL     1      27.866  26.113  11.731  0.00  0.00    -0.263 NA
ATOM     40  C   UNL     1      28.299  25.084  12.581  0.00  0.00    +0.111 A 
ENDBRANCH   4   3
ENDBRANCH  10   9
BRANCH  12  13
ATOM     13  N   UNL     1      33.647  35.548  12.650  0.00  0.00    -0.281 N 
ATOM     14  C   UNL     1      34.981  35.845  12.428  0.00  0.00    +0.248 C 
ATOM     30  O   UNL     1      35.627  35.448  11.469  0.00  0.00    -0.270 OA
ATOM     31  H   UNL     1      33.285  35.776  13.576  0.00  0.00    +0.155 HD
BRANCH  14  15
ATOM     15  C   UNL     1      35.707  36.695  13.420  0.00  0.00    +0.037 A 
ATOM     16  C   UNL     1      35.145  36.962  14.747  0.00  0.00    +0.013 A 
ATOM     17  C   UNL     1      35.858  37.799  15.679  0.00  0.00    +0.005 A 
ATOM     18  C   UNL     1      37.143  38.373  15.288  0.00  0.00    -0.033 A 
ATOM     28  C   UNL     1      37.680  38.087  13.968  0.00  0.00    +0.005 A 
ATOM     29  C   UNL     1      36.983  37.268  13.051  0.00  0.00    +0.013 A 
BRANCH  18  19
ATOM     19  C   UNL     1      37.962  39.295  16.211  0.00  0.00    +0.119 C 
BRANCH  19  20
ATOM     20  N   UNL     1      37.236  40.415  16.879  0.00  0.00    -0.302 NA
ATOM     21  C   UNL     1      36.674  41.419  15.868  0.00  0.00    +0.066 C 
ATOM     22  C   UNL     1      35.897  42.573  16.583  0.00  0.00    -0.064 C 
ATOM     23  N   UNL     1      36.827  43.269  17.578  0.00  0.00    +0.379 N 
ATOM     24  C   UNL     1      36.117  44.391  18.210  0.00  0.00    -0.096 C 
ATOM     25  H   UNL     1      37.683  43.691  17.003  0.00  0.00    -0.082 HD
ATOM     26  C   UNL     1      37.392  42.277  18.585  0.00  0.00    -0.064 C 
ATOM     27  C   UNL     1      38.136  41.120  17.863  0.00  0.00    +0.066 C 
ENDBRANCH  19  20
ENDBRANCH  18  19
ENDBRANCH  14  15
ENDBRANCH  12  13
TORSDOF 6
ENDMDL
MODEL 3
REMARK VINA RESULT:      -8.1     14.925     20.839
REMARK  Name = C:\Users\Docking\Desktop\test protocol\1iep_ligandH.pdb
REMARK  8 active torsions:
REMARK  status: ('A' for Active; 'I' for Inactive)
REMARK    1  A    between atoms: _5  and  _11
REMARK    2  A    between atoms: _19  and  _21
REMARK    3  A    between atoms: _22  and  _66
REMARK    4  A    between atoms: _27  and  _30
REMARK    5  A    between atoms: _32  and  _33
REMARK    6  A    between atoms: _38  and  _43
REMARK    7  A    between atoms: _43  and  _46
REMARK    8  A    between atoms: _53  and  _55
REMARK                            x       y       z     vdW  Elec       q    Type
REMARK                         _______ _______ _______ _____ _____    ______ ____
ROOT
ATOM     10  C   UNL     1      15.041  32.033  20.224  0.00  0.00    +0.038 A 
ATOM     11  C   UNL     1      15.405  31.485  18.968  0.00  0.00    +0.047 A 
ATOM     12  C   UNL     1      14.653  30.388  18.378  0.00  0.00    +0.035 A 
ATOM     32  C   UNL     1      13.533  29.875  19.095  0.00  0.00    +0.024 A 
ATOM     33  C   UNL     1      13.149  30.419  20.373  0.00  0.00    +0.007 A 
ATOM     34  C   UNL     1      13.889  31.499  20.961  0.00  0.00    -0.029 A 
ATOM     35  C   UNL     1      13.436  32.039  22.338  0.00  0.00    +0.045 C 
ENDROOT
BRANCH  10   9
ATOM      4  C   UNL     1      15.892  36.709  20.891  0.00  0.00    +0.077 A 
ATOM      5  C   UNL     1      14.745  37.088  20.117  0.00  0.00    +0.048 A 
ATOM      6  C   UNL     1      13.966  36.050  19.559  0.00  0.00    +0.116 A 
ATOM      7  N   UNL     1      14.318  34.734  19.766  0.00  0.00    -0.223 NA
ATOM      8  C   UNL     1      15.431  34.402  20.516  0.00  0.00    +0.220 A 
ATOM      9  N   UNL     1      15.798  33.085  20.743  0.00  0.00    -0.283 N 
ATOM     36  H   UNL     1      16.631  32.882  21.296  0.00  0.00    +0.155 HD
ATOM     37  N   UNL     1      16.192  35.375  21.058  0.00  0.00    -0.214 NA
BRANCH   4   3
ATOM      1  C   UNL     1      18.492  39.571  21.482  0.00  0.00    +0.020 A 
ATOM      2  C   UNL     1      17.620  38.643  20.798  0.00  0.00    +0.013 A 
ATOM      3  C   UNL     1      16.811  37.691  21.548  0.00  0.00    +0.019 A 
ATOM     38  C   UNL     1      16.907  37.704  23.000  0.00  0.00    +0.120 A 
ATOM     39  N   UNL     1      17.756  38.608  23.631  0.00  0.00    -0.263 NA
ATOM     40  C   UNL     1      18.541  39.528  22.919  0.00  0.00    +0.111 A 
ENDBRANCH   4   3
ENDBRANCH  10   9
BRANCH  12  13
ATOM     13  N   UNL     1      14.981  29.786  17.109  0.00  0.00    -0.281 N 
ATOM     14  C   UNL     1      14.476  30.106  15.859  0.00  0.00    +0.248 C 
ATOM     30  O   UNL     1      13.503  30.819  15.669  0.00  0.00    -0.270 OA
ATOM     31  H   UNL     1      15.668  29.033  17.136  0.00  0.00    +0.155 HD
BRANCH  14  15
ATOM     15  C   UNL     1      15.141  29.540  14.646  0.00  0.00    +0.037 A 
ATOM     16  C   UNL     1      16.098  28.436  14.750  0.00  0.00    +0.013 A 
ATOM     17  C   UNL     1      16.738  27.920  13.566  0.00  0.00    +0.005 A 
ATOM     18  C   UNL     1      16.421  28.508  12.266  0.00  0.00    -0.033 A 
ATOM     28  C   UNL     1      15.464  29.599  12.192  0.00  0.00    +0.005 A 
ATOM     29  C   UNL     1      14.835  30.108  13.350  0.00  0.00    +0.013 A 
BRANCH  18  19
ATOM     19  C   UNL     1      17.072  28.035  10.953  0.00  0.00    +0.119 C 
BRANCH  19  20
ATOM     20  N   UNL     1      17.951  29.006  10.236  0.00  0.00    -0.302 NA
ATOM     21  C   UNL     1      18.378  28.488   8.860  0.00  0.00    +0.066 C 
ATOM     22  C   UNL     1      19.278  29.527   8.115  0.00  0.00    -0.064 C 
ATOM     23  N   UNL     1      20.501  29.848   8.977  0.00  0.00    +0.379 N 
ATOM     24  C   UNL     1      21.379  30.780   8.254  0.00  0.00    -0.096 C 
ATOM     25  H   UNL     1      21.066  28.900   9.129  0.00  0.00    -0.082 HD
ATOM     26  C   UNL     1      20.085  30.362  10.348  0.00  0.00    -0.064 C 
ATOM     27  C   UNL     1      19.166  29.335  11.067  0.00  0.00    +0.066 C 
ENDBRANCH  19  20
ENDBRANCH  18  19
ENDBRANCH  14  15
ENDBRANCH  12  13
TORSDOF 6
ENDMDL
