MODEL 1
REMARK VINA RESULT:      -7.6      0.000      0.000
REMARK  Name = C:\Users\Docking\Desktop\test protocol\1iep_ligandH.pdb
REMARK  8 active torsions:
REMARK  status: ('A' for Active; 'I' for Inactive)
REMARK    1  A    between atoms: _5  and  _11
REMARK    2  A    between atoms: _19  and  _21
REMARK    3  A    between atoms: _22  and  _66
REMARK    4  A    between atoms: _27  and  _30
REMARK    5  A    between atoms: _32  and  _33
REMARK    6  A    between atoms: _38  and  _43
REMARK    7  A    between atoms: _43  and  _46
REMARK    8  A    between atoms: _53  and  _55
REMARK                            x       y       z     vdW  Elec       q    Type
REMARK                         _______ _______ _______ _____ _____    ______ ____
ROOT
ATOM     10  C   UNL     1       1.328   8.883  -0.209  0.00  0.00    +0.038 A 
ATOM     11  C   UNL     1       1.131   8.256  -1.466  0.00  0.00    +0.047 A 
ATOM     12  C   UNL     1       2.037   8.498  -2.578  0.00  0.00    +0.035 A 
ATOM     32  C   UNL     1       3.136   9.382  -2.373  0.00  0.00    +0.024 A 
ATOM     33  C   UNL     1       3.351  10.028  -1.103  0.00  0.00    +0.007 A 
ATOM     34  C   UNL     1       2.459   9.796  -0.003  0.00  0.00    -0.029 A 
ATOM     35  C   UNL     1       2.735  10.520   1.335  0.00  0.00    +0.045 C 
ENDROOT
BRANCH  10   9
ATOM      4  C   UNL     1      -1.286   5.861   2.450  0.00  0.00    +0.077 A 
ATOM      5  C   UNL     1      -0.840   4.722   1.701  0.00  0.00    +0.048 A 
ATOM      6  C   UNL     1       0.057   4.957   0.634  0.00  0.00    +0.116 A 
ATOM      7  N   UNL     1       0.470   6.241   0.348  0.00  0.00    -0.223 NA
ATOM      8  C   UNL     1       0.019   7.317   1.090  0.00  0.00    +0.220 A 
ATOM      9  N   UNL     1       0.427   8.615   0.824  0.00  0.00    -0.283 N 
ATOM     36  H   UNL     1       0.066   9.383   1.390  0.00  0.00    +0.155 HD
ATOM     37  N   UNL     1      -0.839   7.118   2.112  0.00  0.00    -0.214 NA
BRANCH   4   3
ATOM      1  C   UNL     1      -3.156   4.631   5.659  0.00  0.00    +0.020 A 
ATOM      2  C   UNL     1      -2.222   4.667   4.557  0.00  0.00    +0.013 A 
ATOM      3  C   UNL     1      -2.231   5.773   3.608  0.00  0.00    +0.019 A 
ATOM     38  C   UNL     1      -3.205   6.836   3.804  0.00  0.00    +0.120 A 
ATOM     39  N   UNL     1      -4.094   6.774   4.874  0.00  0.00    -0.263 NA
ATOM     40  C   UNL     1      -4.095   5.713   5.792  0.00  0.00    +0.111 A 
ENDBRANCH   4   3
ENDBRANCH  10   9
BRANCH  12  13
ATOM     13  N   UNL     1       1.882   7.897  -3.879  0.00  0.00    -0.281 N 
ATOM     14  C   UNL     1       1.439   8.496  -5.047  0.00  0.00    +0.248 C 
ATOM     30  O   UNL     1       0.903   9.593  -5.101  0.00  0.00    -0.270 OA
ATOM     31  H   UNL     1       2.129   6.909  -3.947  0.00  0.00    +0.155 HD
BRANCH  14  15
ATOM     15  C   UNL     1       1.602   7.765  -6.340  0.00  0.00    +0.037 A 
ATOM     16  C   UNL     1       1.123   8.336  -7.602  0.00  0.00    +0.013 A 
ATOM     17  C   UNL     1       1.278   7.602  -8.833  0.00  0.00    +0.005 A 
ATOM     18  C   UNL     1       1.917   6.288  -8.808  0.00  0.00    -0.033 A 
ATOM     28  C   UNL     1       2.387   5.748  -7.543  0.00  0.00    +0.005 A 
ATOM     29  C   UNL     1       2.236   6.464  -6.335  0.00  0.00    +0.013 A 
BRANCH  18  19
ATOM     19  C   UNL     1       2.105   5.426 -10.070  0.00  0.00    +0.119 C 
BRANCH  19  20
ATOM     20  N   UNL     1       1.161   4.285 -10.265  0.00  0.00    -0.302 NA
ATOM     21  C   UNL     1      -0.143   4.478  -9.487  0.00  0.00    +0.066 C 
ATOM     22  C   UNL     1      -1.128   3.286  -9.720  0.00  0.00    -0.064 C 
ATOM     23  N   UNL     1      -0.445   1.978  -9.316  0.00  0.00    +0.379 N 
ATOM     24  C   UNL     1      -1.388   0.862  -9.479  0.00  0.00    -0.096 C 
ATOM     25  H   UNL     1      -0.191   2.051  -8.233  0.00  0.00    -0.082 HD
ATOM     26  C   UNL     1       0.855   1.779 -10.083  0.00  0.00    -0.064 C 
ATOM     27  C   UNL     1       1.814   2.983  -9.867  0.00  0.00    +0.066 C 
ENDBRANCH  19  20
ENDBRANCH  18  19
ENDBRANCH  14  15
ENDBRANCH  12  13
TORSDOF 6
ENDMDL
MODEL 2
REMARK VINA RESULT:      -7.6      1.302      1.881
REMARK  Name = C:\Users\Docking\Desktop\test protocol\1iep_ligandH.pdb
REMARK  8 active torsions:
REMARK  status: ('A' for Active; 'I' for Inactive)
REMARK    1  A    between atoms: _5  and  _11
REMARK    2  A    between atoms: _19  and  _21
REMARK    3  A    between atoms: _22  and  _66
REMARK    4  A    between atoms: _27  and  _30
REMARK    5  A    between atoms: _32  and  _33
REMARK    6  A    between atoms: _38  and  _43
REMARK    7  A    between atoms: _43  and  _46
REMARK    8  A    between atoms: _53  and  _55
REMARK                            x       y       z     vdW  Elec       q    Type
REMARK                         _______ _______ _______ _____ _____    ______ ____
ROOT
ATOM     10  C   UNL     1       1.310   8.877  -0.257  0.00  0.00    +0.038 A 
ATOM     11  C   UNL     1       1.145   8.249  -1.518  0.00  0.00    +0.047 A 
ATOM     12  C   UNL     1       2.066   8.507  -2.614  0.00  0.00    +0.035 A 
ATOM     32  C   UNL     1       3.147   9.409  -2.389  0.00  0.00    +0.024 A 
ATOM     33  C   UNL     1       3.330  10.056  -1.114  0.00  0.00    +0.007 A 
ATOM     34  C   UNL     1       2.422   9.808  -0.030  0.00  0.00    -0.029 A 
ATOM     35  C   UNL     1       2.662  10.535   1.313  0.00  0.00    +0.045 C 
ENDROOT
BRANCH  10   9
ATOM      4  C   UNL     1      -1.315   5.810   2.339  0.00  0.00    +0.077 A 
ATOM      5  C   UNL     1      -0.845   4.681   1.590  0.00  0.00    +0.048 A 
ATOM      6  C   UNL     1       0.066   4.933   0.539  0.00  0.00    +0.116 A 
ATOM      7  N   UNL     1       0.470   6.222   0.268  0.00  0.00    -0.223 NA
ATOM      8  C   UNL     1      -0.004   7.289   1.009  0.00  0.00    +0.220 A 
ATOM      9  N   UNL     1       0.395   8.593   0.759  0.00  0.00    -0.283 N 
ATOM     36  H   UNL     1       0.017   9.353   1.324  0.00  0.00    +0.155 HD
ATOM     37  N   UNL     1      -0.876   7.075   2.017  0.00  0.00    -0.214 NA
BRANCH   4   3
ATOM      1  C   UNL     1      -3.215   4.546   5.516  0.00  0.00    +0.020 A 
ATOM      2  C   UNL     1      -2.264   4.599   4.430  0.00  0.00    +0.013 A 
ATOM      3  C   UNL     1      -2.278   5.705   3.481  0.00  0.00    +0.019 A 
ATOM     38  C   UNL     1      -3.274   6.750   3.661  0.00  0.00    +0.120 A 
ATOM     39  N   UNL     1      -4.179   6.671   4.715  0.00  0.00    -0.263 NA
ATOM     40  C   UNL     1      -4.176   5.611   5.633  0.00  0.00    +0.111 A 
ENDBRANCH   4   3
ENDBRANCH  10   9
BRANCH  12  13
ATOM     13  N   UNL     1       1.945   7.905  -3.918  0.00  0.00    -0.281 N 
ATOM     14  C   UNL     1       1.629   8.525  -5.116  0.00  0.00    +0.248 C 
ATOM     30  O   UNL     1       1.192   9.662  -5.212  0.00  0.00    -0.270 OA
ATOM     31  H   UNL     1       2.111   6.900  -3.964  0.00  0.00    +0.155 HD
BRANCH  14  15
ATOM     15  C   UNL     1       1.812   7.768  -6.392  0.00  0.00    +0.037 A 
ATOM     16  C   UNL     1       1.874   8.457  -7.683  0.00  0.00    +0.013 A 
ATOM     17  C   UNL     1       2.034   7.701  -8.900  0.00  0.00    +0.005 A 
ATOM     18  C   UNL     1       2.134   6.245  -8.830  0.00  0.00    -0.033 A 
ATOM     28  C   UNL     1       2.075   5.587  -7.535  0.00  0.00    +0.005 A 
ATOM     29  C   UNL     1       1.918   6.325  -6.341  0.00  0.00    +0.013 A 
BRANCH  18  19
ATOM     19  C   UNL     1       2.285   5.356 -10.079  0.00  0.00    +0.119 C 
BRANCH  19  20
ATOM     20  N   UNL     1       2.815   3.975  -9.875  0.00  0.00    -0.302 NA
ATOM     21  C   UNL     1       4.340   3.920  -9.999  0.00  0.00    +0.066 C 
ATOM     22  C   UNL     1       4.879   2.472  -9.760  0.00  0.00    -0.064 C 
ATOM     23  N   UNL     1       4.221   1.516 -10.756  0.00  0.00    +0.379 N 
ATOM     24  C   UNL     1       4.769   0.164 -10.573  0.00  0.00    -0.096 C 
ATOM     25  H   UNL     1       4.494   1.856 -11.782  0.00  0.00    -0.082 HD
ATOM     26  C   UNL     1       2.704   1.566 -10.642  0.00  0.00    -0.064 C 
ATOM     27  C   UNL     1       2.181   3.014 -10.851  0.00  0.00    +0.066 C 
ENDBRANCH  19  20
ENDBRANCH  18  19
ENDBRANCH  14  15
ENDBRANCH  12  13
TORSDOF 6
ENDMDL
MODEL 3
REMARK VINA RESULT:      -7.5      2.921     11.848
REMARK  Name = C:\Users\Docking\Desktop\test protocol\1iep_ligandH.pdb
REMARK  8 active torsions:
REMARK  status: ('A' for Active; 'I' for Inactive)
REMARK    1  A    between atoms: _5  and  _11
REMARK    2  A    between atoms: _19  and  _21
REMARK    3  A    between atoms: _22  and  _66
REMARK    4  A    between atoms: _27  and  _30
REMARK    5  A    between atoms: _32  and  _33
REMARK    6  A    between atoms: _38  and  _43
REMARK    7  A    between atoms: _43  and  _46
REMARK    8  A    between atoms: _53  and  _55
REMARK                            x       y       z     vdW  Elec       q    Type
REMARK                         _______ _______ _______ _____ _____    ______ ____
ROOT
ATOM     10  C   UNL     1       2.007   8.644  -2.005  0.00  0.00    +0.038 A 
ATOM     11  C   UNL     1       0.980   8.144  -1.165  0.00  0.00    +0.047 A 
ATOM     12  C   UNL     1       0.923   8.496   0.245  0.00  0.00    +0.035 A 
ATOM     32  C   UNL     1       1.929   9.362   0.766  0.00  0.00    +0.024 A 
ATOM     33  C   UNL     1       2.982   9.878  -0.073  0.00  0.00    +0.007 A 
ATOM     34  C   UNL     1       3.043   9.532  -1.465  0.00  0.00    -0.029 A 
ATOM     35  C   UNL     1       4.198  10.109  -2.316  0.00  0.00    +0.045 C 
ENDROOT
BRANCH  10   9
ATOM      4  C   UNL     1       0.550   9.176  -6.547  0.00  0.00    +0.077 A 
ATOM      5  C   UNL     1      -0.316  10.267  -6.204  0.00  0.00    +0.048 A 
ATOM      6  C   UNL     1      -0.363  10.655  -4.846  0.00  0.00    +0.116 A 
ATOM      7  N   UNL     1       0.404   9.995  -3.911  0.00  0.00    -0.223 NA
ATOM      8  C   UNL     1       1.227   8.946  -4.275  0.00  0.00    +0.220 A 
ATOM      9  N   UNL     1       2.013   8.273  -3.352  0.00  0.00    -0.283 N 
ATOM     36  H   UNL     1       2.601   7.500  -3.660  0.00  0.00    +0.155 HD
ATOM     37  N   UNL     1       1.289   8.555  -5.565  0.00  0.00    -0.214 NA
BRANCH   4   3
ATOM      1  C   UNL     1      -0.200   7.968 -10.192  0.00  0.00    +0.020 A 
ATOM      2  C   UNL     1      -0.409   8.478  -8.856  0.00  0.00    +0.013 A 
ATOM      3  C   UNL     1       0.711   8.651  -7.940  0.00  0.00    +0.019 A 
ATOM     38  C   UNL     1       2.042   8.296  -8.411  0.00  0.00    +0.120 A 
ATOM     39  N   UNL     1       2.213   7.806  -9.701  0.00  0.00    -0.263 NA
ATOM     40  C   UNL     1       1.142   7.633 -10.591  0.00  0.00    +0.111 A 
ENDBRANCH   4   3
ENDBRANCH  10   9
BRANCH  12  13
ATOM     13  N   UNL     1      -0.091   8.014   1.149  0.00  0.00    -0.281 N 
ATOM     14  C   UNL     1      -0.453   6.700   1.400  0.00  0.00    +0.248 C 
ATOM     30  O   UNL     1      -0.103   5.745   0.723  0.00  0.00    -0.270 OA
ATOM     31  H   UNL     1      -0.605   8.727   1.667  0.00  0.00    +0.155 HD
BRANCH  14  15
ATOM     15  C   UNL     1      -1.345   6.407   2.563  0.00  0.00    +0.037 A 
ATOM     16  C   UNL     1      -2.804   6.442   2.429  0.00  0.00    +0.013 A 
ATOM     17  C   UNL     1      -3.641   6.172   3.571  0.00  0.00    +0.005 A 
ATOM     18  C   UNL     1      -3.021   5.862   4.857  0.00  0.00    -0.033 A 
ATOM     28  C   UNL     1      -1.571   5.828   4.960  0.00  0.00    +0.005 A 
ATOM     29  C   UNL     1      -0.747   6.094   3.843  0.00  0.00    +0.013 A 
BRANCH  18  19
ATOM     19  C   UNL     1      -3.836   5.581   6.133  0.00  0.00    +0.119 C 
BRANCH  19  20
ATOM     20  N   UNL     1      -4.946   4.587   6.030  0.00  0.00    -0.302 NA
ATOM     21  C   UNL     1      -5.697   4.425   7.355  0.00  0.00    +0.066 C 
ATOM     22  C   UNL     1      -6.869   3.399   7.224  0.00  0.00    -0.064 C 
ATOM     23  N   UNL     1      -6.315   2.055   6.748  0.00  0.00    +0.379 N 
ATOM     24  C   UNL     1      -7.405   1.071   6.679  0.00  0.00    -0.096 C 
ATOM     25  H   UNL     1      -5.586   1.699   7.513  0.00  0.00    -0.082 HD
ATOM     26  C   UNL     1      -5.564   2.207   5.432  0.00  0.00    -0.064 C 
ATOM     27  C   UNL     1      -4.421   3.251   5.566  0.00  0.00    +0.066 C 
ENDBRANCH  19  20
ENDBRANCH  18  19
ENDBRANCH  14  15
ENDBRANCH  12  13
TORSDOF 6
ENDMDL
