MODEL 1
REMARK VINA RESULT:      -3.0      0.000      0.000
REMARK  Name = C:\Users\Docking\Desktop\test protocol\1iep_ligandH.pdb
REMARK  8 active torsions:
REMARK  status: ('A' for Active; 'I' for Inactive)
REMARK    1  A    between atoms: _5  and  _11
REMARK    2  A    between atoms: _19  and  _21
REMARK    3  A    between atoms: _22  and  _66
REMARK    4  A    between atoms: _27  and  _30
REMARK    5  A    between atoms: _32  and  _33
REMARK    6  A    between atoms: _38  and  _43
REMARK    7  A    between atoms: _43  and  _46
REMARK    8  A    between atoms: _53  and  _55
REMARK                            x       y       z     vdW  Elec       q    Type
REMARK                         _______ _______ _______ _____ _____    ______ ____
ROOT
ATOM     10  C   UNL     1      10.488  47.145  93.346  0.00  0.00    +0.038 A 
ATOM     11  C   UNL     1       9.416  46.224  93.471  0.00  0.00    +0.047 A 
ATOM     12  C   UNL     1       9.662  44.795  93.593  0.00  0.00    +0.035 A 
ATOM     32  C   UNL     1      11.013  44.339  93.587  0.00  0.00    +0.024 A 
ATOM     33  C   UNL     1      12.114  45.261  93.460  0.00  0.00    +0.007 A 
ATOM     34  C   UNL     1      11.877  46.671  93.337  0.00  0.00    -0.029 A 
ATOM     35  C   UNL     1      13.096  47.613  93.197  0.00  0.00    +0.045 C 
ENDROOT
BRANCH  10   9
ATOM      4  C   UNL     1       9.544  51.068  90.748  0.00  0.00    +0.077 A 
ATOM      5  C   UNL     1       9.673  50.352  89.511  0.00  0.00    +0.048 A 
ATOM      6  C   UNL     1       9.990  48.978  89.587  0.00  0.00    +0.116 A 
ATOM      7  N   UNL     1      10.163  48.374  90.814  0.00  0.00    -0.223 NA
ATOM      8  C   UNL     1      10.033  49.094  91.988  0.00  0.00    +0.220 A 
ATOM      9  N   UNL     1      10.194  48.505  93.232  0.00  0.00    -0.283 N 
ATOM     36  H   UNL     1      10.098  49.072  94.074  0.00  0.00    +0.155 HD
ATOM     37  N   UNL     1       9.732  50.408  91.942  0.00  0.00    -0.214 NA
BRANCH   4   3
ATOM      1  C   UNL     1       8.648  54.754  89.793  0.00  0.00    +0.020 A 
ATOM      2  C   UNL     1       8.969  53.352  89.656  0.00  0.00    +0.013 A 
ATOM      3  C   UNL     1       9.209  52.525  90.832  0.00  0.00    +0.019 A 
ATOM     38  C   UNL     1       9.117  53.152  92.142  0.00  0.00    +0.120 A 
ATOM     39  N   UNL     1       8.808  54.505  92.242  0.00  0.00    -0.263 NA
ATOM     40  C   UNL     1       8.576  55.311  91.118  0.00  0.00    +0.111 A 
ENDBRANCH   4   3
ENDBRANCH  10   9
BRANCH  12  13
ATOM     13  N   UNL     1       8.614  43.812  93.714  0.00  0.00    -0.281 N 
ATOM     14  C   UNL     1       7.654  43.709  94.707  0.00  0.00    +0.248 C 
ATOM     30  O   UNL     1       7.683  44.324  95.763  0.00  0.00    -0.270 OA
ATOM     31  H   UNL     1       8.576  43.107  92.978  0.00  0.00    +0.155 HD
BRANCH  14  15
ATOM     15  C   UNL     1       6.503  42.777  94.505  0.00  0.00    +0.037 A 
ATOM     16  C   UNL     1       5.405  43.113  93.595  0.00  0.00    +0.013 A 
ATOM     17  C   UNL     1       4.298  42.204  93.431  0.00  0.00    +0.005 A 
ATOM     18  C   UNL     1       4.286  40.948  94.179  0.00  0.00    -0.033 A 
ATOM     28  C   UNL     1       5.391  40.638  95.070  0.00  0.00    +0.005 A 
ATOM     29  C   UNL     1       6.477  41.527  95.234  0.00  0.00    +0.013 A 
BRANCH  18  19
ATOM     19  C   UNL     1       3.136  39.929  94.082  0.00  0.00    +0.119 C 
BRANCH  19  20
ATOM     20  N   UNL     1       3.508  38.490  93.931  0.00  0.00    -0.302 NA
ATOM     21  C   UNL     1       3.085  37.927  92.571  0.00  0.00    +0.066 C 
ATOM     22  C   UNL     1       3.502  36.428  92.421  0.00  0.00    -0.064 C 
ATOM     23  N   UNL     1       2.886  35.613  93.560  0.00  0.00    +0.379 N 
ATOM     24  C   UNL     1       3.229  34.194  93.390  0.00  0.00    -0.096 C 
ATOM     25  H   UNL     1       1.778  35.706  93.481  0.00  0.00    -0.082 HD
ATOM     26  C   UNL     1       3.300  36.168  94.916  0.00  0.00    -0.064 C 
ATOM     27  C   UNL     1       2.907  37.667  95.043  0.00  0.00    +0.066 C 
ENDBRANCH  19  20
ENDBRANCH  18  19
ENDBRANCH  14  15
ENDBRANCH  12  13
TORSDOF 6
ENDMDL
MODEL 2
REMARK VINA RESULT:      -3.0      1.421      2.040
REMARK  Name = C:\Users\Docking\Desktop\test protocol\1iep_ligandH.pdb
REMARK  8 active torsions:
REMARK  status: ('A' for Active; 'I' for Inactive)
REMARK    1  A    between atoms: _5  and  _11
REMARK    2  A    between atoms: _19  and  _21
REMARK    3  A    between atoms: _22  and  _66
REMARK    4  A    between atoms: _27  and  _30
REMARK    5  A    between atoms: _32  and  _33
REMARK    6  A    between atoms: _38  and  _43
REMARK    7  A    between atoms: _43  and  _46
REMARK    8  A    between atoms: _53  and  _55
REMARK                            x       y       z     vdW  Elec       q    Type
REMARK                         _______ _______ _______ _____ _____    ______ ____
ROOT
ATOM     10  C   UNL     1      10.394  47.164  93.351  0.00  0.00    +0.038 A 
ATOM     11  C   UNL     1       9.344  46.221  93.488  0.00  0.00    +0.047 A 
ATOM     12  C   UNL     1       9.622  44.799  93.620  0.00  0.00    +0.035 A 
ATOM     32  C   UNL     1      10.982  44.373  93.611  0.00  0.00    +0.024 A 
ATOM     33  C   UNL     1      12.062  45.318  93.471  0.00  0.00    +0.007 A 
ATOM     34  C   UNL     1      11.794  46.722  93.338  0.00  0.00    -0.029 A 
ATOM     35  C   UNL     1      12.990  47.689  93.185  0.00  0.00    +0.045 C 
ENDROOT
BRANCH  10   9
ATOM      4  C   UNL     1       9.418  51.060  90.723  0.00  0.00    +0.077 A 
ATOM      5  C   UNL     1       9.596  50.347  89.491  0.00  0.00    +0.048 A 
ATOM      6  C   UNL     1       9.945  48.980  89.577  0.00  0.00    +0.116 A 
ATOM      7  N   UNL     1      10.102  48.382  90.809  0.00  0.00    -0.223 NA
ATOM      8  C   UNL     1       9.925  49.100  91.978  0.00  0.00    +0.220 A 
ATOM      9  N   UNL     1      10.069  48.517  93.227  0.00  0.00    -0.283 N 
ATOM     36  H   UNL     1       9.938  49.082  94.066  0.00  0.00    +0.155 HD
ATOM     37  N   UNL     1       9.592  50.406  91.922  0.00  0.00    -0.214 NA
BRANCH   4   3
ATOM      1  C   UNL     1       8.725  54.790  89.769  0.00  0.00    +0.020 A 
ATOM      2  C   UNL     1       9.097  53.399  89.644  0.00  0.00    +0.013 A 
ATOM      3  C   UNL     1       9.045  52.508  90.796  0.00  0.00    +0.019 A 
ATOM     38  C   UNL     1       8.609  53.060  92.070  0.00  0.00    +0.120 A 
ATOM     39  N   UNL     1       8.258  54.404  92.160  0.00  0.00    -0.263 NA
ATOM     40  C   UNL     1       8.306  55.271  91.059  0.00  0.00    +0.111 A 
ENDBRANCH   4   3
ENDBRANCH  10   9
BRANCH  12  13
ATOM     13  N   UNL     1       8.597  43.794  93.755  0.00  0.00    -0.281 N 
ATOM     14  C   UNL     1       7.636  43.685  94.747  0.00  0.00    +0.248 C 
ATOM     30  O   UNL     1       7.647  44.317  95.792  0.00  0.00    -0.270 OA
ATOM     31  H   UNL     1       8.577  43.076  93.031  0.00  0.00    +0.155 HD
BRANCH  14  15
ATOM     15  C   UNL     1       6.508  42.723  94.556  0.00  0.00    +0.037 A 
ATOM     16  C   UNL     1       5.426  42.999  93.609  0.00  0.00    +0.013 A 
ATOM     17  C   UNL     1       4.340  42.063  93.457  0.00  0.00    +0.005 A 
ATOM     18  C   UNL     1       4.334  40.839  94.255  0.00  0.00    -0.033 A 
ATOM     28  C   UNL     1       5.423  40.587  95.184  0.00  0.00    +0.005 A 
ATOM     29  C   UNL     1       6.488  41.504  95.336  0.00  0.00    +0.013 A 
BRANCH  18  19
ATOM     19  C   UNL     1       3.205  39.794  94.174  0.00  0.00    +0.119 C 
BRANCH  19  20
ATOM     20  N   UNL     1       2.267  39.889  93.016  0.00  0.00    -0.302 NA
ATOM     21  C   UNL     1       0.811  40.032  93.467  0.00  0.00    +0.066 C 
ATOM     22  C   UNL     1      -0.155  40.153  92.244  0.00  0.00    -0.064 C 
ATOM     23  N   UNL     1       0.015  38.930  91.341  0.00  0.00    +0.379 N 
ATOM     24  C   UNL     1      -0.933  39.013  90.220  0.00  0.00    -0.096 C 
ATOM     25  H   UNL     1      -0.248  38.028  91.941  0.00  0.00    -0.082 HD
ATOM     26  C   UNL     1       1.460  38.779  90.890  0.00  0.00    -0.064 C 
ATOM     27  C   UNL     1       2.415  38.689  92.113  0.00  0.00    +0.066 C 
ENDBRANCH  19  20
ENDBRANCH  18  19
ENDBRANCH  14  15
ENDBRANCH  12  13
TORSDOF 6
ENDMDL
MODEL 3
REMARK VINA RESULT:      -2.9      4.335      5.030
REMARK  Name = C:\Users\Docking\Desktop\test protocol\1iep_ligandH.pdb
REMARK  8 active torsions:
REMARK  status: ('A' for Active; 'I' for Inactive)
REMARK    1  A    between atoms: _5  and  _11
REMARK    2  A    between atoms: _19  and  _21
REMARK    3  A    between atoms: _22  and  _66
REMARK    4  A    between atoms: _27  and  _30
REMARK    5  A    between atoms: _32  and  _33
REMARK    6  A    between atoms: _38  and  _43
REMARK    7  A    between atoms: _43  and  _46
REMARK    8  A    between atoms: _53  and  _55
REMARK                            x       y       z     vdW  Elec       q    Type
REMARK                         _______ _______ _______ _____ _____    ______ ____
ROOT
ATOM     10  C   UNL     1       6.684  48.786  91.185  0.00  0.00    +0.038 A 
ATOM     11  C   UNL     1       6.366  47.618  91.925  0.00  0.00    +0.047 A 
ATOM     12  C   UNL     1       7.376  46.926  92.709  0.00  0.00    +0.035 A 
ATOM     32  C   UNL     1       8.701  47.451  92.720  0.00  0.00    +0.024 A 
ATOM     33  C   UNL     1       9.043  48.636  91.973  0.00  0.00    +0.007 A 
ATOM     34  C   UNL     1       8.051  49.322  91.195  0.00  0.00    -0.029 A 
ATOM     35  C   UNL     1       8.475  50.585  90.408  0.00  0.00    +0.045 C 
ENDROOT
BRANCH  10   9
ATOM      4  C   UNL     1       3.063  51.908  90.770  0.00  0.00    +0.077 A 
ATOM      5  C   UNL     1       3.174  52.309  92.143  0.00  0.00    +0.048 A 
ATOM      6  C   UNL     1       4.171  51.683  92.924  0.00  0.00    +0.116 A 
ATOM      7  N   UNL     1       4.991  50.728  92.363  0.00  0.00    -0.223 NA
ATOM      8  C   UNL     1       4.856  50.363  91.036  0.00  0.00    +0.220 A 
ATOM      9  N   UNL     1       5.675  49.411  90.449  0.00  0.00    -0.283 N 
ATOM     36  H   UNL     1       5.539  49.164  89.469  0.00  0.00    +0.155 HD
ATOM     37  N   UNL     1       3.911  50.946  90.270  0.00  0.00    -0.214 NA
BRANCH   4   3
ATOM      1  C   UNL     1       0.364  54.218  89.133  0.00  0.00    +0.020 A 
ATOM      2  C   UNL     1       1.320  53.707  90.088  0.00  0.00    +0.013 A 
ATOM      3  C   UNL     1       2.061  52.481  89.817  0.00  0.00    +0.019 A 
ATOM     38  C   UNL     1       1.809  51.792  88.560  0.00  0.00    +0.120 A 
ATOM     39  N   UNL     1       0.881  52.307  87.660  0.00  0.00    -0.263 NA
ATOM     40  C   UNL     1       0.161  53.485  87.911  0.00  0.00    +0.111 A 
ENDBRANCH   4   3
ENDBRANCH  10   9
BRANCH  12  13
ATOM     13  N   UNL     1       7.114  45.732  93.474  0.00  0.00    -0.281 N 
ATOM     14  C   UNL     1       6.371  45.611  94.637  0.00  0.00    +0.248 C 
ATOM     30  O   UNL     1       5.994  46.554  95.317  0.00  0.00    -0.270 OA
ATOM     31  H   UNL     1       7.525  44.871  93.114  0.00  0.00    +0.155 HD
BRANCH  14  15
ATOM     15  C   UNL     1       6.005  44.246  95.122  0.00  0.00    +0.037 A 
ATOM     16  C   UNL     1       4.867  44.038  96.021  0.00  0.00    +0.013 A 
ATOM     17  C   UNL     1       4.547  42.713  96.488  0.00  0.00    +0.005 A 
ATOM     18  C   UNL     1       5.366  41.583  96.055  0.00  0.00    -0.033 A 
ATOM     28  C   UNL     1       6.486  41.817  95.158  0.00  0.00    +0.005 A 
ATOM     29  C   UNL     1       6.804  43.115  94.699  0.00  0.00    +0.013 A 
BRANCH  18  19
ATOM     19  C   UNL     1       5.110  40.137  96.520  0.00  0.00    +0.119 C 
BRANCH  19  20
ATOM     20  N   UNL     1       4.961  39.095  95.461  0.00  0.00    -0.302 NA
ATOM     21  C   UNL     1       3.699  39.308  94.620  0.00  0.00    +0.066 C 
ATOM     22  C   UNL     1       3.570  38.221  93.502  0.00  0.00    -0.064 C 
ATOM     23  N   UNL     1       3.566  36.833  94.143  0.00  0.00    +0.379 N 
ATOM     24  C   UNL     1       3.386  35.812  93.101  0.00  0.00    -0.096 C 
ATOM     25  H   UNL     1       2.686  36.778  94.826  0.00  0.00    -0.082 HD
ATOM     26  C   UNL     1       4.816  36.614  94.984  0.00  0.00    -0.064 C 
ATOM     27  C   UNL     1       4.950  37.715  96.072  0.00  0.00    +0.066 C 
ENDBRANCH  19  20
ENDBRANCH  18  19
ENDBRANCH  14  15
ENDBRANCH  12  13
TORSDOF 6
ENDMDL
