MODEL 1
REMARK VINA RESULT:      -3.1      0.000      0.000
REMARK  Name = C:\Users\Docking\Desktop\test protocol\1iep_ligandH.pdb
REMARK  8 active torsions:
REMARK  status: ('A' for Active; 'I' for Inactive)
REMARK    1  A    between atoms: _5  and  _11
REMARK    2  A    between atoms: _19  and  _21
REMARK    3  A    between atoms: _22  and  _66
REMARK    4  A    between atoms: _27  and  _30
REMARK    5  A    between atoms: _32  and  _33
REMARK    6  A    between atoms: _38  and  _43
REMARK    7  A    between atoms: _43  and  _46
REMARK    8  A    between atoms: _53  and  _55
REMARK                            x       y       z     vdW  Elec       q    Type
REMARK                         _______ _______ _______ _____ _____    ______ ____
ROOT
ATOM     10  C   UNL     1      10.255  47.345  93.026  0.00  0.00    +0.038 A 
ATOM     11  C   UNL     1       9.213  46.396  93.189  0.00  0.00    +0.047 A 
ATOM     12  C   UNL     1       9.503  45.004  93.494  0.00  0.00    +0.035 A 
ATOM     32  C   UNL     1      10.867  44.613  93.630  0.00  0.00    +0.024 A 
ATOM     33  C   UNL     1      11.939  45.563  93.468  0.00  0.00    +0.007 A 
ATOM     34  C   UNL     1      11.658  46.937  93.164  0.00  0.00    -0.029 A 
ATOM     35  C   UNL     1      12.847  47.912  92.994  0.00  0.00    +0.045 C 
ENDROOT
BRANCH  10   9
ATOM      4  C   UNL     1       9.398  50.908  89.927  0.00  0.00    +0.077 A 
ATOM      5  C   UNL     1       9.669  50.068  88.795  0.00  0.00    +0.048 A 
ATOM      6  C   UNL     1      10.032  48.728  89.055  0.00  0.00    +0.116 A 
ATOM      7  N   UNL     1      10.115  48.271  90.352  0.00  0.00    -0.223 NA
ATOM      8  C   UNL     1       9.849  49.108  91.421  0.00  0.00    +0.220 A 
ATOM      9  N   UNL     1       9.919  48.668  92.734  0.00  0.00    -0.283 N 
ATOM     36  H   UNL     1       9.722  49.319  93.494  0.00  0.00    +0.155 HD
ATOM     37  N   UNL     1       9.501  50.393  91.200  0.00  0.00    -0.214 NA
BRANCH   4   3
ATOM      1  C   UNL     1       8.913  54.716  90.677  0.00  0.00    +0.020 A 
ATOM      2  C   UNL     1       9.322  53.339  90.833  0.00  0.00    +0.013 A 
ATOM      3  C   UNL     1       8.999  52.347  89.815  0.00  0.00    +0.019 A 
ATOM     38  C   UNL     1       8.256  52.783  88.643  0.00  0.00    +0.120 A 
ATOM     39  N   UNL     1       7.875  54.116  88.520  0.00  0.00    -0.263 NA
ATOM     40  C   UNL     1       8.178  55.080  89.494  0.00  0.00    +0.111 A 
ENDBRANCH   4   3
ENDBRANCH  10   9
BRANCH  12  13
ATOM     13  N   UNL     1       8.487  43.995  93.662  0.00  0.00    -0.281 N 
ATOM     14  C   UNL     1       7.371  44.038  94.481  0.00  0.00    +0.248 C 
ATOM     30  O   UNL     1       7.190  44.868  95.359  0.00  0.00    -0.270 OA
ATOM     31  H   UNL     1       8.605  43.145  93.110  0.00  0.00    +0.155 HD
BRANCH  14  15
ATOM     15  C   UNL     1       6.309  43.000  94.310  0.00  0.00    +0.037 A 
ATOM     16  C   UNL     1       5.187  43.206  93.390  0.00  0.00    +0.013 A 
ATOM     17  C   UNL     1       4.167  42.196  93.257  0.00  0.00    +0.005 A 
ATOM     18  C   UNL     1       4.266  40.969  94.045  0.00  0.00    -0.033 A 
ATOM     28  C   UNL     1       5.393  40.789  94.945  0.00  0.00    +0.005 A 
ATOM     29  C   UNL     1       6.394  41.777  95.080  0.00  0.00    +0.013 A 
BRANCH  18  19
ATOM     19  C   UNL     1       3.213  39.848  93.981  0.00  0.00    +0.119 C 
BRANCH  19  20
ATOM     20  N   UNL     1       2.674  39.491  92.635  0.00  0.00    -0.302 NA
ATOM     21  C   UNL     1       1.217  39.930  92.465  0.00  0.00    +0.066 C 
ATOM     22  C   UNL     1       0.676  39.569  91.043  0.00  0.00    -0.064 C 
ATOM     23  N   UNL     1       0.817  38.064  90.814  0.00  0.00    +0.379 N 
ATOM     24  C   UNL     1       0.257  37.713  89.501  0.00  0.00    -0.096 C 
ATOM     25  H   UNL     1       0.210  37.545  91.591  0.00  0.00    -0.082 HD
ATOM     26  C   UNL     1       2.263  37.618  90.984  0.00  0.00    -0.064 C 
ATOM     27  C   UNL     1       2.800  38.007  92.389  0.00  0.00    +0.066 C 
ENDBRANCH  19  20
ENDBRANCH  18  19
ENDBRANCH  14  15
ENDBRANCH  12  13
TORSDOF 6
ENDMDL
MODEL 2
REMARK VINA RESULT:      -2.8      4.891     13.333
REMARK  Name = C:\Users\Docking\Desktop\test protocol\1iep_ligandH.pdb
REMARK  8 active torsions:
REMARK  status: ('A' for Active; 'I' for Inactive)
REMARK    1  A    between atoms: _5  and  _11
REMARK    2  A    between atoms: _19  and  _21
REMARK    3  A    between atoms: _22  and  _66
REMARK    4  A    between atoms: _27  and  _30
REMARK    5  A    between atoms: _32  and  _33
REMARK    6  A    between atoms: _38  and  _43
REMARK    7  A    between atoms: _43  and  _46
REMARK    8  A    between atoms: _53  and  _55
REMARK                            x       y       z     vdW  Elec       q    Type
REMARK                         _______ _______ _______ _____ _____    ______ ____
ROOT
ATOM     10  C   UNL     1       6.076  47.328  91.518  0.00  0.00    +0.038 A 
ATOM     11  C   UNL     1       6.238  48.682  91.129  0.00  0.00    +0.047 A 
ATOM     12  C   UNL     1       5.089  49.518  90.818  0.00  0.00    +0.035 A 
ATOM     32  C   UNL     1       3.788  48.943  90.916  0.00  0.00    +0.024 A 
ATOM     33  C   UNL     1       3.605  47.568  91.309  0.00  0.00    +0.007 A 
ATOM     34  C   UNL     1       4.735  46.738  91.615  0.00  0.00    -0.029 A 
ATOM     35  C   UNL     1       4.480  45.268  92.025  0.00  0.00    +0.045 C 
ENDROOT
BRANCH  10   9
ATOM      4  C   UNL     1       9.403  45.673  94.555  0.00  0.00    +0.077 A 
ATOM      5  C   UNL     1       8.843  46.399  95.658  0.00  0.00    +0.048 A 
ATOM      6  C   UNL     1       7.703  47.193  95.400  0.00  0.00    +0.116 A 
ATOM      7  N   UNL     1       7.171  47.248  94.130  0.00  0.00    -0.223 NA
ATOM      8  C   UNL     1       7.737  46.536  93.088  0.00  0.00    +0.220 A 
ATOM      9  N   UNL     1       7.214  46.570  91.805  0.00  0.00    -0.283 N 
ATOM     36  H   UNL     1       7.665  46.037  91.062  0.00  0.00    +0.155 HD
ATOM     37  N   UNL     1       8.827  45.772  93.309  0.00  0.00    -0.214 NA
BRANCH   4   3
ATOM      1  C   UNL     1      12.242  43.400  95.996  0.00  0.00    +0.020 A 
ATOM      2  C   UNL     1      11.075  44.250  95.940  0.00  0.00    +0.013 A 
ATOM      3  C   UNL     1      10.606  44.788  94.670  0.00  0.00    +0.019 A 
ATOM     38  C   UNL     1      11.345  44.444  93.464  0.00  0.00    +0.120 A 
ATOM     39  N   UNL     1      12.466  43.624  93.549  0.00  0.00    -0.263 NA
ATOM     40  C   UNL     1      12.928  43.102  94.766  0.00  0.00    +0.111 A 
ENDBRANCH   4   3
ENDBRANCH  10   9
BRANCH  12  13
ATOM     13  N   UNL     1       5.192  50.897  90.409  0.00  0.00    -0.281 N 
ATOM     14  C   UNL     1       5.341  52.015  91.214  0.00  0.00    +0.248 C 
ATOM     30  O   UNL     1       5.194  52.017  92.427  0.00  0.00    -0.270 OA
ATOM     31  H   UNL     1       5.150  51.070  89.405  0.00  0.00    +0.155 HD
BRANCH  14  15
ATOM     15  C   UNL     1       5.691  53.321  90.578  0.00  0.00    +0.037 A 
ATOM     16  C   UNL     1       6.507  53.380  89.363  0.00  0.00    +0.013 A 
ATOM     17  C   UNL     1       6.844  54.654  88.779  0.00  0.00    +0.005 A 
ATOM     18  C   UNL     1       6.363  55.881  89.410  0.00  0.00    -0.033 A 
ATOM     28  C   UNL     1       5.551  55.793  90.612  0.00  0.00    +0.005 A 
ATOM     29  C   UNL     1       5.219  54.546  91.188  0.00  0.00    +0.013 A 
BRANCH  18  19
ATOM     19  C   UNL     1       6.692  57.285  88.869  0.00  0.00    +0.119 C 
BRANCH  19  20
ATOM     20  N   UNL     1       6.548  58.433  89.813  0.00  0.00    -0.302 NA
ATOM     21  C   UNL     1       5.782  59.600  89.185  0.00  0.00    +0.066 C 
ATOM     22  C   UNL     1       5.621  60.784  90.194  0.00  0.00    -0.064 C 
ATOM     23  N   UNL     1       7.003  61.236  90.669  0.00  0.00    +0.379 N 
ATOM     24  C   UNL     1       6.859  62.387  91.573  0.00  0.00    -0.096 C 
ATOM     25  H   UNL     1       7.573  61.579  89.774  0.00  0.00    -0.082 HD
ATOM     26  C   UNL     1       7.773  60.081  91.292  0.00  0.00    -0.064 C 
ATOM     27  C   UNL     1       7.901  58.898  90.291  0.00  0.00    +0.066 C 
ENDBRANCH  19  20
ENDBRANCH  18  19
ENDBRANCH  14  15
ENDBRANCH  12  13
TORSDOF 6
ENDMDL
MODEL 3
REMARK VINA RESULT:      -2.8      4.730     12.317
REMARK  Name = C:\Users\Docking\Desktop\test protocol\1iep_ligandH.pdb
REMARK  8 active torsions:
REMARK  status: ('A' for Active; 'I' for Inactive)
REMARK    1  A    between atoms: _5  and  _11
REMARK    2  A    between atoms: _19  and  _21
REMARK    3  A    between atoms: _22  and  _66
REMARK    4  A    between atoms: _27  and  _30
REMARK    5  A    between atoms: _32  and  _33
REMARK    6  A    between atoms: _38  and  _43
REMARK    7  A    between atoms: _43  and  _46
REMARK    8  A    between atoms: _53  and  _55
REMARK                            x       y       z     vdW  Elec       q    Type
REMARK                         _______ _______ _______ _____ _____    ______ ____
ROOT
ATOM     10  C   UNL     1       6.259  41.832  96.743  0.00  0.00    +0.038 A 
ATOM     11  C   UNL     1       6.743  42.928  95.985  0.00  0.00    +0.047 A 
ATOM     12  C   UNL     1       6.501  43.018  94.554  0.00  0.00    +0.035 A 
ATOM     32  C   UNL     1       5.761  41.974  93.927  0.00  0.00    +0.024 A 
ATOM     33  C   UNL     1       5.263  40.852  94.682  0.00  0.00    +0.007 A 
ATOM     34  C   UNL     1       5.500  40.756  96.094  0.00  0.00    -0.029 A 
ATOM     35  C   UNL     1       4.948  39.527  96.852  0.00  0.00    +0.045 C 
ENDROOT
BRANCH  10   9
ATOM      4  C   UNL     1       9.081  40.814 100.490  0.00  0.00    +0.077 A 
ATOM      5  C   UNL     1      10.112  40.284  99.645  0.00  0.00    +0.048 A 
ATOM      6  C   UNL     1       9.874  40.285  98.253  0.00  0.00    +0.116 A 
ATOM      7  N   UNL     1       8.689  40.782  97.753  0.00  0.00    -0.223 NA
ATOM      8  C   UNL     1       7.715  41.284  98.596  0.00  0.00    +0.220 A 
ATOM      9  N   UNL     1       6.520  41.796  98.115  0.00  0.00    -0.283 N 
ATOM     36  H   UNL     1       5.824  42.151  98.770  0.00  0.00    +0.155 HD
ATOM     37  N   UNL     1       7.918  41.293  99.930  0.00  0.00    -0.214 NA
BRANCH   4   3
ATOM      1  C   UNL     1      10.441  40.600 104.152  0.00  0.00    +0.020 A 
ATOM      2  C   UNL     1      10.392  40.512 102.710  0.00  0.00    +0.013 A 
ATOM      3  C   UNL     1       9.186  40.885 101.982  0.00  0.00    +0.019 A 
ATOM     38  C   UNL     1       8.038  41.346 102.748  0.00  0.00    +0.120 A 
ATOM     39  N   UNL     1       8.113  41.418 104.136  0.00  0.00    -0.263 NA
ATOM     40  C   UNL     1       9.268  41.061 104.847  0.00  0.00    +0.111 A 
ENDBRANCH   4   3
ENDBRANCH  10   9
BRANCH  12  13
ATOM     13  N   UNL     1       6.975  44.104  93.731  0.00  0.00    -0.281 N 
ATOM     14  C   UNL     1       6.672  45.451  93.842  0.00  0.00    +0.248 C 
ATOM     30  O   UNL     1       5.775  45.903  94.538  0.00  0.00    -0.270 OA
ATOM     31  H   UNL     1       7.610  43.848  92.975  0.00  0.00    +0.155 HD
BRANCH  14  15
ATOM     15  C   UNL     1       7.472  46.438  93.055  0.00  0.00    +0.037 A 
ATOM     16  C   UNL     1       6.822  47.441  92.208  0.00  0.00    +0.013 A 
ATOM     17  C   UNL     1       7.618  48.371  91.446  0.00  0.00    +0.005 A 
ATOM     18  C   UNL     1       9.075  48.301  91.529  0.00  0.00    -0.033 A 
ATOM     28  C   UNL     1       9.694  47.299  92.380  0.00  0.00    +0.005 A 
ATOM     29  C   UNL     1       8.917  46.386  93.128  0.00  0.00    +0.013 A 
BRANCH  18  19
ATOM     19  C   UNL     1      10.003  49.239  90.734  0.00  0.00    +0.119 C 
BRANCH  19  20
ATOM     20  N   UNL     1      10.792  48.636  89.619  0.00  0.00    -0.302 NA
ATOM     21  C   UNL     1      12.227  49.168  89.577  0.00  0.00    +0.066 C 
ATOM     22  C   UNL     1      13.045  48.510  88.419  0.00  0.00    -0.064 C 
ATOM     23  N   UNL     1      12.334  48.764  87.088  0.00  0.00    +0.379 N 
ATOM     24  C   UNL     1      13.131  48.196  85.990  0.00  0.00    -0.096 C 
ATOM     25  H   UNL     1      12.286  49.867  86.936  0.00  0.00    -0.082 HD
ATOM     26  C   UNL     1      10.906  48.240  87.122  0.00  0.00    -0.064 C 
ATOM     27  C   UNL     1      10.110  48.878  88.295  0.00  0.00    +0.066 C 
ENDBRANCH  19  20
ENDBRANCH  18  19
ENDBRANCH  14  15
ENDBRANCH  12  13
TORSDOF 6
ENDMDL
