MODEL 1
REMARK VINA RESULT:      -9.3      0.000      0.000
REMARK  Name = C:\Users\Docking\Desktop\test protocol\1iep_ligandH.pdb
REMARK  8 active torsions:
REMARK  status: ('A' for Active; 'I' for Inactive)
REMARK    1  A    between atoms: _5  and  _11
REMARK    2  A    between atoms: _19  and  _21
REMARK    3  A    between atoms: _22  and  _66
REMARK    4  A    between atoms: _27  and  _30
REMARK    5  A    between atoms: _32  and  _33
REMARK    6  A    between atoms: _38  and  _43
REMARK    7  A    between atoms: _43  and  _46
REMARK    8  A    between atoms: _53  and  _55
REMARK                            x       y       z     vdW  Elec       q    Type
REMARK                         _______ _______ _______ _____ _____    ______ ____
ROOT
ATOM     10  C   UNL     1      53.348  13.501  31.375  0.00  0.00    +0.038 A 
ATOM     11  C   UNL     1      53.360  14.690  30.601  0.00  0.00    +0.047 A 
ATOM     12  C   UNL     1      54.058  14.751  29.326  0.00  0.00    +0.035 A 
ATOM     32  C   UNL     1      54.732  13.581  28.869  0.00  0.00    +0.024 A 
ATOM     33  C   UNL     1      54.731  12.365  29.643  0.00  0.00    +0.007 A 
ATOM     34  C   UNL     1      54.046  12.300  30.902  0.00  0.00    -0.029 A 
ATOM     35  C   UNL     1      54.083  10.971  31.693  0.00  0.00    +0.045 C 
ENDROOT
BRANCH  10   9
ATOM      4  C   UNL     1      49.309  13.239  33.954  0.00  0.00    +0.077 A 
ATOM      5  C   UNL     1      48.495  13.124  32.778  0.00  0.00    +0.048 A 
ATOM      6  C   UNL     1      49.154  13.144  31.529  0.00  0.00    +0.116 A 
ATOM      7  N   UNL     1      50.525  13.269  31.471  0.00  0.00    -0.223 NA
ATOM      8  C   UNL     1      51.280  13.380  32.625  0.00  0.00    +0.220 A 
ATOM      9  N   UNL     1      52.661  13.499  32.591  0.00  0.00    -0.283 N 
ATOM     36  H   UNL     1      53.181  13.585  33.464  0.00  0.00    +0.155 HD
ATOM     37  N   UNL     1      50.674  13.365  33.830  0.00  0.00    -0.214 NA
BRANCH   4   3
ATOM      1  C   UNL     1      46.904  13.576  37.021  0.00  0.00    +0.020 A 
ATOM      2  C   UNL     1      47.385  13.602  35.659  0.00  0.00    +0.013 A 
ATOM      3  C   UNL     1      48.760  13.230  35.347  0.00  0.00    +0.019 A 
ATOM     38  C   UNL     1      49.628  12.834  36.445  0.00  0.00    +0.120 A 
ATOM     39  N   UNL     1      49.138  12.821  37.747  0.00  0.00    -0.263 NA
ATOM     40  C   UNL     1      47.818  13.178  38.060  0.00  0.00    +0.111 A 
ENDBRANCH   4   3
ENDBRANCH  10   9
BRANCH  12  13
ATOM     13  N   UNL     1      54.112  15.932  28.501  0.00  0.00    -0.281 N 
ATOM     14  C   UNL     1      53.169  16.377  27.588  0.00  0.00    +0.248 C 
ATOM     30  O   UNL     1      52.228  15.709  27.186  0.00  0.00    -0.270 OA
ATOM     31  H   UNL     1      54.946  16.510  28.601  0.00  0.00    +0.155 HD
BRANCH  14  15
ATOM     15  C   UNL     1      53.299  17.758  27.032  0.00  0.00    +0.037 A 
ATOM     16  C   UNL     1      53.642  17.981  25.625  0.00  0.00    +0.013 A 
ATOM     17  C   UNL     1      53.777  19.323  25.118  0.00  0.00    +0.005 A 
ATOM     18  C   UNL     1      53.568  20.454  26.019  0.00  0.00    -0.033 A 
ATOM     28  C   UNL     1      53.223  20.204  27.408  0.00  0.00    +0.005 A 
ATOM     29  C   UNL     1      53.090  18.889  27.909  0.00  0.00    +0.013 A 
BRANCH  18  19
ATOM     19  C   UNL     1      53.712  21.920  25.569  0.00  0.00    +0.119 C 
BRANCH  19  20
ATOM     20  N   UNL     1      55.078  22.386  25.187  0.00  0.00    -0.302 NA
ATOM     21  C   UNL     1      55.993  22.544  26.405  0.00  0.00    +0.066 C 
ATOM     22  C   UNL     1      57.424  23.011  25.985  0.00  0.00    -0.064 C 
ATOM     23  N   UNL     1      57.322  24.327  25.211  0.00  0.00    +0.379 N 
ATOM     24  C   UNL     1      58.671  24.798  24.865  0.00  0.00    -0.096 C 
ATOM     25  H   UNL     1      56.862  25.083  25.888  0.00  0.00    -0.082 HD
ATOM     26  C   UNL     1      56.412  24.179  23.999  0.00  0.00    -0.064 C 
ATOM     27  C   UNL     1      55.001  23.686  24.425  0.00  0.00    +0.066 C 
ENDBRANCH  19  20
ENDBRANCH  18  19
ENDBRANCH  14  15
ENDBRANCH  12  13
TORSDOF 6
ENDMDL
MODEL 2
REMARK VINA RESULT:      -9.2      2.747      5.414
REMARK  Name = C:\Users\Docking\Desktop\test protocol\1iep_ligandH.pdb
REMARK  8 active torsions:
REMARK  status: ('A' for Active; 'I' for Inactive)
REMARK    1  A    between atoms: _5  and  _11
REMARK    2  A    between atoms: _19  and  _21
REMARK    3  A    between atoms: _22  and  _66
REMARK    4  A    between atoms: _27  and  _30
REMARK    5  A    between atoms: _32  and  _33
REMARK    6  A    between atoms: _38  and  _43
REMARK    7  A    between atoms: _43  and  _46
REMARK    8  A    between atoms: _53  and  _55
REMARK                            x       y       z     vdW  Elec       q    Type
REMARK                         _______ _______ _______ _____ _____    ______ ____
ROOT
ATOM     10  C   UNL     1      52.078  13.158  32.303  0.00  0.00    +0.038 A 
ATOM     11  C   UNL     1      52.715  14.082  31.435  0.00  0.00    +0.047 A 
ATOM     12  C   UNL     1      52.187  15.424  31.247  0.00  0.00    +0.035 A 
ATOM     32  C   UNL     1      51.010  15.794  31.961  0.00  0.00    +0.024 A 
ATOM     33  C   UNL     1      50.350  14.867  32.846  0.00  0.00    +0.007 A 
ATOM     34  C   UNL     1      50.864  13.541  33.034  0.00  0.00    -0.029 A 
ATOM     35  C   UNL     1      50.111  12.587  33.991  0.00  0.00    +0.045 C 
ENDROOT
BRANCH  10   9
ATOM      4  C   UNL     1      53.639   8.995  30.495  0.00  0.00    +0.077 A 
ATOM      5  C   UNL     1      53.307   9.384  29.155  0.00  0.00    +0.048 A 
ATOM      6  C   UNL     1      52.729  10.661  28.974  0.00  0.00    +0.116 A 
ATOM      7  N   UNL     1      52.506  11.479  30.060  0.00  0.00    -0.223 NA
ATOM      8  C   UNL     1      52.837  11.072  31.340  0.00  0.00    +0.220 A 
ATOM      9  N   UNL     1      52.628  11.882  32.446  0.00  0.00    -0.283 N 
ATOM     36  H   UNL     1      52.879  11.543  33.374  0.00  0.00    +0.155 HD
ATOM     37  N   UNL     1      53.388   9.857  31.539  0.00  0.00    -0.214 NA
BRANCH   4   3
ATOM      1  C   UNL     1      56.238   6.135  31.100  0.00  0.00    +0.020 A 
ATOM      2  C   UNL     1      55.691   7.424  30.747  0.00  0.00    +0.013 A 
ATOM      3  C   UNL     1      54.259   7.678  30.847  0.00  0.00    +0.019 A 
ATOM     38  C   UNL     1      53.402   6.598  31.312  0.00  0.00    +0.120 A 
ATOM     39  N   UNL     1      53.958   5.366  31.643  0.00  0.00    -0.263 NA
ATOM     40  C   UNL     1      55.334   5.109  31.549  0.00  0.00    +0.111 A 
ENDBRANCH   4   3
ENDBRANCH  10   9
BRANCH  12  13
ATOM     13  N   UNL     1      52.786  16.402  30.372  0.00  0.00    -0.281 N 
ATOM     14  C   UNL     1      52.861  16.375  28.989  0.00  0.00    +0.248 C 
ATOM     30  O   UNL     1      52.612  15.396  28.302  0.00  0.00    -0.270 OA
ATOM     31  H   UNL     1      53.205  17.213  30.829  0.00  0.00    +0.155 HD
BRANCH  14  15
ATOM     15  C   UNL     1      53.289  17.611  28.266  0.00  0.00    +0.037 A 
ATOM     16  C   UNL     1      54.570  17.671  27.557  0.00  0.00    +0.013 A 
ATOM     17  C   UNL     1      54.967  18.881  26.881  0.00  0.00    +0.005 A 
ATOM     18  C   UNL     1      54.079  20.041  26.910  0.00  0.00    -0.033 A 
ATOM     28  C   UNL     1      52.812  19.952  27.616  0.00  0.00    +0.005 A 
ATOM     29  C   UNL     1      52.420  18.768  28.280  0.00  0.00    +0.013 A 
BRANCH  18  19
ATOM     19  C   UNL     1      54.431  21.380  26.234  0.00  0.00    +0.119 C 
BRANCH  19  20
ATOM     20  N   UNL     1      55.852  21.831  26.309  0.00  0.00    -0.302 NA
ATOM     21  C   UNL     1      55.965  23.346  26.503  0.00  0.00    +0.066 C 
ATOM     22  C   UNL     1      57.458  23.798  26.602  0.00  0.00    -0.064 C 
ATOM     23  N   UNL     1      58.206  23.356  25.343  0.00  0.00    +0.379 N 
ATOM     24  C   UNL     1      59.596  23.830  25.406  0.00  0.00    -0.096 C 
ATOM     25  H   UNL     1      57.720  23.850  24.470  0.00  0.00    -0.082 HD
ATOM     26  C   UNL     1      58.097  21.851  25.141  0.00  0.00    -0.064 C 
ATOM     27  C   UNL     1      56.609  21.409  25.074  0.00  0.00    +0.066 C 
ENDBRANCH  19  20
ENDBRANCH  18  19
ENDBRANCH  14  15
ENDBRANCH  12  13
TORSDOF 6
ENDMDL
MODEL 3
REMARK VINA RESULT:      -9.2      1.391      2.020
REMARK  Name = C:\Users\Docking\Desktop\test protocol\1iep_ligandH.pdb
REMARK  8 active torsions:
REMARK  status: ('A' for Active; 'I' for Inactive)
REMARK    1  A    between atoms: _5  and  _11
REMARK    2  A    between atoms: _19  and  _21
REMARK    3  A    between atoms: _22  and  _66
REMARK    4  A    between atoms: _27  and  _30
REMARK    5  A    between atoms: _32  and  _33
REMARK    6  A    between atoms: _38  and  _43
REMARK    7  A    between atoms: _43  and  _46
REMARK    8  A    between atoms: _53  and  _55
REMARK                            x       y       z     vdW  Elec       q    Type
REMARK                         _______ _______ _______ _____ _____    ______ ____
ROOT
ATOM     10  C   UNL     1      52.829  13.026  31.710  0.00  0.00    +0.038 A 
ATOM     11  C   UNL     1      53.182  14.242  31.070  0.00  0.00    +0.047 A 
ATOM     12  C   UNL     1      53.867  14.247  29.787  0.00  0.00    +0.035 A 
ATOM     32  C   UNL     1      54.176  12.994  29.182  0.00  0.00    +0.024 A 
ATOM     33  C   UNL     1      53.826  11.748  29.818  0.00  0.00    +0.007 A 
ATOM     34  C   UNL     1      53.152  11.738  31.085  0.00  0.00    -0.029 A 
ATOM     35  C   UNL     1      52.807  10.373  31.724  0.00  0.00    +0.045 C 
ENDROOT
BRANCH  10   9
ATOM      4  C   UNL     1      48.840  13.164  34.375  0.00  0.00    +0.077 A 
ATOM      5  C   UNL     1      47.995  13.154  33.217  0.00  0.00    +0.048 A 
ATOM      6  C   UNL     1      48.626  13.120  31.953  0.00  0.00    +0.116 A 
ATOM      7  N   UNL     1      50.001  13.098  31.867  0.00  0.00    -0.223 NA
ATOM      8  C   UNL     1      50.787  13.111  33.004  0.00  0.00    +0.220 A 
ATOM      9  N   UNL     1      52.172  13.081  32.941  0.00  0.00    -0.283 N 
ATOM     36  H   UNL     1      52.717  13.099  33.803  0.00  0.00    +0.155 HD
ATOM     37  N   UNL     1      50.209  13.144  34.222  0.00  0.00    -0.214 NA
BRANCH   4   3
ATOM      1  C   UNL     1      48.460  12.599  38.227  0.00  0.00    +0.020 A 
ATOM      2  C   UNL     1      49.002  12.538  36.889  0.00  0.00    +0.013 A 
ATOM      3  C   UNL     1      48.323  13.196  35.780  0.00  0.00    +0.019 A 
ATOM     38  C   UNL     1      47.089  13.914  36.061  0.00  0.00    +0.120 A 
ATOM     39  N   UNL     1      46.590  13.955  37.359  0.00  0.00    -0.263 NA
ATOM     40  C   UNL     1      47.234  13.324  38.434  0.00  0.00    +0.111 A 
ENDBRANCH   4   3
ENDBRANCH  10   9
BRANCH  12  13
ATOM     13  N   UNL     1      54.258  15.450  29.095  0.00  0.00    -0.281 N 
ATOM     14  C   UNL     1      53.487  16.237  28.254  0.00  0.00    +0.248 C 
ATOM     30  O   UNL     1      52.402  15.906  27.800  0.00  0.00    -0.270 OA
ATOM     31  H   UNL     1      55.219  15.759  29.241  0.00  0.00    +0.155 HD
BRANCH  14  15
ATOM     15  C   UNL     1      54.003  17.580  27.849  0.00  0.00    +0.037 A 
ATOM     16  C   UNL     1      53.138  18.763  27.868  0.00  0.00    +0.013 A 
ATOM     17  C   UNL     1      53.656  20.043  27.455  0.00  0.00    +0.005 A 
ATOM     18  C   UNL     1      55.048  20.147  27.022  0.00  0.00    -0.033 A 
ATOM     28  C   UNL     1      55.884  18.959  27.019  0.00  0.00    +0.005 A 
ATOM     29  C   UNL     1      55.380  17.702  27.421  0.00  0.00    +0.013 A 
BRANCH  18  19
ATOM     19  C   UNL     1      55.679  21.469  26.546  0.00  0.00    +0.119 C 
BRANCH  19  20
ATOM     20  N   UNL     1      54.887  22.299  25.589  0.00  0.00    -0.302 NA
ATOM     21  C   UNL     1      54.762  21.630  24.217  0.00  0.00    +0.066 C 
ATOM     22  C   UNL     1      53.912  22.501  23.235  0.00  0.00    -0.064 C 
ATOM     23  N   UNL     1      54.548  23.887  23.106  0.00  0.00    +0.379 N 
ATOM     24  C   UNL     1      53.784  24.688  22.139  0.00  0.00    -0.096 C 
ATOM     25  H   UNL     1      55.575  23.750  22.696  0.00  0.00    -0.082 HD
ATOM     26  C   UNL     1      54.678  24.557  24.466  0.00  0.00    -0.064 C 
ATOM     27  C   UNL     1      55.499  23.670  25.443  0.00  0.00    +0.066 C 
ENDBRANCH  19  20
ENDBRANCH  18  19
ENDBRANCH  14  15
ENDBRANCH  12  13
TORSDOF 6
ENDMDL
MODEL 4
REMARK VINA RESULT:      -9.1      6.865     12.475
REMARK  Name = C:\Users\Docking\Desktop\test protocol\1iep_ligandH.pdb
REMARK  8 active torsions:
REMARK  status: ('A' for Active; 'I' for Inactive)
REMARK    1  A    between atoms: _5  and  _11
REMARK    2  A    between atoms: _19  and  _21
REMARK    3  A    between atoms: _22  and  _66
REMARK    4  A    between atoms: _27  and  _30
REMARK    5  A    between atoms: _32  and  _33
REMARK    6  A    between atoms: _38  and  _43
REMARK    7  A    between atoms: _43  and  _46
REMARK    8  A    between atoms: _53  and  _55
REMARK                            x       y       z     vdW  Elec       q    Type
REMARK                         _______ _______ _______ _____ _____    ______ ____
ROOT
ATOM     10  C   UNL     1      50.989  13.248  32.974  0.00  0.00    +0.038 A 
ATOM     11  C   UNL     1      51.462  11.918  32.843  0.00  0.00    +0.047 A 
ATOM     12  C   UNL     1      52.054  11.449  31.600  0.00  0.00    +0.035 A 
ATOM     32  C   UNL     1      52.151  12.363  30.511  0.00  0.00    +0.024 A 
ATOM     33  C   UNL     1      51.674  13.719  30.626  0.00  0.00    +0.007 A 
ATOM     34  C   UNL     1      51.087  14.186  31.849  0.00  0.00    -0.029 A 
ATOM     35  C   UNL     1      50.587  15.648  31.915  0.00  0.00    +0.045 C 
ENDROOT
BRANCH  10   9
ATOM      4  C   UNL     1      47.279  13.668  35.990  0.00  0.00    +0.077 A 
ATOM      5  C   UNL     1      46.372  13.070  35.053  0.00  0.00    +0.048 A 
ATOM      6  C   UNL     1      46.900  12.675  33.803  0.00  0.00    +0.116 A 
ATOM      7  N   UNL     1      48.235  12.868  33.522  0.00  0.00    -0.223 NA
ATOM      8  C   UNL     1      49.081  13.449  34.448  0.00  0.00    +0.220 A 
ATOM      9  N   UNL     1      50.429  13.645  34.191  0.00  0.00    -0.283 N 
ATOM     36  H   UNL     1      51.019  14.084  34.897  0.00  0.00    +0.155 HD
ATOM     37  N   UNL     1      48.602  13.836  35.649  0.00  0.00    -0.214 NA
BRANCH   4   3
ATOM      1  C   UNL     1      46.759  13.883  39.861  0.00  0.00    +0.020 A 
ATOM      2  C   UNL     1      47.173  13.388  38.569  0.00  0.00    +0.013 A 
ATOM      3  C   UNL     1      46.873  14.135  37.354  0.00  0.00    +0.019 A 
ATOM     38  C   UNL     1      46.148  15.390  37.483  0.00  0.00    +0.120 A 
ATOM     39  N   UNL     1      45.761  15.841  38.741  0.00  0.00    -0.263 NA
ATOM     40  C   UNL     1      46.042  15.130  39.917  0.00  0.00    +0.111 A 
ENDBRANCH   4   3
ENDBRANCH  10   9
BRANCH  12  13
ATOM     13  N   UNL     1      52.544  10.107  31.405  0.00  0.00    -0.281 N 
ATOM     14  C   UNL     1      53.856   9.695  31.238  0.00  0.00    +0.248 C 
ATOM     30  O   UNL     1      54.793  10.448  31.016  0.00  0.00    -0.270 OA
ATOM     31  H   UNL     1      51.838   9.371  31.389  0.00  0.00    +0.155 HD
BRANCH  14  15
ATOM     15  C   UNL     1      54.171   8.236  31.314  0.00  0.00    +0.037 A 
ATOM     16  C   UNL     1      55.431   7.702  30.791  0.00  0.00    +0.013 A 
ATOM     17  C   UNL     1      55.702   6.288  30.862  0.00  0.00    +0.005 A 
ATOM     18  C   UNL     1      54.710   5.398  31.460  0.00  0.00    -0.033 A 
ATOM     28  C   UNL     1      53.470   5.955  31.976  0.00  0.00    +0.005 A 
ATOM     29  C   UNL     1      53.201   7.340  31.907  0.00  0.00    +0.013 A 
BRANCH  18  19
ATOM     19  C   UNL     1      54.906   3.873  31.558  0.00  0.00    +0.119 C 
BRANCH  19  20
ATOM     20  N   UNL     1      54.472   3.208  32.823  0.00  0.00    -0.302 NA
ATOM     21  C   UNL     1      55.433   3.494  33.981  0.00  0.00    +0.066 C 
ATOM     22  C   UNL     1      54.952   2.809  35.302  0.00  0.00    -0.064 C 
ATOM     23  N   UNL     1      54.813   1.303  35.071  0.00  0.00    +0.379 N 
ATOM     24  C   UNL     1      54.417   0.649  36.327  0.00  0.00    -0.096 C 
ATOM     25  H   UNL     1      55.817   0.911  34.787  0.00  0.00    -0.082 HD
ATOM     26  C   UNL     1      53.861   1.011  33.920  0.00  0.00    -0.064 C 
ATOM     27  C   UNL     1      54.332   1.720  32.619  0.00  0.00    +0.066 C 
ENDBRANCH  19  20
ENDBRANCH  18  19
ENDBRANCH  14  15
ENDBRANCH  12  13
TORSDOF 6
ENDMDL
MODEL 5
REMARK VINA RESULT:      -8.8      6.657     12.764
REMARK  Name = C:\Users\Docking\Desktop\test protocol\1iep_ligandH.pdb
REMARK  8 active torsions:
REMARK  status: ('A' for Active; 'I' for Inactive)
REMARK    1  A    between atoms: _5  and  _11
REMARK    2  A    between atoms: _19  and  _21
REMARK    3  A    between atoms: _22  and  _66
REMARK    4  A    between atoms: _27  and  _30
REMARK    5  A    between atoms: _32  and  _33
REMARK    6  A    between atoms: _38  and  _43
REMARK    7  A    between atoms: _43  and  _46
REMARK    8  A    between atoms: _53  and  _55
REMARK                            x       y       z     vdW  Elec       q    Type
REMARK                         _______ _______ _______ _____ _____    ______ ____
ROOT
ATOM     10  C   UNL     1      50.629  13.381  32.684  0.00  0.00    +0.038 A 
ATOM     11  C   UNL     1      50.960  12.006  32.795  0.00  0.00    +0.047 A 
ATOM     12  C   UNL     1      52.168  11.471  32.186  0.00  0.00    +0.035 A 
ATOM     32  C   UNL     1      53.017  12.366  31.472  0.00  0.00    +0.024 A 
ATOM     33  C   UNL     1      52.696  13.766  31.348  0.00  0.00    +0.007 A 
ATOM     34  C   UNL     1      51.505  14.298  31.945  0.00  0.00    -0.029 A 
ATOM     35  C   UNL     1      51.206  15.806  31.775  0.00  0.00    +0.045 C 
ENDROOT
BRANCH  10   9
ATOM      4  C   UNL     1      47.659  13.727  36.438  0.00  0.00    +0.077 A 
ATOM      5  C   UNL     1      48.500  12.900  37.255  0.00  0.00    +0.048 A 
ATOM      6  C   UNL     1      49.684  12.399  36.669  0.00  0.00    +0.116 A 
ATOM      7  N   UNL     1      49.994  12.710  35.363  0.00  0.00    -0.223 NA
ATOM      8  C   UNL     1      49.161  13.509  34.602  0.00  0.00    +0.220 A 
ATOM      9  N   UNL     1      49.457  13.841  33.289  0.00  0.00    -0.283 N 
ATOM     36  H   UNL     1      48.813  14.427  32.759  0.00  0.00    +0.155 HD
ATOM     37  N   UNL     1      48.023  13.998  35.138  0.00  0.00    -0.214 NA
BRANCH   4   3
ATOM      1  C   UNL     1      44.041  15.211  36.539  0.00  0.00    +0.020 A 
ATOM      2  C   UNL     1      45.258  14.625  36.027  0.00  0.00    +0.013 A 
ATOM      3  C   UNL     1      46.376  14.334  36.916  0.00  0.00    +0.019 A 
ATOM     38  C   UNL     1      46.228  14.649  38.329  0.00  0.00    +0.120 A 
ATOM     39  N   UNL     1      45.045  15.214  38.793  0.00  0.00    -0.263 NA
ATOM     40  C   UNL     1      43.963  15.500  37.947  0.00  0.00    +0.111 A 
ENDBRANCH   4   3
ENDBRANCH  10   9
BRANCH  12  13
ATOM     13  N   UNL     1      52.551  10.083  32.258  0.00  0.00    -0.281 N 
ATOM     14  C   UNL     1      52.992   9.266  31.230  0.00  0.00    +0.248 C 
ATOM     30  O   UNL     1      52.920   9.549  30.043  0.00  0.00    -0.270 OA
ATOM     31  H   UNL     1      52.490   9.650  33.180  0.00  0.00    +0.155 HD
BRANCH  14  15
ATOM     15  C   UNL     1      53.586   7.937  31.568  0.00  0.00    +0.037 A 
ATOM     16  C   UNL     1      54.717   7.396  30.810  0.00  0.00    +0.013 A 
ATOM     17  C   UNL     1      55.260   6.103  31.145  0.00  0.00    +0.005 A 
ATOM     18  C   UNL     1      54.673   5.344  32.247  0.00  0.00    -0.033 A 
ATOM     28  C   UNL     1      53.555   5.907  32.985  0.00  0.00    +0.005 A 
ATOM     29  C   UNL     1      53.019   7.173  32.658  0.00  0.00    +0.013 A 
BRANCH  18  19
ATOM     19  C   UNL     1      55.175   3.948  32.661  0.00  0.00    +0.119 C 
BRANCH  19  20
ATOM     20  N   UNL     1      54.299   2.782  32.335  0.00  0.00    -0.302 NA
ATOM     21  C   UNL     1      53.223   2.556  33.401  0.00  0.00    +0.066 C 
ATOM     22  C   UNL     1      52.303   1.347  33.032  0.00  0.00    -0.064 C 
ATOM     23  N   UNL     1      53.160   0.093  32.854  0.00  0.00    +0.379 N 
ATOM     24  C   UNL     1      52.292  -1.058  32.564  0.00  0.00    -0.096 C 
ATOM     25  H   UNL     1      53.674  -0.106  33.823  0.00  0.00    -0.082 HD
ATOM     26  C   UNL     1      54.235   0.310  31.797  0.00  0.00    -0.064 C 
ATOM     27  C   UNL     1      55.125   1.532  32.158  0.00  0.00    +0.066 C 
ENDBRANCH  19  20
ENDBRANCH  18  19
ENDBRANCH  14  15
ENDBRANCH  12  13
TORSDOF 6
ENDMDL
