MODEL 1
REMARK VINA RESULT:      -8.4      0.000      0.000
REMARK  Name = C:\Users\Docking\Desktop\test protocol\1iep_ligandH.pdb
REMARK  8 active torsions:
REMARK  status: ('A' for Active; 'I' for Inactive)
REMARK    1  A    between atoms: _5  and  _11
REMARK    2  A    between atoms: _19  and  _21
REMARK    3  A    between atoms: _22  and  _66
REMARK    4  A    between atoms: _27  and  _30
REMARK    5  A    between atoms: _32  and  _33
REMARK    6  A    between atoms: _38  and  _43
REMARK    7  A    between atoms: _43  and  _46
REMARK    8  A    between atoms: _53  and  _55
REMARK                            x       y       z     vdW  Elec       q    Type
REMARK                         _______ _______ _______ _____ _____    ______ ____
ROOT
ATOM     10  C   UNL     1      85.961  43.779  71.309  0.00  0.00    +0.038 A 
ATOM     11  C   UNL     1      84.790  44.310  70.709  0.00  0.00    +0.047 A 
ATOM     12  C   UNL     1      83.584  43.509  70.575  0.00  0.00    +0.035 A 
ATOM     32  C   UNL     1      83.603  42.171  71.064  0.00  0.00    +0.024 A 
ATOM     33  C   UNL     1      84.784  41.614  71.675  0.00  0.00    +0.007 A 
ATOM     34  C   UNL     1      85.978  42.399  71.809  0.00  0.00    -0.029 A 
ATOM     35  C   UNL     1      87.218  41.748  72.467  0.00  0.00    +0.045 C 
ENDROOT
BRANCH  10   9
ATOM      4  C   UNL     1      88.478  47.278  73.421  0.00  0.00    +0.077 A 
ATOM      5  C   UNL     1      87.442  47.524  74.382  0.00  0.00    +0.048 A 
ATOM      6  C   UNL     1      86.274  46.733  74.294  0.00  0.00    +0.116 A 
ATOM      7  N   UNL     1      86.162  45.771  73.314  0.00  0.00    -0.223 NA
ATOM      8  C   UNL     1      87.179  45.560  72.402  0.00  0.00    +0.220 A 
ATOM      9  N   UNL     1      87.091  44.593  71.413  0.00  0.00    -0.283 N 
ATOM     36  H   UNL     1      87.860  44.473  70.754  0.00  0.00    +0.155 HD
ATOM     37  N   UNL     1      88.304  46.303  72.463  0.00  0.00    -0.214 NA
BRANCH   4   3
ATOM      1  C   UNL     1      92.027  48.553  72.382  0.00  0.00    +0.020 A 
ATOM      2  C   UNL     1      90.794  47.801  72.371  0.00  0.00    +0.013 A 
ATOM      3  C   UNL     1      89.773  48.029  73.385  0.00  0.00    +0.019 A 
ATOM     38  C   UNL     1      90.032  49.035  74.405  0.00  0.00    +0.120 A 
ATOM     39  N   UNL     1      91.229  49.743  74.391  0.00  0.00    -0.263 NA
ATOM     40  C   UNL     1      92.220  49.531  73.420  0.00  0.00    +0.111 A 
ENDBRANCH   4   3
ENDBRANCH  10   9
BRANCH  12  13
ATOM     13  N   UNL     1      82.368  43.993  69.967  0.00  0.00    -0.281 N 
ATOM     14  C   UNL     1      81.923  43.785  68.672  0.00  0.00    +0.248 C 
ATOM     30  O   UNL     1      82.609  43.328  67.770  0.00  0.00    -0.270 OA
ATOM     31  H   UNL     1      81.763  44.556  70.565  0.00  0.00    +0.155 HD
BRANCH  14  15
ATOM     15  C   UNL     1      80.516  44.152  68.325  0.00  0.00    +0.037 A 
ATOM     16  C   UNL     1      79.519  43.126  68.009  0.00  0.00    +0.013 A 
ATOM     17  C   UNL     1      78.173  43.508  67.661  0.00  0.00    +0.005 A 
ATOM     18  C   UNL     1      77.816  44.924  67.629  0.00  0.00    -0.033 A 
ATOM     28  C   UNL     1      78.824  45.921  67.953  0.00  0.00    +0.005 A 
ATOM     29  C   UNL     1      80.144  45.551  68.293  0.00  0.00    +0.013 A 
BRANCH  18  19
ATOM     19  C   UNL     1      76.410  45.424  67.248  0.00  0.00    +0.119 C 
BRANCH  19  20
ATOM     20  N   UNL     1      76.318  46.747  66.561  0.00  0.00    -0.302 NA
ATOM     21  C   UNL     1      74.899  47.321  66.609  0.00  0.00    +0.066 C 
ATOM     22  C   UNL     1      74.825  48.715  65.906  0.00  0.00    -0.064 C 
ATOM     23  N   UNL     1      75.306  48.580  64.460  0.00  0.00    +0.379 N 
ATOM     24  C   UNL     1      75.183  49.877  63.778  0.00  0.00    -0.096 C 
ATOM     25  H   UNL     1      74.628  47.861  63.944  0.00  0.00    -0.082 HD
ATOM     26  C   UNL     1      76.715  48.007  64.403  0.00  0.00    -0.064 C 
ATOM     27  C   UNL     1      76.784  46.635  65.131  0.00  0.00    +0.066 C 
ENDBRANCH  19  20
ENDBRANCH  18  19
ENDBRANCH  14  15
ENDBRANCH  12  13
TORSDOF 6
ENDMDL
MODEL 2
REMARK VINA RESULT:      -8.4     25.928     29.242
REMARK  Name = C:\Users\Docking\Desktop\test protocol\1iep_ligandH.pdb
REMARK  8 active torsions:
REMARK  status: ('A' for Active; 'I' for Inactive)
REMARK    1  A    between atoms: _5  and  _11
REMARK    2  A    between atoms: _19  and  _21
REMARK    3  A    between atoms: _22  and  _66
REMARK    4  A    between atoms: _27  and  _30
REMARK    5  A    between atoms: _32  and  _33
REMARK    6  A    between atoms: _38  and  _43
REMARK    7  A    between atoms: _43  and  _46
REMARK    8  A    between atoms: _53  and  _55
REMARK                            x       y       z     vdW  Elec       q    Type
REMARK                         _______ _______ _______ _____ _____    ______ ____
ROOT
ATOM     10  C   UNL     1      95.061  71.834  59.347  0.00  0.00    +0.038 A 
ATOM     11  C   UNL     1      95.138  70.479  58.937  0.00  0.00    +0.047 A 
ATOM     12  C   UNL     1      95.136  70.117  57.528  0.00  0.00    +0.035 A 
ATOM     32  C   UNL     1      95.058  71.163  56.562  0.00  0.00    +0.024 A 
ATOM     33  C   UNL     1      94.979  72.546  56.961  0.00  0.00    +0.007 A 
ATOM     34  C   UNL     1      94.977  72.909  58.350  0.00  0.00    -0.029 A 
ATOM     35  C   UNL     1      94.884  74.407  58.720  0.00  0.00    +0.045 C 
ENDROOT
BRANCH  10   9
ATOM      4  C   UNL     1      97.341  72.731  63.474  0.00  0.00    +0.077 A 
ATOM      5  C   UNL     1      98.630  72.583  62.863  0.00  0.00    +0.048 A 
ATOM      6  C   UNL     1      98.663  72.269  61.486  0.00  0.00    +0.116 A 
ATOM      7  N   UNL     1      97.488  72.117  60.782  0.00  0.00    -0.223 NA
ATOM      8  C   UNL     1      96.261  72.265  61.403  0.00  0.00    +0.220 A 
ATOM      9  N   UNL     1      95.067  72.124  60.713  0.00  0.00    -0.283 N 
ATOM     36  H   UNL     1      94.182  72.234  61.209  0.00  0.00    +0.155 HD
ATOM     37  N   UNL     1      96.203  72.563  62.717  0.00  0.00    -0.214 NA
BRANCH   4   3
ATOM      1  C   UNL     1      95.689  73.450  66.947  0.00  0.00    +0.020 A 
ATOM      2  C   UNL     1      95.827  73.123  65.546  0.00  0.00    +0.013 A 
ATOM      3  C   UNL     1      97.141  73.065  64.920  0.00  0.00    +0.019 A 
ATOM     38  C   UNL     1      98.306  73.345  65.746  0.00  0.00    +0.120 A 
ATOM     39  N   UNL     1      98.143  73.659  67.092  0.00  0.00    -0.263 NA
ATOM     40  C   UNL     1      96.883  73.719  67.705  0.00  0.00    +0.111 A 
ENDBRANCH   4   3
ENDBRANCH  10   9
BRANCH  12  13
ATOM     13  N   UNL     1      95.204  68.758  57.052  0.00  0.00    -0.281 N 
ATOM     14  C   UNL     1      94.167  67.848  56.924  0.00  0.00    +0.248 C 
ATOM     30  O   UNL     1      93.053  67.998  57.402  0.00  0.00    -0.270 OA
ATOM     31  H   UNL     1      96.128  68.426  56.776  0.00  0.00    +0.155 HD
BRANCH  14  15
ATOM     15  C   UNL     1      94.407  66.582  56.166  0.00  0.00    +0.037 A 
ATOM     16  C   UNL     1      94.728  65.332  56.858  0.00  0.00    +0.013 A 
ATOM     17  C   UNL     1      94.972  64.129  56.102  0.00  0.00    +0.005 A 
ATOM     18  C   UNL     1      94.894  64.171  54.644  0.00  0.00    -0.033 A 
ATOM     28  C   UNL     1      94.568  65.424  53.983  0.00  0.00    +0.005 A 
ATOM     29  C   UNL     1      94.330  66.605  54.721  0.00  0.00    +0.013 A 
BRANCH  18  19
ATOM     19  C   UNL     1      95.159  62.941  53.756  0.00  0.00    +0.119 C 
BRANCH  19  20
ATOM     20  N   UNL     1      94.027  62.445  52.918  0.00  0.00    -0.302 NA
ATOM     21  C   UNL     1      93.862  63.262  51.634  0.00  0.00    +0.066 C 
ATOM     22  C   UNL     1      92.687  62.715  50.759  0.00  0.00    -0.064 C 
ATOM     23  N   UNL     1      91.396  62.727  51.578  0.00  0.00    +0.379 N 
ATOM     24  C   UNL     1      90.278  62.269  50.740  0.00  0.00    -0.096 C 
ATOM     25  H   UNL     1      91.189  63.784  51.869  0.00  0.00    -0.082 HD
ATOM     26  C   UNL     1      91.552  61.919  52.859  0.00  0.00    -0.064 C 
ATOM     27  C   UNL     1      92.741  62.452  53.707  0.00  0.00    +0.066 C 
ENDBRANCH  19  20
ENDBRANCH  18  19
ENDBRANCH  14  15
ENDBRANCH  12  13
TORSDOF 6
ENDMDL
MODEL 3
REMARK VINA RESULT:      -8.3     31.753     36.364
REMARK  Name = C:\Users\Docking\Desktop\test protocol\1iep_ligandH.pdb
REMARK  8 active torsions:
REMARK  status: ('A' for Active; 'I' for Inactive)
REMARK    1  A    between atoms: _5  and  _11
REMARK    2  A    between atoms: _19  and  _21
REMARK    3  A    between atoms: _22  and  _66
REMARK    4  A    between atoms: _27  and  _30
REMARK    5  A    between atoms: _32  and  _33
REMARK    6  A    between atoms: _38  and  _43
REMARK    7  A    between atoms: _43  and  _46
REMARK    8  A    between atoms: _53  and  _55
REMARK                            x       y       z     vdW  Elec       q    Type
REMARK                         _______ _______ _______ _____ _____    ______ ____
ROOT
ATOM     10  C   UNL     1     112.240  47.034  48.331  0.00  0.00    +0.038 A 
ATOM     11  C   UNL     1     112.159  48.445  48.441  0.00  0.00    +0.047 A 
ATOM     12  C   UNL     1     112.248  49.298  47.266  0.00  0.00    +0.035 A 
ATOM     32  C   UNL     1     112.416  48.679  45.994  0.00  0.00    +0.024 A 
ATOM     33  C   UNL     1     112.502  47.246  45.863  0.00  0.00    +0.007 A 
ATOM     34  C   UNL     1     112.418  46.400  47.019  0.00  0.00    -0.029 A 
ATOM     35  C   UNL     1     112.522  44.869  46.821  0.00  0.00    +0.045 C 
ENDROOT
BRANCH  10   9
ATOM      4  C   UNL     1     109.706  44.826  51.758  0.00  0.00    +0.077 A 
ATOM      5  C   UNL     1     108.459  45.268  51.203  0.00  0.00    +0.048 A 
ATOM      6  C   UNL     1     108.514  46.068  50.040  0.00  0.00    +0.116 A 
ATOM      7  N   UNL     1     109.730  46.395  49.481  0.00  0.00    -0.223 NA
ATOM      8  C   UNL     1     110.914  45.953  50.042  0.00  0.00    +0.220 A 
ATOM      9  N   UNL     1     112.149  46.263  49.492  0.00  0.00    -0.283 N 
ATOM     36  H   UNL     1     113.000  45.924  49.941  0.00  0.00    +0.155 HD
ATOM     37  N   UNL     1     110.889  45.189  51.154  0.00  0.00    -0.214 NA
BRANCH   4   3
ATOM      1  C   UNL     1     108.812  42.563  54.820  0.00  0.00    +0.020 A 
ATOM      2  C   UNL     1     108.654  43.380  53.640  0.00  0.00    +0.013 A 
ATOM      3  C   UNL     1     109.813  43.972  52.983  0.00  0.00    +0.019 A 
ATOM     38  C   UNL     1     111.128  43.715  53.551  0.00  0.00    +0.120 A 
ATOM     39  N   UNL     1     111.249  42.925  54.690  0.00  0.00    -0.263 NA
ATOM     40  C   UNL     1     110.140  42.352  55.331  0.00  0.00    +0.111 A 
ENDBRANCH   4   3
ENDBRANCH  10   9
BRANCH  12  13
ATOM     13  N   UNL     1     112.180  50.738  47.318  0.00  0.00    -0.281 N 
ATOM     14  C   UNL     1     113.183  51.648  47.028  0.00  0.00    +0.248 C 
ATOM     30  O   UNL     1     114.361  51.357  46.887  0.00  0.00    -0.270 OA
ATOM     31  H   UNL     1     111.283  51.133  47.602  0.00  0.00    +0.155 HD
BRANCH  14  15
ATOM     15  C   UNL     1     112.828  53.094  46.891  0.00  0.00    +0.037 A 
ATOM     16  C   UNL     1     111.489  53.583  47.229  0.00  0.00    +0.013 A 
ATOM     17  C   UNL     1     111.168  54.979  47.071  0.00  0.00    +0.005 A 
ATOM     18  C   UNL     1     112.190  55.897  46.573  0.00  0.00    -0.033 A 
ATOM     28  C   UNL     1     113.512  55.386  46.250  0.00  0.00    +0.005 A 
ATOM     29  C   UNL     1     113.829  54.018  46.403  0.00  0.00    +0.013 A 
BRANCH  18  19
ATOM     19  C   UNL     1     111.929  57.399  46.353  0.00  0.00    +0.119 C 
BRANCH  19  20
ATOM     20  N   UNL     1     110.515  57.822  46.130  0.00  0.00    -0.302 NA
ATOM     21  C   UNL     1     110.365  58.687  44.875  0.00  0.00    +0.066 C 
ATOM     22  C   UNL     1     108.875  59.102  44.644  0.00  0.00    -0.064 C 
ATOM     23  N   UNL     1     108.358  59.844  45.878  0.00  0.00    +0.379 N 
ATOM     24  C   UNL     1     106.976  60.286  45.642  0.00  0.00    -0.096 C 
ATOM     25  H   UNL     1     108.987  60.755  46.013  0.00  0.00    -0.082 HD
ATOM     26  C   UNL     1     108.506  58.992  47.131  0.00  0.00    -0.064 C 
ATOM     27  C   UNL     1     109.985  58.560  47.335  0.00  0.00    +0.066 C 
ENDBRANCH  19  20
ENDBRANCH  18  19
ENDBRANCH  14  15
ENDBRANCH  12  13
TORSDOF 6
ENDMDL
MODEL 4
REMARK VINA RESULT:      -8.2     25.588     30.130
REMARK  Name = C:\Users\Docking\Desktop\test protocol\1iep_ligandH.pdb
REMARK  8 active torsions:
REMARK  status: ('A' for Active; 'I' for Inactive)
REMARK    1  A    between atoms: _5  and  _11
REMARK    2  A    between atoms: _19  and  _21
REMARK    3  A    between atoms: _22  and  _66
REMARK    4  A    between atoms: _27  and  _30
REMARK    5  A    between atoms: _32  and  _33
REMARK    6  A    between atoms: _38  and  _43
REMARK    7  A    between atoms: _43  and  _46
REMARK    8  A    between atoms: _53  and  _55
REMARK                            x       y       z     vdW  Elec       q    Type
REMARK                         _______ _______ _______ _____ _____    ______ ____
ROOT
ATOM     10  C   UNL     1      94.240  64.464  54.162  0.00  0.00    +0.038 A 
ATOM     11  C   UNL     1      94.197  65.840  54.506  0.00  0.00    +0.047 A 
ATOM     12  C   UNL     1      94.612  66.299  55.822  0.00  0.00    +0.035 A 
ATOM     32  C   UNL     1      95.067  65.330  56.763  0.00  0.00    +0.024 A 
ATOM     33  C   UNL     1      95.116  63.928  56.431  0.00  0.00    +0.007 A 
ATOM     34  C   UNL     1      94.706  63.469  55.134  0.00  0.00    -0.029 A 
ATOM     35  C   UNL     1      94.774  61.953  54.835  0.00  0.00    +0.045 C 
ENDROOT
BRANCH  10   9
ATOM      4  C   UNL     1      90.946  62.792  51.097  0.00  0.00    +0.077 A 
ATOM      5  C   UNL     1      89.967  62.648  52.136  0.00  0.00    +0.048 A 
ATOM      6  C   UNL     1      90.353  63.009  53.446  0.00  0.00    +0.116 A 
ATOM      7  N   UNL     1      91.627  63.478  53.688  0.00  0.00    -0.223 NA
ATOM      8  C   UNL     1      92.547  63.602  52.664  0.00  0.00    +0.220 A 
ATOM      9  N   UNL     1      93.831  64.079  52.883  0.00  0.00    -0.283 N 
ATOM     36  H   UNL     1      94.483  64.149  52.102  0.00  0.00    +0.155 HD
ATOM     37  N   UNL     1      92.203  63.263  51.404  0.00  0.00    -0.214 NA
BRANCH   4   3
ATOM      1  C   UNL     1      89.239  61.563  47.800  0.00  0.00    +0.020 A 
ATOM      2  C   UNL     1      89.437  61.869  49.198  0.00  0.00    +0.013 A 
ATOM      3  C   UNL     1      90.688  62.455  49.661  0.00  0.00    +0.019 A 
ATOM     38  C   UNL     1      91.727  62.722  48.677  0.00  0.00    +0.120 A 
ATOM     39  N   UNL     1      91.507  62.415  47.338  0.00  0.00    -0.263 NA
ATOM     40  C   UNL     1      90.308  61.850  46.880  0.00  0.00    +0.111 A 
ENDBRANCH   4   3
ENDBRANCH  10   9
BRANCH  12  13
ATOM     13  N   UNL     1      94.583  67.681  56.231  0.00  0.00    -0.281 N 
ATOM     14  C   UNL     1      93.690  68.296  57.094  0.00  0.00    +0.248 C 
ATOM     30  O   UNL     1      92.646  67.792  57.481  0.00  0.00    -0.270 OA
ATOM     31  H   UNL     1      95.308  68.280  55.837  0.00  0.00    +0.155 HD
BRANCH  14  15
ATOM     15  C   UNL     1      93.994  69.673  57.587  0.00  0.00    +0.037 A 
ATOM     16  C   UNL     1      94.739  70.628  56.763  0.00  0.00    +0.013 A 
ATOM     17  C   UNL     1      95.033  71.945  57.269  0.00  0.00    +0.005 A 
ATOM     18  C   UNL     1      94.580  72.316  58.608  0.00  0.00    -0.033 A 
ATOM     28  C   UNL     1      93.838  71.351  59.402  0.00  0.00    +0.005 A 
ATOM     29  C   UNL     1      93.549  70.059  58.910  0.00  0.00    +0.013 A 
BRANCH  18  19
ATOM     19  C   UNL     1      94.868  73.692  59.237  0.00  0.00    +0.119 C 
BRANCH  19  20
ATOM     20  N   UNL     1      95.966  73.766  60.246  0.00  0.00    -0.302 NA
ATOM     21  C   UNL     1      97.118  72.815  59.913  0.00  0.00    +0.066 C 
ATOM     22  C   UNL     1      98.268  72.922  60.967  0.00  0.00    -0.064 C 
ATOM     23  N   UNL     1      97.708  72.627  62.360  0.00  0.00    +0.379 N 
ATOM     24  C   UNL     1      98.798  72.670  63.346  0.00  0.00    -0.096 C 
ATOM     25  H   UNL     1      97.303  71.589  62.348  0.00  0.00    -0.082 HD
ATOM     26  C   UNL     1      96.560  73.567  62.698  0.00  0.00    -0.064 C 
ATOM     27  C   UNL     1      95.436  73.474  61.629  0.00  0.00    +0.066 C 
ENDBRANCH  19  20
ENDBRANCH  18  19
ENDBRANCH  14  15
ENDBRANCH  12  13
TORSDOF 6
ENDMDL
MODEL 5
REMARK VINA RESULT:      -8.1     10.638     17.495
REMARK  Name = C:\Users\Docking\Desktop\test protocol\1iep_ligandH.pdb
REMARK  8 active torsions:
REMARK  status: ('A' for Active; 'I' for Inactive)
REMARK    1  A    between atoms: _5  and  _11
REMARK    2  A    between atoms: _19  and  _21
REMARK    3  A    between atoms: _22  and  _66
REMARK    4  A    between atoms: _27  and  _30
REMARK    5  A    between atoms: _32  and  _33
REMARK    6  A    between atoms: _38  and  _43
REMARK    7  A    between atoms: _43  and  _46
REMARK    8  A    between atoms: _53  and  _55
REMARK                            x       y       z     vdW  Elec       q    Type
REMARK                         _______ _______ _______ _____ _____    ______ ____
ROOT
ATOM     10  C   UNL     1      93.192  47.308  69.394  0.00  0.00    +0.038 A 
ATOM     11  C   UNL     1      94.416  46.600  69.277  0.00  0.00    +0.047 A 
ATOM     12  C   UNL     1      94.590  45.292  69.888  0.00  0.00    +0.035 A 
ATOM     32  C   UNL     1      93.495  44.733  70.610  0.00  0.00    +0.024 A 
ATOM     33  C   UNL     1      92.245  45.439  70.740  0.00  0.00    +0.007 A 
ATOM     34  C   UNL     1      92.068  46.730  70.141  0.00  0.00    -0.029 A 
ATOM     35  C   UNL     1      90.708  47.445  70.318  0.00  0.00    +0.045 C 
ENDROOT
BRANCH  10   9
ATOM      4  C   UNL     1      93.075  52.103  69.572  0.00  0.00    +0.077 A 
ATOM      5  C   UNL     1      93.223  52.112  70.999  0.00  0.00    +0.048 A 
ATOM      6  C   UNL     1      93.318  50.862  71.650  0.00  0.00    +0.116 A 
ATOM      7  N   UNL     1      93.269  49.695  70.918  0.00  0.00    -0.223 NA
ATOM      8  C   UNL     1      93.124  49.721  69.543  0.00  0.00    +0.220 A 
ATOM      9  N   UNL     1      93.080  48.561  68.786  0.00  0.00    -0.283 N 
ATOM     36  H   UNL     1      92.965  48.622  67.775  0.00  0.00    +0.155 HD
ATOM     37  N   UNL     1      93.029  50.903  68.898  0.00  0.00    -0.214 NA
BRANCH   4   3
ATOM      1  C   UNL     1      92.204  54.600  66.690  0.00  0.00    +0.020 A 
ATOM      2  C   UNL     1      92.283  53.376  67.453  0.00  0.00    +0.013 A 
ATOM      3  C   UNL     1      92.964  53.343  68.741  0.00  0.00    +0.019 A 
ATOM     38  C   UNL     1      93.559  54.577  69.233  0.00  0.00    +0.120 A 
ATOM     39  N   UNL     1      93.468  55.741  68.476  0.00  0.00    -0.263 NA
ATOM     40  C   UNL     1      92.817  55.784  67.234  0.00  0.00    +0.111 A 
ENDBRANCH   4   3
ENDBRANCH  10   9
BRANCH  12  13
ATOM     13  N   UNL     1      95.811  44.530  69.810  0.00  0.00    -0.281 N 
ATOM     14  C   UNL     1      96.727  44.282  70.820  0.00  0.00    +0.248 C 
ATOM     30  O   UNL     1      96.742  44.860  71.896  0.00  0.00    -0.270 OA
ATOM     31  H   UNL     1      96.028  44.124  68.899  0.00  0.00    +0.155 HD
BRANCH  14  15
ATOM     15  C   UNL     1      97.788  43.254  70.596  0.00  0.00    +0.037 A 
ATOM     16  C   UNL     1      98.734  42.895  71.656  0.00  0.00    +0.013 A 
ATOM     17  C   UNL     1      99.759  41.912  71.408  0.00  0.00    +0.005 A 
ATOM     18  C   UNL     1      99.842  41.279  70.093  0.00  0.00    -0.033 A 
ATOM     28  C   UNL     1      98.887  41.651  69.062  0.00  0.00    +0.005 A 
ATOM     29  C   UNL     1      97.882  42.615  69.301  0.00  0.00    +0.013 A 
BRANCH  18  19
ATOM     19  C   UNL     1     100.916  40.236  69.734  0.00  0.00    +0.119 C 
BRANCH  19  20
ATOM     20  N   UNL     1     102.343  40.671  69.803  0.00  0.00    -0.302 NA
ATOM     21  C   UNL     1     102.860  41.164  68.449  0.00  0.00    +0.066 C 
ATOM     22  C   UNL     1     104.347  41.637  68.545  0.00  0.00    -0.064 C 
ATOM     23  N   UNL     1     105.211  40.489  69.070  0.00  0.00    +0.379 N 
ATOM     24  C   UNL     1     106.619  40.911  69.107  0.00  0.00    -0.096 C 
ATOM     25  H   UNL     1     105.130  39.646  68.345  0.00  0.00    -0.082 HD
ATOM     26  C   UNL     1     104.702  39.991  70.415  0.00  0.00    -0.064 C 
ATOM     27  C   UNL     1     103.215  39.551  70.315  0.00  0.00    +0.066 C 
ENDBRANCH  19  20
ENDBRANCH  18  19
ENDBRANCH  14  15
ENDBRANCH  12  13
TORSDOF 6
ENDMDL
