MODEL 1
REMARK VINA RESULT:      -8.1      0.000      0.000
REMARK  Name = C:\Users\Docking\Desktop\test protocol\1iep_ligandH.pdb
REMARK  8 active torsions:
REMARK  status: ('A' for Active; 'I' for Inactive)
REMARK    1  A    between atoms: _5  and  _11
REMARK    2  A    between atoms: _19  and  _21
REMARK    3  A    between atoms: _22  and  _66
REMARK    4  A    between atoms: _27  and  _30
REMARK    5  A    between atoms: _32  and  _33
REMARK    6  A    between atoms: _38  and  _43
REMARK    7  A    between atoms: _43  and  _46
REMARK    8  A    between atoms: _53  and  _55
REMARK                            x       y       z     vdW  Elec       q    Type
REMARK                         _______ _______ _______ _____ _____    ______ ____
ROOT
ATOM     10  C   UNL     1      20.138  10.054  40.126  0.00  0.00    +0.038 A 
ATOM     11  C   UNL     1      18.914  10.546  39.606  0.00  0.00    +0.047 A 
ATOM     12  C   UNL     1      18.715  11.967  39.365  0.00  0.00    +0.035 A 
ATOM     32  C   UNL     1      19.786  12.859  39.663  0.00  0.00    +0.024 A 
ATOM     33  C   UNL     1      21.037  12.376  40.194  0.00  0.00    +0.007 A 
ATOM     34  C   UNL     1      21.238  10.976  40.436  0.00  0.00    -0.029 A 
ATOM     35  C   UNL     1      22.597  10.516  41.013  0.00  0.00    +0.045 C 
ENDROOT
BRANCH  10   9
ATOM      4  C   UNL     1      19.897   6.157  42.918  0.00  0.00    +0.077 A 
ATOM      5  C   UNL     1      19.492   6.927  44.059  0.00  0.00    +0.048 A 
ATOM      6  C   UNL     1      19.364   8.324  43.887  0.00  0.00    +0.116 A 
ATOM      7  N   UNL     1      19.624   8.897  42.661  0.00  0.00    -0.223 NA
ATOM      8  C   UNL     1      20.015   8.126  41.582  0.00  0.00    +0.220 A 
ATOM      9  N   UNL     1      20.274   8.680  40.338  0.00  0.00    -0.283 N 
ATOM     36  H   UNL     1      20.568   8.079  39.569  0.00  0.00    +0.155 HD
ATOM     37  N   UNL     1      20.146   6.790  41.721  0.00  0.00    -0.214 NA
BRANCH   4   3
ATOM      1  C   UNL     1      19.745   2.365  41.971  0.00  0.00    +0.020 A 
ATOM      2  C   UNL     1      19.546   3.795  41.902  0.00  0.00    +0.013 A 
ATOM      3  C   UNL     1      20.074   4.671  42.941  0.00  0.00    +0.019 A 
ATOM     38  C   UNL     1      20.805   4.064  44.043  0.00  0.00    +0.120 A 
ATOM     39  N   UNL     1      20.979   2.684  44.084  0.00  0.00    -0.263 NA
ATOM     40  C   UNL     1      20.474   1.831  43.091  0.00  0.00    +0.111 A 
ENDBRANCH   4   3
ENDBRANCH  10   9
BRANCH  12  13
ATOM     13  N   UNL     1      17.492  12.525  38.845  0.00  0.00    -0.281 N 
ATOM     14  C   UNL     1      17.110  12.654  37.520  0.00  0.00    +0.248 C 
ATOM     30  O   UNL     1      17.860  12.503  36.567  0.00  0.00    -0.270 OA
ATOM     31  H   UNL     1      16.826  12.867  39.538  0.00  0.00    +0.155 HD
BRANCH  14  15
ATOM     15  C   UNL     1      15.694  13.018  37.208  0.00  0.00    +0.037 A 
ATOM     16  C   UNL     1      14.829  12.118  36.443  0.00  0.00    +0.013 A 
ATOM     17  C   UNL     1      13.472  12.501  36.141  0.00  0.00    +0.005 A 
ATOM     18  C   UNL     1      12.973  13.792  36.608  0.00  0.00    -0.033 A 
ATOM     28  C   UNL     1      13.851  14.664  37.369  0.00  0.00    +0.005 A 
ATOM     29  C   UNL     1      15.182  14.292  37.666  0.00  0.00    +0.013 A 
BRANCH  18  19
ATOM     19  C   UNL     1      11.546  14.292  36.314  0.00  0.00    +0.119 C 
BRANCH  19  20
ATOM     20  N   UNL     1      10.646  14.518  37.485  0.00  0.00    -0.302 NA
ATOM     21  C   UNL     1      10.453  13.246  38.315  0.00  0.00    +0.066 C 
ATOM     22  C   UNL     1       9.527  13.505  39.547  0.00  0.00    -0.064 C 
ATOM     23  N   UNL     1       8.180  14.047  39.065  0.00  0.00    +0.379 N 
ATOM     24  C   UNL     1       7.288  14.238  40.218  0.00  0.00    -0.096 C 
ATOM     25  H   UNL     1       7.722  13.274  38.406  0.00  0.00    -0.082 HD
ATOM     26  C   UNL     1       8.364  15.311  38.237  0.00  0.00    -0.064 C 
ATOM     27  C   UNL     1       9.309  15.049  37.031  0.00  0.00    +0.066 C 
ENDBRANCH  19  20
ENDBRANCH  18  19
ENDBRANCH  14  15
ENDBRANCH  12  13
TORSDOF 6
ENDMDL
MODEL 2
REMARK VINA RESULT:      -7.7      9.960     15.588
REMARK  Name = C:\Users\Docking\Desktop\test protocol\1iep_ligandH.pdb
REMARK  8 active torsions:
REMARK  status: ('A' for Active; 'I' for Inactive)
REMARK    1  A    between atoms: _5  and  _11
REMARK    2  A    between atoms: _19  and  _21
REMARK    3  A    between atoms: _22  and  _66
REMARK    4  A    between atoms: _27  and  _30
REMARK    5  A    between atoms: _32  and  _33
REMARK    6  A    between atoms: _38  and  _43
REMARK    7  A    between atoms: _43  and  _46
REMARK    8  A    between atoms: _53  and  _55
REMARK                            x       y       z     vdW  Elec       q    Type
REMARK                         _______ _______ _______ _____ _____    ______ ____
ROOT
ATOM     10  C   UNL     1      10.067   9.991  47.262  0.00  0.00    +0.038 A 
ATOM     11  C   UNL     1       9.744   8.619  47.100  0.00  0.00    +0.047 A 
ATOM     12  C   UNL     1      10.475   7.585  47.814  0.00  0.00    +0.035 A 
ATOM     32  C   UNL     1      11.528   7.983  48.689  0.00  0.00    +0.024 A 
ATOM     33  C   UNL     1      11.871   9.372  48.865  0.00  0.00    +0.007 A 
ATOM     34  C   UNL     1      11.155  10.397  48.160  0.00  0.00    -0.029 A 
ATOM     35  C   UNL     1      11.569  11.870  48.383  0.00  0.00    +0.045 C 
ENDROOT
BRANCH  10   9
ATOM      4  C   UNL     1       9.412  12.872  43.480  0.00  0.00    +0.077 A 
ATOM      5  C   UNL     1      10.652  12.468  42.882  0.00  0.00    +0.048 A 
ATOM      6  C   UNL     1      11.432  11.521  43.583  0.00  0.00    +0.116 A 
ATOM      7  N   UNL     1      10.995  11.023  44.792  0.00  0.00    -0.223 NA
ATOM      8  C   UNL     1       9.795  11.436  45.341  0.00  0.00    +0.220 A 
ATOM      9  N   UNL     1       9.332  10.943  46.551  0.00  0.00    -0.283 N 
ATOM     36  H   UNL     1       8.445  11.278  46.927  0.00  0.00    +0.155 HD
ATOM     37  N   UNL     1       9.032  12.340  44.692  0.00  0.00    -0.214 NA
BRANCH   4   3
ATOM      1  C   UNL     1       6.871  14.595  41.056  0.00  0.00    +0.020 A 
ATOM      2  C   UNL     1       7.765  13.606  41.613  0.00  0.00    +0.013 A 
ATOM      3  C   UNL     1       8.476  13.862  42.859  0.00  0.00    +0.019 A 
ATOM     38  C   UNL     1       8.258  15.139  43.522  0.00  0.00    +0.120 A 
ATOM     39  N   UNL     1       7.392  16.073  42.962  0.00  0.00    -0.263 NA
ATOM     40  C   UNL     1       6.704  15.838  41.762  0.00  0.00    +0.111 A 
ENDBRANCH   4   3
ENDBRANCH  10   9
BRANCH  12  13
ATOM     13  N   UNL     1      10.198   6.176  47.684  0.00  0.00    -0.281 N 
ATOM     14  C   UNL     1      10.824   5.258  46.857  0.00  0.00    +0.248 C 
ATOM     30  O   UNL     1      11.580   5.553  45.943  0.00  0.00    -0.270 OA
ATOM     31  H   UNL     1       9.449   5.811  48.272  0.00  0.00    +0.155 HD
BRANCH  14  15
ATOM     15  C   UNL     1      10.562   3.801  47.066  0.00  0.00    +0.037 A 
ATOM     16  C   UNL     1      10.756   2.831  45.985  0.00  0.00    +0.013 A 
ATOM     17  C   UNL     1      10.480   1.434  46.208  0.00  0.00    +0.005 A 
ATOM     18  C   UNL     1      10.006   0.999  47.520  0.00  0.00    -0.033 A 
ATOM     28  C   UNL     1       9.827   1.982  48.576  0.00  0.00    +0.005 A 
ATOM     29  C   UNL     1      10.096   3.352  48.360  0.00  0.00    +0.013 A 
BRANCH  18  19
ATOM     19  C   UNL     1       9.666  -0.468  47.842  0.00  0.00    +0.119 C 
BRANCH  19  20
ATOM     20  N   UNL     1       8.975  -0.742  49.137  0.00  0.00    -0.302 NA
ATOM     21  C   UNL     1       9.684  -1.831  49.948  0.00  0.00    +0.066 C 
ATOM     22  C   UNL     1       8.960  -2.088  51.309  0.00  0.00    -0.064 C 
ATOM     23  N   UNL     1       7.503  -2.472  51.045  0.00  0.00    +0.379 N 
ATOM     24  C   UNL     1       6.836  -2.771  52.321  0.00  0.00    -0.096 C 
ATOM     25  H   UNL     1       7.505  -3.406  50.437  0.00  0.00    -0.082 HD
ATOM     26  C   UNL     1       6.792  -1.396  50.237  0.00  0.00    -0.064 C 
ATOM     27  C   UNL     1       7.535  -1.127  48.899  0.00  0.00    +0.066 C 
ENDBRANCH  19  20
ENDBRANCH  18  19
ENDBRANCH  14  15
ENDBRANCH  12  13
TORSDOF 6
ENDMDL
MODEL 3
REMARK VINA RESULT:      -7.6      8.555     15.289
REMARK  Name = C:\Users\Docking\Desktop\test protocol\1iep_ligandH.pdb
REMARK  8 active torsions:
REMARK  status: ('A' for Active; 'I' for Inactive)
REMARK    1  A    between atoms: _5  and  _11
REMARK    2  A    between atoms: _19  and  _21
REMARK    3  A    between atoms: _22  and  _66
REMARK    4  A    between atoms: _27  and  _30
REMARK    5  A    between atoms: _32  and  _33
REMARK    6  A    between atoms: _38  and  _43
REMARK    7  A    between atoms: _43  and  _46
REMARK    8  A    between atoms: _53  and  _55
REMARK                            x       y       z     vdW  Elec       q    Type
REMARK                         _______ _______ _______ _____ _____    ______ ____
ROOT
ATOM     10  C   UNL     1      10.054  10.225  47.299  0.00  0.00    +0.038 A 
ATOM     11  C   UNL     1       9.788   8.847  47.091  0.00  0.00    +0.047 A 
ATOM     12  C   UNL     1      10.531   7.821  47.807  0.00  0.00    +0.035 A 
ATOM     32  C   UNL     1      11.536   8.235  48.730  0.00  0.00    +0.024 A 
ATOM     33  C   UNL     1      11.819   9.631  48.952  0.00  0.00    +0.007 A 
ATOM     34  C   UNL     1      11.092  10.647  48.247  0.00  0.00    -0.029 A 
ATOM     35  C   UNL     1      11.443  12.128  48.521  0.00  0.00    +0.045 C 
ENDROOT
BRANCH  10   9
ATOM      4  C   UNL     1       9.331  13.023  43.467  0.00  0.00    +0.077 A 
ATOM      5  C   UNL     1      10.550  12.591  42.847  0.00  0.00    +0.048 A 
ATOM      6  C   UNL     1      11.338  11.653  43.551  0.00  0.00    +0.116 A 
ATOM      7  N   UNL     1      10.928  11.188  44.782  0.00  0.00    -0.223 NA
ATOM      8  C   UNL     1       9.747  11.627  45.352  0.00  0.00    +0.220 A 
ATOM      9  N   UNL     1       9.311  11.167  46.585  0.00  0.00    -0.283 N 
ATOM     36  H   UNL     1       8.437  11.521  46.975  0.00  0.00    +0.155 HD
ATOM     37  N   UNL     1       8.977  12.524  44.701  0.00  0.00    -0.214 NA
BRANCH   4   3
ATOM      1  C   UNL     1       6.757  14.722  41.060  0.00  0.00    +0.020 A 
ATOM      2  C   UNL     1       7.655  13.736  41.617  0.00  0.00    +0.013 A 
ATOM      3  C   UNL     1       8.388  14.008  42.847  0.00  0.00    +0.019 A 
ATOM     38  C   UNL     1       8.188  15.296  43.494  0.00  0.00    +0.120 A 
ATOM     39  N   UNL     1       7.318  16.226  42.934  0.00  0.00    -0.263 NA
ATOM     40  C   UNL     1       6.608  15.976  41.750  0.00  0.00    +0.111 A 
ENDBRANCH   4   3
ENDBRANCH  10   9
BRANCH  12  13
ATOM     13  N   UNL     1      10.311   6.407  47.631  0.00  0.00    -0.281 N 
ATOM     14  C   UNL     1      10.937   5.552  46.738  0.00  0.00    +0.248 C 
ATOM     30  O   UNL     1      11.634   5.919  45.804  0.00  0.00    -0.270 OA
ATOM     31  H   UNL     1       9.608   5.985  48.238  0.00  0.00    +0.155 HD
BRANCH  14  15
ATOM     15  C   UNL     1      10.751   4.078  46.899  0.00  0.00    +0.037 A 
ATOM     16  C   UNL     1       9.878   3.532  47.941  0.00  0.00    +0.013 A 
ATOM     17  C   UNL     1       9.730   2.105  48.085  0.00  0.00    +0.005 A 
ATOM     18  C   UNL     1      10.456   1.215  47.183  0.00  0.00    -0.033 A 
ATOM     28  C   UNL     1      11.311   1.784  46.154  0.00  0.00    +0.005 A 
ATOM     29  C   UNL     1      11.460   3.182  46.011  0.00  0.00    +0.013 A 
BRANCH  18  19
ATOM     19  C   UNL     1      10.373  -0.320  47.277  0.00  0.00    +0.119 C 
BRANCH  19  20
ATOM     20  N   UNL     1      11.390  -1.108  46.518  0.00  0.00    -0.302 NA
ATOM     21  C   UNL     1      10.781  -1.812  45.302  0.00  0.00    +0.066 C 
ATOM     22  C   UNL     1      11.863  -2.613  44.507  0.00  0.00    -0.064 C 
ATOM     23  N   UNL     1      12.534  -3.623  45.439  0.00  0.00    +0.379 N 
ATOM     24  C   UNL     1      13.511  -4.417  44.680  0.00  0.00    -0.096 C 
ATOM     25  H   UNL     1      11.744  -4.319  45.807  0.00  0.00    -0.082 HD
ATOM     26  C   UNL     1      13.140  -2.931  46.652  0.00  0.00    -0.064 C 
ATOM     27  C   UNL     1      12.062  -2.115  47.418  0.00  0.00    +0.066 C 
ENDBRANCH  19  20
ENDBRANCH  18  19
ENDBRANCH  14  15
ENDBRANCH  12  13
TORSDOF 6
ENDMDL
MODEL 4
REMARK VINA RESULT:      -7.6      8.722     15.432
REMARK  Name = C:\Users\Docking\Desktop\test protocol\1iep_ligandH.pdb
REMARK  8 active torsions:
REMARK  status: ('A' for Active; 'I' for Inactive)
REMARK    1  A    between atoms: _5  and  _11
REMARK    2  A    between atoms: _19  and  _21
REMARK    3  A    between atoms: _22  and  _66
REMARK    4  A    between atoms: _27  and  _30
REMARK    5  A    between atoms: _32  and  _33
REMARK    6  A    between atoms: _38  and  _43
REMARK    7  A    between atoms: _43  and  _46
REMARK    8  A    between atoms: _53  and  _55
REMARK                            x       y       z     vdW  Elec       q    Type
REMARK                         _______ _______ _______ _____ _____    ______ ____
ROOT
ATOM     10  C   UNL     1       9.999  10.059  47.305  0.00  0.00    +0.038 A 
ATOM     11  C   UNL     1       9.704   8.686  47.111  0.00  0.00    +0.047 A 
ATOM     12  C   UNL     1      10.428   7.651  47.833  0.00  0.00    +0.035 A 
ATOM     32  C   UNL     1      11.444   8.051  48.749  0.00  0.00    +0.024 A 
ATOM     33  C   UNL     1      11.758   9.443  48.958  0.00  0.00    +0.007 A 
ATOM     34  C   UNL     1      11.049  10.468  48.246  0.00  0.00    -0.029 A 
ATOM     35  C   UNL     1      11.432  11.943  48.506  0.00  0.00    +0.045 C 
ENDROOT
BRANCH  10   9
ATOM      4  C   UNL     1       9.370  12.909  43.495  0.00  0.00    +0.077 A 
ATOM      5  C   UNL     1      10.605  12.486  42.900  0.00  0.00    +0.048 A 
ATOM      6  C   UNL     1      11.376  11.539  43.611  0.00  0.00    +0.116 A 
ATOM      7  N   UNL     1      10.935  11.058  44.825  0.00  0.00    -0.223 NA
ATOM      8  C   UNL     1       9.740  11.487  45.370  0.00  0.00    +0.220 A 
ATOM      9  N   UNL     1       9.273  11.011  46.586  0.00  0.00    -0.283 N 
ATOM     36  H   UNL     1       8.390  11.358  46.958  0.00  0.00    +0.155 HD
ATOM     37  N   UNL     1       8.986  12.392  44.712  0.00  0.00    -0.214 NA
BRANCH   4   3
ATOM      1  C   UNL     1       6.858  14.638  41.045  0.00  0.00    +0.020 A 
ATOM      2  C   UNL     1       7.743  13.646  41.611  0.00  0.00    +0.013 A 
ATOM      3  C   UNL     1       8.442  13.901  42.864  0.00  0.00    +0.019 A 
ATOM     38  C   UNL     1       8.222  15.179  43.525  0.00  0.00    +0.120 A 
ATOM     39  N   UNL     1       7.365  16.115  42.956  0.00  0.00    -0.263 NA
ATOM     40  C   UNL     1       6.688  15.882  41.749  0.00  0.00    +0.111 A 
ENDBRANCH   4   3
ENDBRANCH  10   9
BRANCH  12  13
ATOM     13  N   UNL     1      10.178   6.240  47.671  0.00  0.00    -0.281 N 
ATOM     14  C   UNL     1      10.832   5.350  46.835  0.00  0.00    +0.248 C 
ATOM     30  O   UNL     1      11.595   5.677  45.939  0.00  0.00    -0.270 OA
ATOM     31  H   UNL     1       9.427   5.850  48.241  0.00  0.00    +0.155 HD
BRANCH  14  15
ATOM     15  C   UNL     1      10.593   3.885  47.012  0.00  0.00    +0.037 A 
ATOM     16  C   UNL     1      11.027   2.917  46.002  0.00  0.00    +0.013 A 
ATOM     17  C   UNL     1      10.769   1.511  46.189  0.00  0.00    +0.005 A 
ATOM     18  C   UNL     1      10.074   1.065  47.394  0.00  0.00    -0.033 A 
ATOM     28  C   UNL     1       9.659   2.046  48.383  0.00  0.00    +0.005 A 
ATOM     29  C   UNL     1       9.909   3.425  48.202  0.00  0.00    +0.013 A 
BRANCH  18  19
ATOM     19  C   UNL     1       9.738  -0.413  47.666  0.00  0.00    +0.119 C 
BRANCH  19  20
ATOM     20  N   UNL     1      10.865  -1.309  48.061  0.00  0.00    -0.302 NA
ATOM     21  C   UNL     1      11.935  -0.567  48.866  0.00  0.00    +0.066 C 
ATOM     22  C   UNL     1      13.096  -1.524  49.290  0.00  0.00    -0.064 C 
ATOM     23  N   UNL     1      13.705  -2.165  48.041  0.00  0.00    +0.379 N 
ATOM     24  C   UNL     1      14.835  -3.022  48.432  0.00  0.00    -0.096 C 
ATOM     25  H   UNL     1      14.107  -1.345  47.403  0.00  0.00    -0.082 HD
ATOM     26  C   UNL     1      12.648  -2.904  47.233  0.00  0.00    -0.064 C 
ATOM     27  C   UNL     1      11.485  -1.950  46.843  0.00  0.00    +0.066 C 
ENDBRANCH  19  20
ENDBRANCH  18  19
ENDBRANCH  14  15
ENDBRANCH  12  13
TORSDOF 6
ENDMDL
MODEL 5
REMARK VINA RESULT:      -7.6      8.534     14.455
REMARK  Name = C:\Users\Docking\Desktop\test protocol\1iep_ligandH.pdb
REMARK  8 active torsions:
REMARK  status: ('A' for Active; 'I' for Inactive)
REMARK    1  A    between atoms: _5  and  _11
REMARK    2  A    between atoms: _19  and  _21
REMARK    3  A    between atoms: _22  and  _66
REMARK    4  A    between atoms: _27  and  _30
REMARK    5  A    between atoms: _32  and  _33
REMARK    6  A    between atoms: _38  and  _43
REMARK    7  A    between atoms: _43  and  _46
REMARK    8  A    between atoms: _53  and  _55
REMARK                            x       y       z     vdW  Elec       q    Type
REMARK                         _______ _______ _______ _____ _____    ______ ____
ROOT
ATOM     10  C   UNL     1      10.376  10.182  46.847  0.00  0.00    +0.038 A 
ATOM     11  C   UNL     1      10.465   8.768  46.783  0.00  0.00    +0.047 A 
ATOM     12  C   UNL     1      11.196   8.014  47.789  0.00  0.00    +0.035 A 
ATOM     32  C   UNL     1      11.823   8.732  48.848  0.00  0.00    +0.024 A 
ATOM     33  C   UNL     1      11.744  10.170  48.928  0.00  0.00    +0.007 A 
ATOM     34  C   UNL     1      11.026  10.919  47.937  0.00  0.00    -0.029 A 
ATOM     35  C   UNL     1      10.980  12.459  48.069  0.00  0.00    +0.045 C 
ENDROOT
BRANCH  10   9
ATOM      4  C   UNL     1      10.109  12.462  42.631  0.00  0.00    +0.077 A 
ATOM      5  C   UNL     1      11.518  12.322  42.399  0.00  0.00    +0.048 A 
ATOM      6  C   UNL     1      12.277  11.664  43.393  0.00  0.00    +0.116 A 
ATOM      7  N   UNL     1      11.662  11.184  44.529  0.00  0.00    -0.223 NA
ATOM      8  C   UNL     1      10.302  11.337  44.722  0.00  0.00    +0.220 A 
ATOM      9  N   UNL     1       9.661  10.856  45.854  0.00  0.00    -0.283 N 
ATOM     36  H   UNL     1       8.657  10.996  45.962  0.00  0.00    +0.155 HD
ATOM     37  N   UNL     1       9.555  11.964  43.789  0.00  0.00    -0.214 NA
BRANCH   4   3
ATOM      1  C   UNL     1       7.005  14.289  41.106  0.00  0.00    +0.020 A 
ATOM      2  C   UNL     1       7.871  13.651  42.071  0.00  0.00    +0.013 A 
ATOM      3  C   UNL     1       9.173  13.130  41.673  0.00  0.00    +0.019 A 
ATOM     38  C   UNL     1       9.572  13.273  40.281  0.00  0.00    +0.120 A 
ATOM     39  N   UNL     1       8.716  13.891  39.374  0.00  0.00    -0.263 NA
ATOM     40  C   UNL     1       7.461  14.394  39.745  0.00  0.00    +0.111 A 
ENDBRANCH   4   3
ENDBRANCH  10   9
BRANCH  12  13
ATOM     13  N   UNL     1      11.327   6.578  47.772  0.00  0.00    -0.281 N 
ATOM     14  C   UNL     1      10.377   5.632  48.122  0.00  0.00    +0.248 C 
ATOM     30  O   UNL     1       9.336   5.883  48.710  0.00  0.00    -0.270 OA
ATOM     31  H   UNL     1      12.229   6.215  47.464  0.00  0.00    +0.155 HD
BRANCH  14  15
ATOM     15  C   UNL     1      10.627   4.198  47.783  0.00  0.00    +0.037 A 
ATOM     16  C   UNL     1       9.689   3.147  48.185  0.00  0.00    +0.013 A 
ATOM     17  C   UNL     1       9.963   1.770  47.860  0.00  0.00    +0.005 A 
ATOM     18  C   UNL     1      11.181   1.436  47.126  0.00  0.00    -0.033 A 
ATOM     28  C   UNL     1      12.092   2.499  46.734  0.00  0.00    +0.005 A 
ATOM     29  C   UNL     1      11.827   3.850  47.052  0.00  0.00    +0.013 A 
BRANCH  18  19
ATOM     19  C   UNL     1      11.565  -0.009  46.755  0.00  0.00    +0.119 C 
BRANCH  19  20
ATOM     20  N   UNL     1      11.491  -0.387  45.312  0.00  0.00    -0.302 NA
ATOM     21  C   UNL     1      10.490   0.480  44.541  0.00  0.00    +0.066 C 
ATOM     22  C   UNL     1      10.442   0.086  43.029  0.00  0.00    -0.064 C 
ATOM     23  N   UNL     1      10.086  -1.396  42.902  0.00  0.00    +0.379 N 
ATOM     24  C   UNL     1       9.984  -1.756  41.480  0.00  0.00    -0.096 C 
ATOM     25  H   UNL     1       9.081  -1.543  43.362  0.00  0.00    -0.082 HD
ATOM     26  C   UNL     1      11.075  -2.265  43.667  0.00  0.00    -0.064 C 
ATOM     27  C   UNL     1      11.136  -1.846  45.163  0.00  0.00    +0.066 C 
ENDBRANCH  19  20
ENDBRANCH  18  19
ENDBRANCH  14  15
ENDBRANCH  12  13
TORSDOF 6
ENDMDL
