MODEL 1
REMARK VINA RESULT:      -9.1      0.000      0.000
REMARK  Name = C:\Users\Docking\Desktop\test protocol\1iep_ligandH.pdb
REMARK  8 active torsions:
REMARK  status: ('A' for Active; 'I' for Inactive)
REMARK    1  A    between atoms: _5  and  _11
REMARK    2  A    between atoms: _19  and  _21
REMARK    3  A    between atoms: _22  and  _66
REMARK    4  A    between atoms: _27  and  _30
REMARK    5  A    between atoms: _32  and  _33
REMARK    6  A    between atoms: _38  and  _43
REMARK    7  A    between atoms: _43  and  _46
REMARK    8  A    between atoms: _53  and  _55
REMARK                            x       y       z     vdW  Elec       q    Type
REMARK                         _______ _______ _______ _____ _____    ______ ____
ROOT
ATOM     10  C   UNL     1      11.538  54.398  83.746  0.00  0.00    +0.038 A 
ATOM     11  C   UNL     1      12.344  55.203  84.591  0.00  0.00    +0.047 A 
ATOM     12  C   UNL     1      11.851  55.672  85.876  0.00  0.00    +0.035 A 
ATOM     32  C   UNL     1      10.533  55.300  86.272  0.00  0.00    +0.024 A 
ATOM     33  C   UNL     1       9.701  54.482  85.425  0.00  0.00    +0.007 A 
ATOM     34  C   UNL     1      10.180  54.019  84.154  0.00  0.00    -0.029 A 
ATOM     35  C   UNL     1       9.241  53.150  83.285  0.00  0.00    +0.045 C 
ENDROOT
BRANCH  10   9
ATOM      4  C   UNL     1      12.620  55.127  79.127  0.00  0.00    +0.077 A 
ATOM      5  C   UNL     1      12.072  56.452  79.146  0.00  0.00    +0.048 A 
ATOM      6  C   UNL     1      11.515  56.906  80.363  0.00  0.00    +0.116 A 
ATOM      7  N   UNL     1      11.511  56.087  81.471  0.00  0.00    -0.223 NA
ATOM      8  C   UNL     1      12.047  54.813  81.418  0.00  0.00    +0.220 A 
ATOM      9  N   UNL     1      12.062  53.975  82.522  0.00  0.00    -0.283 N 
ATOM     36  H   UNL     1      12.460  53.040  82.440  0.00  0.00    +0.155 HD
ATOM     37  N   UNL     1      12.584  54.356  80.267  0.00  0.00    -0.214 NA
BRANCH   4   3
ATOM      1  C   UNL     1      13.202  52.982  75.908  0.00  0.00    +0.020 A 
ATOM      2  C   UNL     1      12.550  53.552  77.065  0.00  0.00    +0.013 A 
ATOM      3  C   UNL     1      13.248  54.506  77.917  0.00  0.00    +0.019 A 
ATOM     38  C   UNL     1      14.614  54.866  77.568  0.00  0.00    +0.120 A 
ATOM     39  N   UNL     1      15.216  54.300  76.449  0.00  0.00    -0.263 NA
ATOM     40  C   UNL     1      14.555  53.380  75.622  0.00  0.00    +0.111 A 
ENDBRANCH   4   3
ENDBRANCH  10   9
BRANCH  12  13
ATOM     13  N   UNL     1      12.620  56.499  86.773  0.00  0.00    -0.281 N 
ATOM     14  C   UNL     1      13.319  56.109  87.903  0.00  0.00    +0.248 C 
ATOM     30  O   UNL     1      13.213  55.015  88.438  0.00  0.00    -0.270 OA
ATOM     31  H   UNL     1      12.653  57.494  86.546  0.00  0.00    +0.155 HD
BRANCH  14  15
ATOM     15  C   UNL     1      14.262  57.078  88.540  0.00  0.00    +0.037 A 
ATOM     16  C   UNL     1      14.156  58.518  88.289  0.00  0.00    +0.013 A 
ATOM     17  C   UNL     1      15.089  59.430  88.903  0.00  0.00    +0.005 A 
ATOM     18  C   UNL     1      16.137  58.903  89.774  0.00  0.00    -0.033 A 
ATOM     28  C   UNL     1      16.216  57.471  90.009  0.00  0.00    +0.005 A 
ATOM     29  C   UNL     1      15.304  56.574  89.409  0.00  0.00    +0.013 A 
BRANCH  18  19
ATOM     19  C   UNL     1      17.189  59.800  90.453  0.00  0.00    +0.119 C 
BRANCH  19  20
ATOM     20  N   UNL     1      18.618  59.381  90.345  0.00  0.00    -0.302 NA
ATOM     21  C   UNL     1      19.516  60.142  91.323  0.00  0.00    +0.066 C 
ATOM     22  C   UNL     1      21.004  59.675  91.212  0.00  0.00    -0.064 C 
ATOM     23  N   UNL     1      21.488  59.864  89.773  0.00  0.00    +0.379 N 
ATOM     24  C   UNL     1      22.904  59.480  89.678  0.00  0.00    -0.096 C 
ATOM     25  H   UNL     1      21.415  60.950  89.532  0.00  0.00    -0.082 HD
ATOM     26  C   UNL     1      20.599  59.112  88.793  0.00  0.00    -0.064 C 
ATOM     27  C   UNL     1      19.118  59.563  88.933  0.00  0.00    +0.066 C 
ENDBRANCH  19  20
ENDBRANCH  18  19
ENDBRANCH  14  15
ENDBRANCH  12  13
TORSDOF 6
ENDMDL
MODEL 2
REMARK VINA RESULT:      -9.0      3.683     13.351
REMARK  Name = C:\Users\Docking\Desktop\test protocol\1iep_ligandH.pdb
REMARK  8 active torsions:
REMARK  status: ('A' for Active; 'I' for Inactive)
REMARK    1  A    between atoms: _5  and  _11
REMARK    2  A    between atoms: _19  and  _21
REMARK    3  A    between atoms: _22  and  _66
REMARK    4  A    between atoms: _27  and  _30
REMARK    5  A    between atoms: _32  and  _33
REMARK    6  A    between atoms: _38  and  _43
REMARK    7  A    between atoms: _43  and  _46
REMARK    8  A    between atoms: _53  and  _55
REMARK                            x       y       z     vdW  Elec       q    Type
REMARK                         _______ _______ _______ _____ _____    ______ ____
ROOT
ATOM     10  C   UNL     1      20.783  60.590  89.272  0.00  0.00    +0.038 A 
ATOM     11  C   UNL     1      19.801  59.601  89.006  0.00  0.00    +0.047 A 
ATOM     12  C   UNL     1      18.382  59.917  89.059  0.00  0.00    +0.035 A 
ATOM     32  C   UNL     1      17.999  61.250  89.385  0.00  0.00    +0.024 A 
ATOM     33  C   UNL     1      18.983  62.267  89.659  0.00  0.00    +0.007 A 
ATOM     34  C   UNL     1      20.384  61.961  89.610  0.00  0.00    -0.029 A 
ATOM     35  C   UNL     1      21.396  63.089  89.919  0.00  0.00    +0.045 C 
ENDROOT
BRANCH  10   9
ATOM      4  C   UNL     1      24.878  59.127  91.305  0.00  0.00    +0.077 A 
ATOM      5  C   UNL     1      24.288  59.099  92.612  0.00  0.00    +0.048 A 
ATOM      6  C   UNL     1      22.930  59.476  92.719  0.00  0.00    +0.116 A 
ATOM      7  N   UNL     1      22.225  59.850  91.596  0.00  0.00    -0.223 NA
ATOM      8  C   UNL     1      22.824  59.867  90.350  0.00  0.00    +0.220 A 
ATOM      9  N   UNL     1      22.132  60.231  89.206  0.00  0.00    -0.283 N 
ATOM     36  H   UNL     1      22.612  60.238  88.307  0.00  0.00    +0.155 HD
ATOM     37  N   UNL     1      24.120  59.513  90.222  0.00  0.00    -0.214 NA
BRANCH   4   3
ATOM      1  C   UNL     1      28.309  57.249  91.290  0.00  0.00    +0.020 A 
ATOM      2  C   UNL     1      26.931  57.565  91.589  0.00  0.00    +0.013 A 
ATOM      3  C   UNL     1      26.301  58.753  91.029  0.00  0.00    +0.019 A 
ATOM     38  C   UNL     1      27.099  59.608  90.162  0.00  0.00    +0.120 A 
ATOM     39  N   UNL     1      28.424  59.280  89.894  0.00  0.00    -0.263 NA
ATOM     40  C   UNL     1      29.042  58.140  90.429  0.00  0.00    +0.111 A 
ENDBRANCH   4   3
ENDBRANCH  10   9
BRANCH  12  13
ATOM     13  N   UNL     1      17.340  58.953  88.807  0.00  0.00    -0.281 N 
ATOM     14  C   UNL     1      16.581  58.257  89.734  0.00  0.00    +0.248 C 
ATOM     30  O   UNL     1      16.832  58.199  90.928  0.00  0.00    -0.270 OA
ATOM     31  H   UNL     1      17.137  58.761  87.826  0.00  0.00    +0.155 HD
BRANCH  14  15
ATOM     15  C   UNL     1      15.379  57.504  89.263  0.00  0.00    +0.037 A 
ATOM     16  C   UNL     1      15.147  56.114  89.664  0.00  0.00    +0.013 A 
ATOM     17  C   UNL     1      13.987  55.406  89.182  0.00  0.00    +0.005 A 
ATOM     18  C   UNL     1      13.050  56.088  88.294  0.00  0.00    -0.033 A 
ATOM     28  C   UNL     1      13.301  57.469  87.916  0.00  0.00    +0.005 A 
ATOM     29  C   UNL     1      14.437  58.166  88.385  0.00  0.00    +0.013 A 
BRANCH  18  19
ATOM     19  C   UNL     1      11.798  55.404  87.714  0.00  0.00    +0.119 C 
BRANCH  19  20
ATOM     20  N   UNL     1      11.991  54.514  86.531  0.00  0.00    -0.302 NA
ATOM     21  C   UNL     1      11.847  55.275  85.210  0.00  0.00    +0.066 C 
ATOM     22  C   UNL     1      12.074  54.333  83.983  0.00  0.00    -0.064 C 
ATOM     23  N   UNL     1      11.085  53.169  84.047  0.00  0.00    +0.379 N 
ATOM     24  C   UNL     1      11.257  52.313  82.864  0.00  0.00    -0.096 C 
ATOM     25  H   UNL     1      10.056  53.596  84.008  0.00  0.00    -0.082 HD
ATOM     26  C   UNL     1      11.219  52.408  85.358  0.00  0.00    -0.064 C 
ATOM     27  C   UNL     1      11.021  53.359  86.572  0.00  0.00    +0.066 C 
ENDBRANCH  19  20
ENDBRANCH  18  19
ENDBRANCH  14  15
ENDBRANCH  12  13
TORSDOF 6
ENDMDL
MODEL 3
REMARK VINA RESULT:      -8.9      4.294      8.963
REMARK  Name = C:\Users\Docking\Desktop\test protocol\1iep_ligandH.pdb
REMARK  8 active torsions:
REMARK  status: ('A' for Active; 'I' for Inactive)
REMARK    1  A    between atoms: _5  and  _11
REMARK    2  A    between atoms: _19  and  _21
REMARK    3  A    between atoms: _22  and  _66
REMARK    4  A    between atoms: _27  and  _30
REMARK    5  A    between atoms: _32  and  _33
REMARK    6  A    between atoms: _38  and  _43
REMARK    7  A    between atoms: _43  and  _46
REMARK    8  A    between atoms: _53  and  _55
REMARK                            x       y       z     vdW  Elec       q    Type
REMARK                         _______ _______ _______ _____ _____    ______ ____
ROOT
ATOM     10  C   UNL     1      16.048  59.388  88.812  0.00  0.00    +0.038 A 
ATOM     11  C   UNL     1      17.389  58.991  89.049  0.00  0.00    +0.047 A 
ATOM     12  C   UNL     1      18.242  59.730  89.966  0.00  0.00    +0.035 A 
ATOM     32  C   UNL     1      17.696  60.869  90.627  0.00  0.00    +0.024 A 
ATOM     33  C   UNL     1      16.336  61.288  90.397  0.00  0.00    +0.007 A 
ATOM     34  C   UNL     1      15.490  60.564  89.492  0.00  0.00    -0.029 A 
ATOM     35  C   UNL     1      14.042  61.062  89.278  0.00  0.00    +0.045 C 
ENDROOT
BRANCH  10   9
ATOM      4  C   UNL     1      13.378  55.555  87.710  0.00  0.00    +0.077 A 
ATOM      5  C   UNL     1      13.564  54.978  89.010  0.00  0.00    +0.048 A 
ATOM      6  C   UNL     1      14.360  55.696  89.931  0.00  0.00    +0.116 A 
ATOM      7  N   UNL     1      14.922  56.901  89.568  0.00  0.00    -0.223 NA
ATOM      8  C   UNL     1      14.724  57.428  88.305  0.00  0.00    +0.220 A 
ATOM      9  N   UNL     1      15.273  58.642  87.921  0.00  0.00    -0.283 N 
ATOM     36  H   UNL     1      15.110  58.993  86.978  0.00  0.00    +0.155 HD
ATOM     37  N   UNL     1      13.970  56.761  87.407  0.00  0.00    -0.214 NA
BRANCH   4   3
ATOM      1  C   UNL     1      11.051  53.102  85.743  0.00  0.00    +0.020 A 
ATOM      2  C   UNL     1      11.825  53.675  86.820  0.00  0.00    +0.013 A 
ATOM      3  C   UNL     1      12.561  54.918  86.629  0.00  0.00    +0.019 A 
ATOM     38  C   UNL     1      12.492  55.562  85.326  0.00  0.00    +0.120 A 
ATOM     39  N   UNL     1      11.739  54.986  84.307  0.00  0.00    -0.263 NA
ATOM     40  C   UNL     1      11.028  53.789  84.479  0.00  0.00    +0.111 A 
ENDBRANCH   4   3
ENDBRANCH  10   9
BRANCH  12  13
ATOM     13  N   UNL     1      19.613  59.379  90.240  0.00  0.00    -0.281 N 
ATOM     14  C   UNL     1      20.756  59.859  89.621  0.00  0.00    +0.248 C 
ATOM     30  O   UNL     1      20.760  60.509  88.586  0.00  0.00    -0.270 OA
ATOM     31  H   UNL     1      19.759  58.692  90.980  0.00  0.00    +0.155 HD
BRANCH  14  15
ATOM     15  C   UNL     1      22.087  59.562  90.232  0.00  0.00    +0.037 A 
ATOM     16  C   UNL     1      22.255  59.480  91.685  0.00  0.00    +0.013 A 
ATOM     17  C   UNL     1      23.554  59.209  92.248  0.00  0.00    +0.005 A 
ATOM     18  C   UNL     1      24.695  59.016  91.357  0.00  0.00    -0.033 A 
ATOM     28  C   UNL     1      24.499  59.098  89.919  0.00  0.00    +0.005 A 
ATOM     29  C   UNL     1      23.228  59.364  89.363  0.00  0.00    +0.013 A 
BRANCH  18  19
ATOM     19  C   UNL     1      26.121  58.744  91.872  0.00  0.00    +0.119 C 
BRANCH  19  20
ATOM     20  N   UNL     1      27.219  58.715  90.860  0.00  0.00    -0.302 NA
ATOM     21  C   UNL     1      28.253  57.627  91.166  0.00  0.00    +0.066 C 
ATOM     22  C   UNL     1      29.383  57.596  90.085  0.00  0.00    -0.064 C 
ATOM     23  N   UNL     1      30.049  58.971  90.007  0.00  0.00    +0.379 N 
ATOM     24  C   UNL     1      31.149  58.928  89.033  0.00  0.00    -0.096 C 
ATOM     25  H   UNL     1      30.490  59.189  91.007  0.00  0.00    -0.082 HD
ATOM     26  C   UNL     1      29.027  60.058  89.706  0.00  0.00    -0.064 C 
ATOM     27  C   UNL     1      27.894  60.061  90.770  0.00  0.00    +0.066 C 
ENDBRANCH  19  20
ENDBRANCH  18  19
ENDBRANCH  14  15
ENDBRANCH  12  13
TORSDOF 6
ENDMDL
