MODEL 1
REMARK VINA RESULT:      -8.3      0.000      0.000
REMARK  Name = C:\Users\Docking\Desktop\test protocol\1iep_ligandH.pdb
REMARK  8 active torsions:
REMARK  status: ('A' for Active; 'I' for Inactive)
REMARK    1  A    between atoms: _5  and  _11
REMARK    2  A    between atoms: _19  and  _21
REMARK    3  A    between atoms: _22  and  _66
REMARK    4  A    between atoms: _27  and  _30
REMARK    5  A    between atoms: _32  and  _33
REMARK    6  A    between atoms: _38  and  _43
REMARK    7  A    between atoms: _43  and  _46
REMARK    8  A    between atoms: _53  and  _55
REMARK                            x       y       z     vdW  Elec       q    Type
REMARK                         _______ _______ _______ _____ _____    ______ ____
ROOT
ATOM     10  C   UNL     1       4.990 -12.849   6.547  0.00  0.00    +0.038 A 
ATOM     11  C   UNL     1       4.632 -11.477   6.489  0.00  0.00    +0.047 A 
ATOM     12  C   UNL     1       5.639 -10.445   6.297  0.00  0.00    +0.035 A 
ATOM     32  C   UNL     1       7.001 -10.845   6.165  0.00  0.00    +0.024 A 
ATOM     33  C   UNL     1       7.382 -12.234   6.223  0.00  0.00    +0.007 A 
ATOM     34  C   UNL     1       6.394 -13.257   6.414  0.00  0.00    -0.029 A 
ATOM     35  C   UNL     1       6.860 -14.730   6.475  0.00  0.00    +0.045 C 
ENDROOT
BRANCH  10   9
ATOM      4  C   UNL     1       1.759 -15.976   4.868  0.00  0.00    +0.077 A 
ATOM      5  C   UNL     1       2.087 -15.673   3.504  0.00  0.00    +0.048 A 
ATOM      6  C   UNL     1       3.088 -14.702   3.278  0.00  0.00    +0.116 A 
ATOM      7  N   UNL     1       3.708 -14.085   4.343  0.00  0.00    -0.223 NA
ATOM      8  C   UNL     1       3.366 -14.399   5.646  0.00  0.00    +0.220 A 
ATOM      9  N   UNL     1       3.982 -13.798   6.733  0.00  0.00    -0.283 N 
ATOM     36  H   UNL     1       3.697 -14.052   7.678  0.00  0.00    +0.155 HD
ATOM     37  N   UNL     1       2.413 -15.323   5.889  0.00  0.00    -0.214 NA
BRANCH   4   3
ATOM      1  C   UNL     1      -1.554 -18.046   5.073  0.00  0.00    +0.020 A 
ATOM      2  C   UNL     1      -0.592 -17.055   4.649  0.00  0.00    +0.013 A 
ATOM      3  C   UNL     1       0.725 -16.982   5.269  0.00  0.00    +0.019 A 
ATOM     38  C   UNL     1       1.041 -17.935   6.322  0.00  0.00    +0.120 A 
ATOM     39  N   UNL     1       0.094 -18.878   6.710  0.00  0.00    -0.263 NA
ATOM     40  C   UNL     1      -1.178 -18.956   6.123  0.00  0.00    +0.111 A 
ENDBRANCH   4   3
ENDBRANCH  10   9
BRANCH  12  13
ATOM     13  N   UNL     1       5.337  -9.036   6.238  0.00  0.00    -0.281 N 
ATOM     14  C   UNL     1       6.076  -7.984   6.754  0.00  0.00    +0.248 C 
ATOM     30  O   UNL     1       7.008  -8.111   7.534  0.00  0.00    -0.270 OA
ATOM     31  H   UNL     1       4.473  -8.784   5.758  0.00  0.00    +0.155 HD
BRANCH  14  15
ATOM     15  C   UNL     1       5.720  -6.588   6.356  0.00  0.00    +0.037 A 
ATOM     16  C   UNL     1       6.429  -5.903   5.272  0.00  0.00    +0.013 A 
ATOM     17  C   UNL     1       6.077  -4.550   4.920  0.00  0.00    +0.005 A 
ATOM     18  C   UNL     1       5.009  -3.874   5.652  0.00  0.00    -0.033 A 
ATOM     28  C   UNL     1       4.319  -4.579   6.719  0.00  0.00    +0.005 A 
ATOM     29  C   UNL     1       4.662  -5.905   7.068  0.00  0.00    +0.013 A 
BRANCH  18  19
ATOM     19  C   UNL     1       4.581  -2.424   5.358  0.00  0.00    +0.119 C 
BRANCH  19  20
ATOM     20  N   UNL     1       4.962  -1.382   6.359  0.00  0.00    -0.302 NA
ATOM     21  C   UNL     1       3.783  -0.476   6.722  0.00  0.00    +0.066 C 
ATOM     22  C   UNL     1       4.193   0.593   7.786  0.00  0.00    -0.064 C 
ATOM     23  N   UNL     1       5.365   1.418   7.251  0.00  0.00    +0.379 N 
ATOM     24  C   UNL     1       5.716   2.462   8.225  0.00  0.00    -0.096 C 
ATOM     25  H   UNL     1       5.023   1.925   6.319  0.00  0.00    -0.082 HD
ATOM     26  C   UNL     1       6.541   0.524   6.885  0.00  0.00    -0.064 C 
ATOM     27  C   UNL     1       6.115  -0.554   5.849  0.00  0.00    +0.066 C 
ENDBRANCH  19  20
ENDBRANCH  18  19
ENDBRANCH  14  15
ENDBRANCH  12  13
TORSDOF 6
ENDMDL
MODEL 2
REMARK VINA RESULT:      -8.2      1.751      2.452
REMARK  Name = C:\Users\Docking\Desktop\test protocol\1iep_ligandH.pdb
REMARK  8 active torsions:
REMARK  status: ('A' for Active; 'I' for Inactive)
REMARK    1  A    between atoms: _5  and  _11
REMARK    2  A    between atoms: _19  and  _21
REMARK    3  A    between atoms: _22  and  _66
REMARK    4  A    between atoms: _27  and  _30
REMARK    5  A    between atoms: _32  and  _33
REMARK    6  A    between atoms: _38  and  _43
REMARK    7  A    between atoms: _43  and  _46
REMARK    8  A    between atoms: _53  and  _55
REMARK                            x       y       z     vdW  Elec       q    Type
REMARK                         _______ _______ _______ _____ _____    ______ ____
ROOT
ATOM     10  C   UNL     1       6.561 -12.615   6.924  0.00  0.00    +0.038 A 
ATOM     11  C   UNL     1       5.997 -11.369   6.549  0.00  0.00    +0.047 A 
ATOM     12  C   UNL     1       6.779 -10.144   6.600  0.00  0.00    +0.035 A 
ATOM     32  C   UNL     1       8.134 -10.224   7.035  0.00  0.00    +0.024 A 
ATOM     33  C   UNL     1       8.723 -11.483   7.421  0.00  0.00    +0.007 A 
ATOM     34  C   UNL     1       7.955 -12.694   7.376  0.00  0.00    -0.029 A 
ATOM     35  C   UNL     1       8.636 -14.014   7.807  0.00  0.00    +0.045 C 
ENDROOT
BRANCH  10   9
ATOM      4  C   UNL     1       2.833 -15.270   8.371  0.00  0.00    +0.077 A 
ATOM      5  C   UNL     1       2.456 -14.306   9.364  0.00  0.00    +0.048 A 
ATOM      6  C   UNL     1       3.252 -13.144   9.476  0.00  0.00    +0.116 A 
ATOM      7  N   UNL     1       4.341 -12.969   8.650  0.00  0.00    -0.223 NA
ATOM      8  C   UNL     1       4.678 -13.919   7.703  0.00  0.00    +0.220 A 
ATOM      9  N   UNL     1       5.764 -13.760   6.857  0.00  0.00    -0.283 N 
ATOM     36  H   UNL     1       5.984 -14.488   6.177  0.00  0.00    +0.155 HD
ATOM     37  N   UNL     1       3.935 -15.038   7.578  0.00  0.00    -0.214 NA
BRANCH   4   3
ATOM      1  C   UNL     1       1.154 -18.766   8.882  0.00  0.00    +0.020 A 
ATOM      2  C   UNL     1       1.880 -17.549   9.167  0.00  0.00    +0.013 A 
ATOM      3  C   UNL     1       2.089 -16.547   8.130  0.00  0.00    +0.019 A 
ATOM     38  C   UNL     1       1.546 -16.807   6.805  0.00  0.00    +0.120 A 
ATOM     39  N   UNL     1       0.853 -17.988   6.560  0.00  0.00    -0.263 NA
ATOM     40  C   UNL     1       0.647 -18.961   7.549  0.00  0.00    +0.111 A 
ENDBRANCH   4   3
ENDBRANCH  10   9
BRANCH  12  13
ATOM     13  N   UNL     1       6.259  -8.848   6.239  0.00  0.00    -0.281 N 
ATOM     14  C   UNL     1       5.451  -8.014   6.995  0.00  0.00    +0.248 C 
ATOM     30  O   UNL     1       4.876  -8.352   8.019  0.00  0.00    -0.270 OA
ATOM     31  H   UNL     1       6.516  -8.505   5.314  0.00  0.00    +0.155 HD
BRANCH  14  15
ATOM     15  C   UNL     1       5.241  -6.606   6.540  0.00  0.00    +0.037 A 
ATOM     16  C   UNL     1       5.943  -6.073   5.369  0.00  0.00    +0.013 A 
ATOM     17  C   UNL     1       5.734  -4.706   4.962  0.00  0.00    +0.005 A 
ATOM     18  C   UNL     1       4.818  -3.863   5.726  0.00  0.00    -0.033 A 
ATOM     28  C   UNL     1       4.130  -4.419   6.879  0.00  0.00    +0.005 A 
ATOM     29  C   UNL     1       4.333  -5.758   7.282  0.00  0.00    +0.013 A 
BRANCH  18  19
ATOM     19  C   UNL     1       4.551  -2.387   5.376  0.00  0.00    +0.119 C 
BRANCH  19  20
ATOM     20  N   UNL     1       4.974  -1.360   6.375  0.00  0.00    -0.302 NA
ATOM     21  C   UNL     1       3.837  -0.396   6.724  0.00  0.00    +0.066 C 
ATOM     22  C   UNL     1       4.291   0.658   7.786  0.00  0.00    -0.064 C 
ATOM     23  N   UNL     1       5.506   1.421   7.257  0.00  0.00    +0.379 N 
ATOM     24  C   UNL     1       5.899   2.452   8.229  0.00  0.00    -0.096 C 
ATOM     25  H   UNL     1       5.197   1.940   6.320  0.00  0.00    -0.082 HD
ATOM     26  C   UNL     1       6.640   0.469   6.905  0.00  0.00    -0.064 C 
ATOM     27  C   UNL     1       6.171  -0.591   5.871  0.00  0.00    +0.066 C 
ENDBRANCH  19  20
ENDBRANCH  18  19
ENDBRANCH  14  15
ENDBRANCH  12  13
TORSDOF 6
ENDMDL
MODEL 3
REMARK VINA RESULT:      -8.1      6.811     16.509
REMARK  Name = C:\Users\Docking\Desktop\test protocol\1iep_ligandH.pdb
REMARK  8 active torsions:
REMARK  status: ('A' for Active; 'I' for Inactive)
REMARK    1  A    between atoms: _5  and  _11
REMARK    2  A    between atoms: _19  and  _21
REMARK    3  A    between atoms: _22  and  _66
REMARK    4  A    between atoms: _27  and  _30
REMARK    5  A    between atoms: _32  and  _33
REMARK    6  A    between atoms: _38  and  _43
REMARK    7  A    between atoms: _43  and  _46
REMARK    8  A    between atoms: _53  and  _55
REMARK                            x       y       z     vdW  Elec       q    Type
REMARK                         _______ _______ _______ _____ _____    ______ ____
ROOT
ATOM     10  C   UNL     1       1.594   4.863  10.978  0.00  0.00    +0.038 A 
ATOM     11  C   UNL     1       1.918   3.750  10.160  0.00  0.00    +0.047 A 
ATOM     12  C   UNL     1       3.019   3.809   9.212  0.00  0.00    +0.035 A 
ATOM     32  C   UNL     1       3.772   5.017   9.125  0.00  0.00    +0.024 A 
ATOM     33  C   UNL     1       3.456   6.157   9.949  0.00  0.00    +0.007 A 
ATOM     34  C   UNL     1       2.369   6.106  10.884  0.00  0.00    -0.029 A 
ATOM     35  C   UNL     1       2.071   7.361  11.737  0.00  0.00    +0.045 C 
ENDROOT
BRANCH  10   9
ATOM      4  C   UNL     1      -3.100   4.844  11.983  0.00  0.00    +0.077 A 
ATOM      5  C   UNL     1      -3.453   5.105  10.617  0.00  0.00    +0.048 A 
ATOM      6  C   UNL     1      -2.397   5.245   9.689  0.00  0.00    +0.116 A 
ATOM      7  N   UNL     1      -1.089   5.129  10.106  0.00  0.00    -0.223 NA
ATOM      8  C   UNL     1      -0.783   4.879  11.431  0.00  0.00    +0.220 A 
ATOM      9  N   UNL     1       0.526   4.751  11.871  0.00  0.00    -0.283 N 
ATOM     36  H   UNL     1       0.710   4.573  12.858  0.00  0.00    +0.155 HD
ATOM     37  N   UNL     1      -1.773   4.742  12.337  0.00  0.00    -0.214 NA
BRANCH   4   3
ATOM      1  C   UNL     1      -5.676   5.565  14.836  0.00  0.00    +0.020 A 
ATOM      2  C   UNL     1      -4.712   5.789  13.784  0.00  0.00    +0.013 A 
ATOM      3  C   UNL     1      -4.103   4.668  13.080  0.00  0.00    +0.019 A 
ATOM     38  C   UNL     1      -4.494   3.321  13.469  0.00  0.00    +0.120 A 
ATOM     39  N   UNL     1      -5.424   3.136  14.487  0.00  0.00    -0.263 NA
ATOM     40  C   UNL     1      -6.016   4.207  15.172  0.00  0.00    +0.111 A 
ENDBRANCH   4   3
ENDBRANCH  10   9
BRANCH  12  13
ATOM     13  N   UNL     1       3.390   2.715   8.349  0.00  0.00    -0.281 N 
ATOM     14  C   UNL     1       4.654   2.191   8.134  0.00  0.00    +0.248 C 
ATOM     30  O   UNL     1       5.693   2.725   8.490  0.00  0.00    -0.270 OA
ATOM     31  H   UNL     1       2.628   2.273   7.835  0.00  0.00    +0.155 HD
BRANCH  14  15
ATOM     15  C   UNL     1       4.782   0.892   7.405  0.00  0.00    +0.037 A 
ATOM     16  C   UNL     1       6.075   0.435   6.890  0.00  0.00    +0.013 A 
ATOM     17  C   UNL     1       6.168  -0.814   6.175  0.00  0.00    +0.005 A 
ATOM     18  C   UNL     1       4.963  -1.614   5.972  0.00  0.00    -0.033 A 
ATOM     28  C   UNL     1       3.694  -1.139   6.499  0.00  0.00    +0.005 A 
ATOM     29  C   UNL     1       3.599   0.084   7.199  0.00  0.00    +0.013 A 
BRANCH  18  19
ATOM     19  C   UNL     1       4.965  -2.949   5.203  0.00  0.00    +0.119 C 
BRANCH  19  20
ATOM     20  N   UNL     1       5.630  -4.115   5.858  0.00  0.00    -0.302 NA
ATOM     21  C   UNL     1       6.574  -4.850   4.902  0.00  0.00    +0.066 C 
ATOM     22  C   UNL     1       7.278  -6.052   5.611  0.00  0.00    -0.064 C 
ATOM     23  N   UNL     1       6.218  -7.006   6.165  0.00  0.00    +0.379 N 
ATOM     24  C   UNL     1       6.877  -8.167   6.780  0.00  0.00    -0.096 C 
ATOM     25  H   UNL     1       5.614  -7.376   5.304  0.00  0.00    -0.082 HD
ATOM     26  C   UNL     1       5.274  -6.283   7.114  0.00  0.00    -0.064 C 
ATOM     27  C   UNL     1       4.602  -5.071   6.409  0.00  0.00    +0.066 C 
ENDBRANCH  19  20
ENDBRANCH  18  19
ENDBRANCH  14  15
ENDBRANCH  12  13
TORSDOF 6
ENDMDL
