MODEL 1
REMARK VINA RESULT:      -8.5      0.000      0.000
REMARK  Name = C:\Users\Docking\Desktop\test protocol\1iep_ligandH.pdb
REMARK  8 active torsions:
REMARK  status: ('A' for Active; 'I' for Inactive)
REMARK    1  A    between atoms: _5  and  _11
REMARK    2  A    between atoms: _19  and  _21
REMARK    3  A    between atoms: _22  and  _66
REMARK    4  A    between atoms: _27  and  _30
REMARK    5  A    between atoms: _32  and  _33
REMARK    6  A    between atoms: _38  and  _43
REMARK    7  A    between atoms: _43  and  _46
REMARK    8  A    between atoms: _53  and  _55
REMARK                            x       y       z     vdW  Elec       q    Type
REMARK                         _______ _______ _______ _____ _____    ______ ____
ROOT
ATOM     10  C   UNL     1     -16.796  46.900  44.799  0.00  0.00    +0.038 A 
ATOM     11  C   UNL     1     -17.770  47.679  44.125  0.00  0.00    +0.047 A 
ATOM     12  C   UNL     1     -18.099  47.432  42.730  0.00  0.00    +0.035 A 
ATOM     32  C   UNL     1     -17.417  46.379  42.052  0.00  0.00    +0.024 A 
ATOM     33  C   UNL     1     -16.423  45.577  42.721  0.00  0.00    +0.007 A 
ATOM     34  C   UNL     1     -16.094  45.819  44.097  0.00  0.00    -0.029 A 
ATOM     35  C   UNL     1     -15.015  44.932  44.762  0.00  0.00    +0.045 C 
ENDROOT
BRANCH  10   9
ATOM      4  C   UNL     1     -17.980  46.920  49.450  0.00  0.00    +0.077 A 
ATOM      5  C   UNL     1     -19.268  46.347  49.186  0.00  0.00    +0.048 A 
ATOM      6  C   UNL     1     -19.590  46.068  47.839  0.00  0.00    +0.116 A 
ATOM      7  N   UNL     1     -18.683  46.346  46.839  0.00  0.00    -0.223 NA
ATOM      8  C   UNL     1     -17.450  46.901  47.128  0.00  0.00    +0.220 A 
ATOM      9  N   UNL     1     -16.520  47.181  46.139  0.00  0.00    -0.283 N 
ATOM     36  H   UNL     1     -15.625  47.597  46.393  0.00  0.00    +0.155 HD
ATOM     37  N   UNL     1     -17.120  47.178  48.407  0.00  0.00    -0.214 NA
BRANCH   4   3
ATOM      1  C   UNL     1     -16.655  48.905  52.550  0.00  0.00    +0.020 A 
ATOM      2  C   UNL     1     -17.120  48.623  51.211  0.00  0.00    +0.013 A 
ATOM      3  C   UNL     1     -17.493  47.268  50.823  0.00  0.00    +0.019 A 
ATOM     38  C   UNL     1     -17.384  46.215  51.820  0.00  0.00    +0.120 A 
ATOM     39  N   UNL     1     -16.932  46.516  53.101  0.00  0.00    -0.263 NA
ATOM     40  C   UNL     1     -16.569  47.816  53.486  0.00  0.00    +0.111 A 
ENDBRANCH   4   3
ENDBRANCH  10   9
BRANCH  12  13
ATOM     13  N   UNL     1     -19.073  48.196  41.991  0.00  0.00    -0.281 N 
ATOM     14  C   UNL     1     -20.431  47.952  41.867  0.00  0.00    +0.248 C 
ATOM     30  O   UNL     1     -20.979  46.912  42.200  0.00  0.00    -0.270 OA
ATOM     31  H   UNL     1     -18.719  49.017  41.500  0.00  0.00    +0.155 HD
BRANCH  14  15
ATOM     15  C   UNL     1     -21.304  49.010  41.273  0.00  0.00    +0.037 A 
ATOM     16  C   UNL     1     -20.851  50.400  41.172  0.00  0.00    +0.013 A 
ATOM     17  C   UNL     1     -21.720  51.404  40.611  0.00  0.00    +0.005 A 
ATOM     18  C   UNL     1     -23.050  51.021  40.145  0.00  0.00    -0.033 A 
ATOM     28  C   UNL     1     -23.472  49.634  40.253  0.00  0.00    +0.005 A 
ATOM     29  C   UNL     1     -22.624  48.647  40.803  0.00  0.00    +0.013 A 
BRANCH  18  19
ATOM     19  C   UNL     1     -24.051  52.030  39.552  0.00  0.00    +0.119 C 
BRANCH  19  20
ATOM     20  N   UNL     1     -24.768  51.630  38.305  0.00  0.00    -0.302 NA
ATOM     21  C   UNL     1     -24.382  52.511  37.113  0.00  0.00    +0.066 C 
ATOM     22  C   UNL     1     -25.124  52.064  35.811  0.00  0.00    -0.064 C 
ATOM     23  N   UNL     1     -26.634  52.105  36.048  0.00  0.00    +0.379 N 
ATOM     24  C   UNL     1     -27.336  51.742  34.809  0.00  0.00    -0.096 C 
ATOM     25  H   UNL     1     -26.908  53.157  36.296  0.00  0.00    -0.082 HD
ATOM     26  C   UNL     1     -27.026  51.234  37.233  0.00  0.00    -0.064 C 
ATOM     27  C   UNL     1     -26.262  51.668  38.515  0.00  0.00    +0.066 C 
ENDBRANCH  19  20
ENDBRANCH  18  19
ENDBRANCH  14  15
ENDBRANCH  12  13
TORSDOF 6
ENDMDL
MODEL 2
REMARK VINA RESULT:      -8.2     22.199     24.632
REMARK  Name = C:\Users\Docking\Desktop\test protocol\1iep_ligandH.pdb
REMARK  8 active torsions:
REMARK  status: ('A' for Active; 'I' for Inactive)
REMARK    1  A    between atoms: _5  and  _11
REMARK    2  A    between atoms: _19  and  _21
REMARK    3  A    between atoms: _22  and  _66
REMARK    4  A    between atoms: _27  and  _30
REMARK    5  A    between atoms: _32  and  _33
REMARK    6  A    between atoms: _38  and  _43
REMARK    7  A    between atoms: _43  and  _46
REMARK    8  A    between atoms: _53  and  _55
REMARK                            x       y       z     vdW  Elec       q    Type
REMARK                         _______ _______ _______ _____ _____    ______ ____
ROOT
ATOM     10  C   UNL     1      -4.873  58.814  37.927  0.00  0.00    +0.038 A 
ATOM     11  C   UNL     1      -4.245  59.925  38.544  0.00  0.00    +0.047 A 
ATOM     12  C   UNL     1      -4.984  61.145  38.829  0.00  0.00    +0.035 A 
ATOM     32  C   UNL     1      -6.363  61.198  38.475  0.00  0.00    +0.024 A 
ATOM     33  C   UNL     1      -7.018  60.077  37.846  0.00  0.00    +0.007 A 
ATOM     34  C   UNL     1      -6.293  58.872  37.560  0.00  0.00    -0.029 A 
ATOM     35  C   UNL     1      -7.045  57.705  36.879  0.00  0.00    +0.045 C 
ENDROOT
BRANCH  10   9
ATOM      4  C   UNL     1      -1.442  56.444  35.550  0.00  0.00    +0.077 A 
ATOM      5  C   UNL     1      -1.152  57.578  34.720  0.00  0.00    +0.048 A 
ATOM      6  C   UNL     1      -1.913  58.749  34.932  0.00  0.00    +0.116 A 
ATOM      7  N   UNL     1      -2.889  58.774  35.904  0.00  0.00    -0.223 NA
ATOM      8  C   UNL     1      -3.144  57.662  36.687  0.00  0.00    +0.220 A 
ATOM      9  N   UNL     1      -4.116  57.668  37.676  0.00  0.00    -0.283 N 
ATOM     36  H   UNL     1      -4.279  56.825  38.227  0.00  0.00    +0.155 HD
ATOM     37  N   UNL     1      -2.432  56.531  36.503  0.00  0.00    -0.214 NA
BRANCH   4   3
ATOM      1  C   UNL     1      -0.085  53.021  34.230  0.00  0.00    +0.020 A 
ATOM      2  C   UNL     1      -0.802  54.275  34.277  0.00  0.00    +0.013 A 
ATOM      3  C   UNL     1      -0.721  55.136  35.450  0.00  0.00    +0.019 A 
ATOM     38  C   UNL     1       0.101  54.696  36.567  0.00  0.00    +0.120 A 
ATOM     39  N   UNL     1       0.778  53.483  36.495  0.00  0.00    -0.263 NA
ATOM     40  C   UNL     1       0.707  52.645  35.371  0.00  0.00    +0.111 A 
ENDBRANCH   4   3
ENDBRANCH  10   9
BRANCH  12  13
ATOM     13  N   UNL     1      -4.397  62.309  39.447  0.00  0.00    -0.281 N 
ATOM     14  C   UNL     1      -3.656  62.370  40.616  0.00  0.00    +0.248 C 
ATOM     30  O   UNL     1      -3.566  61.459  41.425  0.00  0.00    -0.270 OA
ATOM     31  H   UNL     1      -4.546  63.194  38.963  0.00  0.00    +0.155 HD
BRANCH  14  15
ATOM     15  C   UNL     1      -2.921  63.631  40.939  0.00  0.00    +0.037 A 
ATOM     16  C   UNL     1      -3.437  64.939  40.527  0.00  0.00    +0.013 A 
ATOM     17  C   UNL     1      -2.699  66.137  40.837  0.00  0.00    +0.005 A 
ATOM     18  C   UNL     1      -1.436  66.033  41.565  0.00  0.00    -0.033 A 
ATOM     28  C   UNL     1      -0.950  64.724  41.965  0.00  0.00    +0.005 A 
ATOM     29  C   UNL     1      -1.670  63.546  41.663  0.00  0.00    +0.013 A 
BRANCH  18  19
ATOM     19  C   UNL     1      -0.572  67.258  41.919  0.00  0.00    +0.119 C 
BRANCH  19  20
ATOM     20  N   UNL     1       0.139  67.941  40.798  0.00  0.00    -0.302 NA
ATOM     21  C   UNL     1      -0.731  69.012  40.134  0.00  0.00    +0.066 C 
ATOM     22  C   UNL     1       0.036  69.732  38.977  0.00  0.00    -0.064 C 
ATOM     23  N   UNL     1       0.496  68.695  37.951  0.00  0.00    +0.379 N 
ATOM     24  C   UNL     1       1.167  69.375  36.834  0.00  0.00    -0.096 C 
ATOM     25  H   UNL     1      -0.414  68.195  37.546  0.00  0.00    -0.082 HD
ATOM     26  C   UNL     1       1.360  67.625  38.604  0.00  0.00    -0.064 C 
ATOM     27  C   UNL     1       0.598  66.936  39.770  0.00  0.00    +0.066 C 
ENDBRANCH  19  20
ENDBRANCH  18  19
ENDBRANCH  14  15
ENDBRANCH  12  13
TORSDOF 6
ENDMDL
MODEL 3
REMARK VINA RESULT:      -8.2     21.642     24.055
REMARK  Name = C:\Users\Docking\Desktop\test protocol\1iep_ligandH.pdb
REMARK  8 active torsions:
REMARK  status: ('A' for Active; 'I' for Inactive)
REMARK    1  A    between atoms: _5  and  _11
REMARK    2  A    between atoms: _19  and  _21
REMARK    3  A    between atoms: _22  and  _66
REMARK    4  A    between atoms: _27  and  _30
REMARK    5  A    between atoms: _32  and  _33
REMARK    6  A    between atoms: _38  and  _43
REMARK    7  A    between atoms: _43  and  _46
REMARK    8  A    between atoms: _53  and  _55
REMARK                            x       y       z     vdW  Elec       q    Type
REMARK                         _______ _______ _______ _____ _____    ______ ____
ROOT
ATOM     10  C   UNL     1      -4.838  58.821  37.990  0.00  0.00    +0.038 A 
ATOM     11  C   UNL     1      -4.253  59.932  38.650  0.00  0.00    +0.047 A 
ATOM     12  C   UNL     1      -5.018  61.141  38.910  0.00  0.00    +0.035 A 
ATOM     32  C   UNL     1      -6.378  61.184  38.487  0.00  0.00    +0.024 A 
ATOM     33  C   UNL     1      -6.989  60.065  37.814  0.00  0.00    +0.007 A 
ATOM     34  C   UNL     1      -6.238  58.870  37.552  0.00  0.00    -0.029 A 
ATOM     35  C   UNL     1      -6.942  57.703  36.821  0.00  0.00    +0.045 C 
ENDROOT
BRANCH  10   9
ATOM      4  C   UNL     1      -1.407  56.444  35.620  0.00  0.00    +0.077 A 
ATOM      5  C   UNL     1      -1.169  57.549  34.737  0.00  0.00    +0.048 A 
ATOM      6  C   UNL     1      -1.956  58.708  34.921  0.00  0.00    +0.116 A 
ATOM      7  N   UNL     1      -2.906  58.748  35.918  0.00  0.00    -0.223 NA
ATOM      8  C   UNL     1      -3.112  57.664  36.751  0.00  0.00    +0.220 A 
ATOM      9  N   UNL     1      -4.057  57.685  37.765  0.00  0.00    -0.283 N 
ATOM     36  H   UNL     1      -4.183  56.862  38.354  0.00  0.00    +0.155 HD
ATOM     37  N   UNL     1      -2.375  56.545  36.595  0.00  0.00    -0.214 NA
BRANCH   4   3
ATOM      1  C   UNL     1       0.080  53.050  34.365  0.00  0.00    +0.020 A 
ATOM      2  C   UNL     1      -0.665  54.288  34.378  0.00  0.00    +0.013 A 
ATOM      3  C   UNL     1      -0.655  55.151  35.553  0.00  0.00    +0.019 A 
ATOM     38  C   UNL     1       0.126  54.729  36.706  0.00  0.00    +0.120 A 
ATOM     39  N   UNL     1       0.831  53.531  36.665  0.00  0.00    -0.263 NA
ATOM     40  C   UNL     1       0.828  52.692  35.541  0.00  0.00    +0.111 A 
ENDBRANCH   4   3
ENDBRANCH  10   9
BRANCH  12  13
ATOM     13  N   UNL     1      -4.475  62.303  39.569  0.00  0.00    -0.281 N 
ATOM     14  C   UNL     1      -3.699  62.347  40.716  0.00  0.00    +0.248 C 
ATOM     30  O   UNL     1      -3.531  61.403  41.473  0.00  0.00    -0.270 OA
ATOM     31  H   UNL     1      -4.688  63.202  39.137  0.00  0.00    +0.155 HD
BRANCH  14  15
ATOM     15  C   UNL     1      -3.023  63.629  41.081  0.00  0.00    +0.037 A 
ATOM     16  C   UNL     1      -2.148  63.720  42.253  0.00  0.00    +0.013 A 
ATOM     17  C   UNL     1      -1.522  64.973  42.593  0.00  0.00    +0.005 A 
ATOM     18  C   UNL     1      -1.768  66.146  41.757  0.00  0.00    -0.033 A 
ATOM     28  C   UNL     1      -2.636  66.027  40.598  0.00  0.00    +0.005 A 
ATOM     29  C   UNL     1      -3.252  64.801  40.262  0.00  0.00    +0.013 A 
BRANCH  18  19
ATOM     19  C   UNL     1      -1.159  67.529  42.057  0.00  0.00    +0.119 C 
BRANCH  19  20
ATOM     20  N   UNL     1      -2.100  68.621  42.447  0.00  0.00    -0.302 NA
ATOM     21  C   UNL     1      -3.268  68.099  43.289  0.00  0.00    +0.066 C 
ATOM     22  C   UNL     1      -4.230  69.258  43.707  0.00  0.00    -0.064 C 
ATOM     23  N   UNL     1      -4.741  69.970  42.454  0.00  0.00    +0.379 N 
ATOM     24  C   UNL     1      -5.691  71.023  42.841  0.00  0.00    -0.096 C 
ATOM     25  H   UNL     1      -5.296  69.222  41.842  0.00  0.00    -0.082 HD
ATOM     26  C   UNL     1      -3.586  70.490  41.610  0.00  0.00    -0.064 C 
ATOM     27  C   UNL     1      -2.620  69.335  41.225  0.00  0.00    +0.066 C 
ENDBRANCH  19  20
ENDBRANCH  18  19
ENDBRANCH  14  15
ENDBRANCH  12  13
TORSDOF 6
ENDMDL
