MODEL 1
REMARK VINA RESULT:      -8.7      0.000      0.000
REMARK  Name = C:\Users\Docking\Desktop\test protocol\1iep_ligandH.pdb
REMARK  8 active torsions:
REMARK  status: ('A' for Active; 'I' for Inactive)
REMARK    1  A    between atoms: _5  and  _11
REMARK    2  A    between atoms: _19  and  _21
REMARK    3  A    between atoms: _22  and  _66
REMARK    4  A    between atoms: _27  and  _30
REMARK    5  A    between atoms: _32  and  _33
REMARK    6  A    between atoms: _38  and  _43
REMARK    7  A    between atoms: _43  and  _46
REMARK    8  A    between atoms: _53  and  _55
REMARK                            x       y       z     vdW  Elec       q    Type
REMARK                         _______ _______ _______ _____ _____    ______ ____
ROOT
ATOM     10  C   UNL     1       0.208  50.857  14.970  0.00  0.00    +0.038 A 
ATOM     11  C   UNL     1      -1.073  51.462  15.030  0.00  0.00    +0.047 A 
ATOM     12  C   UNL     1      -2.220  50.743  15.562  0.00  0.00    +0.035 A 
ATOM     32  C   UNL     1      -2.026  49.410  16.026  0.00  0.00    +0.024 A 
ATOM     33  C   UNL     1      -0.731  48.779  15.972  0.00  0.00    +0.007 A 
ATOM     34  C   UNL     1       0.404  49.482  15.446  0.00  0.00    -0.029 A 
ATOM     35  C   UNL     1       1.768  48.754  15.406  0.00  0.00    +0.045 C 
ENDROOT
BRANCH  10   9
ATOM      4  C   UNL     1       3.225  52.007  11.418  0.00  0.00    +0.077 A 
ATOM      5  C   UNL     1       2.644  51.039  10.532  0.00  0.00    +0.048 A 
ATOM      6  C   UNL     1       1.575  50.261  11.031  0.00  0.00    +0.116 A 
ATOM      7  N   UNL     1       1.129  50.445  12.322  0.00  0.00    -0.223 NA
ATOM      8  C   UNL     1       1.713  51.386  13.151  0.00  0.00    +0.220 A 
ATOM      9  N   UNL     1       1.275  51.593  14.450  0.00  0.00    -0.283 N 
ATOM     36  H   UNL     1       1.737  52.291  15.032  0.00  0.00    +0.155 HD
ATOM     37  N   UNL     1       2.736  52.140  12.698  0.00  0.00    -0.214 NA
BRANCH   4   3
ATOM      1  C   UNL     1       6.809  53.384  10.670  0.00  0.00    +0.020 A 
ATOM      2  C   UNL     1       5.751  52.476  11.049  0.00  0.00    +0.013 A 
ATOM      3  C   UNL     1       4.359  52.906  11.036  0.00  0.00    +0.019 A 
ATOM     38  C   UNL     1       4.068  54.273  10.631  0.00  0.00    +0.120 A 
ATOM     39  N   UNL     1       5.107  55.126  10.273  0.00  0.00    -0.263 NA
ATOM     40  C   UNL     1       6.451  54.723  10.283  0.00  0.00    +0.111 A 
ENDBRANCH   4   3
ENDBRANCH  10   9
BRANCH  12  13
ATOM     13  N   UNL     1      -3.547  51.303  15.640  0.00  0.00    -0.281 N 
ATOM     14  C   UNL     1      -4.026  52.233  16.548  0.00  0.00    +0.248 C 
ATOM     30  O   UNL     1      -3.442  52.568  17.568  0.00  0.00    -0.270 OA
ATOM     31  H   UNL     1      -4.214  50.973  14.942  0.00  0.00    +0.155 HD
BRANCH  14  15
ATOM     15  C   UNL     1      -5.352  52.874  16.293  0.00  0.00    +0.037 A 
ATOM     16  C   UNL     1      -6.485  52.662  17.197  0.00  0.00    +0.013 A 
ATOM     17  C   UNL     1      -7.758  53.278  16.918  0.00  0.00    +0.005 A 
ATOM     18  C   UNL     1      -7.904  54.114  15.729  0.00  0.00    -0.033 A 
ATOM     28  C   UNL     1      -6.762  54.312  14.852  0.00  0.00    +0.005 A 
ATOM     29  C   UNL     1      -5.513  53.709  15.122  0.00  0.00    +0.013 A 
BRANCH  18  19
ATOM     19  C   UNL     1      -9.231  54.794  15.343  0.00  0.00    +0.119 C 
BRANCH  19  20
ATOM     20  N   UNL     1      -9.705  55.913  16.210  0.00  0.00    -0.302 NA
ATOM     21  C   UNL     1     -11.218  55.864  16.436  0.00  0.00    +0.066 C 
ATOM     22  C   UNL     1     -11.693  57.029  17.364  0.00  0.00    -0.064 C 
ATOM     23  N   UNL     1     -11.280  58.368  16.750  0.00  0.00    +0.379 N 
ATOM     24  C   UNL     1     -11.776  59.467  17.591  0.00  0.00    -0.096 C 
ATOM     25  H   UNL     1     -11.778  58.451  15.756  0.00  0.00    -0.082 HD
ATOM     26  C   UNL     1      -9.777  58.424  16.520  0.00  0.00    -0.064 C 
ATOM     27  C   UNL     1      -9.311  57.245  15.620  0.00  0.00    +0.066 C 
ENDBRANCH  19  20
ENDBRANCH  18  19
ENDBRANCH  14  15
ENDBRANCH  12  13
TORSDOF 6
ENDMDL
MODEL 2
REMARK VINA RESULT:      -8.7      6.315     16.392
REMARK  Name = C:\Users\Docking\Desktop\test protocol\1iep_ligandH.pdb
REMARK  8 active torsions:
REMARK  status: ('A' for Active; 'I' for Inactive)
REMARK    1  A    between atoms: _5  and  _11
REMARK    2  A    between atoms: _19  and  _21
REMARK    3  A    between atoms: _22  and  _66
REMARK    4  A    between atoms: _27  and  _30
REMARK    5  A    between atoms: _32  and  _33
REMARK    6  A    between atoms: _38  and  _43
REMARK    7  A    between atoms: _43  and  _46
REMARK    8  A    between atoms: _53  and  _55
REMARK                            x       y       z     vdW  Elec       q    Type
REMARK                         _______ _______ _______ _____ _____    ______ ____
ROOT
ATOM     10  C   UNL     1       4.085  51.839  12.091  0.00  0.00    +0.038 A 
ATOM     11  C   UNL     1       4.609  51.079  11.013  0.00  0.00    +0.047 A 
ATOM     12  C   UNL     1       6.039  51.032  10.751  0.00  0.00    +0.035 A 
ATOM     32  C   UNL     1       6.908  51.770  11.607  0.00  0.00    +0.024 A 
ATOM     33  C   UNL     1       6.392  52.548  12.706  0.00  0.00    +0.007 A 
ATOM     34  C   UNL     1       4.982  52.600  12.968  0.00  0.00    -0.029 A 
ATOM     35  C   UNL     1       4.485  53.456  14.156  0.00  0.00    +0.045 C 
ENDROOT
BRANCH  10   9
ATOM      4  C   UNL     1       0.113  50.187  14.219  0.00  0.00    +0.077 A 
ATOM      5  C   UNL     1       0.849  49.206  14.963  0.00  0.00    +0.048 A 
ATOM      6  C   UNL     1       2.247  49.154  14.764  0.00  0.00    +0.116 A 
ATOM      7  N   UNL     1       2.853  50.024  13.884  0.00  0.00    -0.223 NA
ATOM      8  C   UNL     1       2.114  50.957  13.181  0.00  0.00    +0.220 A 
ATOM      9  N   UNL     1       2.704  51.848  12.297  0.00  0.00    -0.283 N 
ATOM     36  H   UNL     1       2.123  52.516  11.792  0.00  0.00    +0.155 HD
ATOM     37  N   UNL     1       0.777  51.026  13.353  0.00  0.00    -0.214 NA
BRANCH   4   3
ATOM      1  C   UNL     1      -3.746  49.631  13.910  0.00  0.00    +0.020 A 
ATOM      2  C   UNL     1      -2.324  49.409  13.782  0.00  0.00    +0.013 A 
ATOM      3  C   UNL     1      -1.369  50.368  14.324  0.00  0.00    +0.019 A 
ATOM     38  C   UNL     1      -1.890  51.549  14.995  0.00  0.00    +0.120 A 
ATOM     39  N   UNL     1      -3.265  51.737  15.102  0.00  0.00    -0.263 NA
ATOM     40  C   UNL     1      -4.193  50.822  14.583  0.00  0.00    +0.111 A 
ENDBRANCH   4   3
ENDBRANCH  10   9
BRANCH  12  13
ATOM     13  N   UNL     1       6.628  50.285   9.667  0.00  0.00    -0.281 N 
ATOM     14  C   UNL     1       6.489  50.505   8.306  0.00  0.00    +0.248 C 
ATOM     30  O   UNL     1       5.661  51.253   7.808  0.00  0.00    -0.270 OA
ATOM     31  H   UNL     1       7.219  49.498   9.936  0.00  0.00    +0.155 HD
BRANCH  14  15
ATOM     15  C   UNL     1       7.391  49.779   7.362  0.00  0.00    +0.037 A 
ATOM     16  C   UNL     1       7.351  48.319   7.243  0.00  0.00    +0.013 A 
ATOM     17  C   UNL     1       8.244  47.643   6.337  0.00  0.00    +0.005 A 
ATOM     18  C   UNL     1       9.185  48.426   5.540  0.00  0.00    -0.033 A 
ATOM     28  C   UNL     1       9.200  49.874   5.673  0.00  0.00    +0.005 A 
ATOM     29  C   UNL     1       8.327  50.540   6.562  0.00  0.00    +0.013 A 
BRANCH  18  19
ATOM     19  C   UNL     1      10.189  47.786   4.563  0.00  0.00    +0.119 C 
BRANCH  19  20
ATOM     20  N   UNL     1      11.608  47.677   5.014  0.00  0.00    -0.302 NA
ATOM     21  C   UNL     1      12.390  48.971   4.770  0.00  0.00    +0.066 C 
ATOM     22  C   UNL     1      13.866  48.847   5.270  0.00  0.00    -0.064 C 
ATOM     23  N   UNL     1      14.541  47.667   4.569  0.00  0.00    +0.379 N 
ATOM     24  C   UNL     1      15.946  47.583   4.993  0.00  0.00    -0.096 C 
ATOM     25  H   UNL     1      14.529  47.873   3.473  0.00  0.00    -0.082 HD
ATOM     26  C   UNL     1      13.769  46.377   4.804  0.00  0.00    -0.064 C 
ATOM     27  C   UNL     1      12.295  46.520   4.332  0.00  0.00    +0.066 C 
ENDBRANCH  19  20
ENDBRANCH  18  19
ENDBRANCH  14  15
ENDBRANCH  12  13
TORSDOF 6
ENDMDL
MODEL 3
REMARK VINA RESULT:      -8.7      7.635     12.406
REMARK  Name = C:\Users\Docking\Desktop\test protocol\1iep_ligandH.pdb
REMARK  8 active torsions:
REMARK  status: ('A' for Active; 'I' for Inactive)
REMARK    1  A    between atoms: _5  and  _11
REMARK    2  A    between atoms: _19  and  _21
REMARK    3  A    between atoms: _22  and  _66
REMARK    4  A    between atoms: _27  and  _30
REMARK    5  A    between atoms: _32  and  _33
REMARK    6  A    between atoms: _38  and  _43
REMARK    7  A    between atoms: _43  and  _46
REMARK    8  A    between atoms: _53  and  _55
REMARK                            x       y       z     vdW  Elec       q    Type
REMARK                         _______ _______ _______ _____ _____    ______ ____
ROOT
ATOM     10  C   UNL     1      -5.261  48.687   7.859  0.00  0.00    +0.038 A 
ATOM     11  C   UNL     1      -4.063  49.189   8.429  0.00  0.00    +0.047 A 
ATOM     12  C   UNL     1      -3.698  48.883   9.803  0.00  0.00    +0.035 A 
ATOM     32  C   UNL     1      -4.575  48.060  10.568  0.00  0.00    +0.024 A 
ATOM     33  C   UNL     1      -5.797  47.542  10.005  0.00  0.00    +0.007 A 
ATOM     34  C   UNL     1      -6.164  47.843   8.651  0.00  0.00    -0.029 A 
ATOM     35  C   UNL     1      -7.489  47.266   8.101  0.00  0.00    +0.045 C 
ENDROOT
BRANCH  10   9
ATOM      4  C   UNL     1      -6.854  51.727   4.504  0.00  0.00    +0.077 A 
ATOM      5  C   UNL     1      -7.135  52.745   5.476  0.00  0.00    +0.048 A 
ATOM      6  C   UNL     1      -6.863  52.443   6.829  0.00  0.00    +0.116 A 
ATOM      7  N   UNL     1      -6.346  51.213   7.173  0.00  0.00    -0.223 NA
ATOM      8  C   UNL     1      -6.088  50.253   6.211  0.00  0.00    +0.220 A 
ATOM      9  N   UNL     1      -5.562  49.012   6.534  0.00  0.00    -0.283 N 
ATOM     36  H   UNL     1      -5.393  48.329   5.797  0.00  0.00    +0.155 HD
ATOM     37  N   UNL     1      -6.342  50.516   4.913  0.00  0.00    -0.214 NA
BRANCH   4   3
ATOM      1  C   UNL     1      -6.539  51.430   0.617  0.00  0.00    +0.020 A 
ATOM      2  C   UNL     1      -6.273  51.233   2.023  0.00  0.00    +0.013 A 
ATOM      3  C   UNL     1      -7.086  51.896   3.035  0.00  0.00    +0.019 A 
ATOM     38  C   UNL     1      -8.169  52.758   2.586  0.00  0.00    +0.120 A 
ATOM     39  N   UNL     1      -8.400  52.930   1.225  0.00  0.00    -0.263 NA
ATOM     40  C   UNL     1      -7.624  52.298   0.242  0.00  0.00    +0.111 A 
ENDBRANCH   4   3
ENDBRANCH  10   9
BRANCH  12  13
ATOM     13  N   UNL     1      -2.499  49.371  10.439  0.00  0.00    -0.281 N 
ATOM     14  C   UNL     1      -2.089  49.177  11.748  0.00  0.00    +0.248 C 
ATOM     30  O   UNL     1      -2.800  48.730  12.635  0.00  0.00    -0.270 OA
ATOM     31  H   UNL     1      -1.877  49.927   9.852  0.00  0.00    +0.155 HD
BRANCH  14  15
ATOM     15  C   UNL     1      -0.692  49.545  12.129  0.00  0.00    +0.037 A 
ATOM     16  C   UNL     1      -0.414  50.320  13.341  0.00  0.00    +0.013 A 
ATOM     17  C   UNL     1       0.942  50.677  13.677  0.00  0.00    +0.005 A 
ATOM     18  C   UNL     1       2.031  50.257  12.798  0.00  0.00    -0.033 A 
ATOM     28  C   UNL     1       1.728  49.485  11.605  0.00  0.00    +0.005 A 
ATOM     29  C   UNL     1       0.400  49.134  11.272  0.00  0.00    +0.013 A 
BRANCH  18  19
ATOM     19  C   UNL     1       3.506  50.611  13.067  0.00  0.00    +0.119 C 
BRANCH  19  20
ATOM     20  N   UNL     1       4.163  51.563  12.123  0.00  0.00    -0.302 NA
ATOM     21  C   UNL     1       5.604  51.878  12.536  0.00  0.00    +0.066 C 
ATOM     22  C   UNL     1       6.284  52.858  11.525  0.00  0.00    -0.064 C 
ATOM     23  N   UNL     1       5.456  54.140  11.425  0.00  0.00    +0.379 N 
ATOM     24  C   UNL     1       6.124  55.086  10.520  0.00  0.00    -0.096 C 
ATOM     25  H   UNL     1       5.428  54.604  12.439  0.00  0.00    -0.082 HD
ATOM     26  C   UNL     1       4.022  53.835  11.018  0.00  0.00    -0.064 C 
ATOM     27  C   UNL     1       3.364  52.838  12.012  0.00  0.00    +0.066 C 
ENDBRANCH  19  20
ENDBRANCH  18  19
ENDBRANCH  14  15
ENDBRANCH  12  13
TORSDOF 6
ENDMDL
MODEL 4
REMARK VINA RESULT:      -8.6      3.260     13.460
REMARK  Name = C:\Users\Docking\Desktop\test protocol\1iep_ligandH.pdb
REMARK  8 active torsions:
REMARK  status: ('A' for Active; 'I' for Inactive)
REMARK    1  A    between atoms: _5  and  _11
REMARK    2  A    between atoms: _19  and  _21
REMARK    3  A    between atoms: _22  and  _66
REMARK    4  A    between atoms: _27  and  _30
REMARK    5  A    between atoms: _32  and  _33
REMARK    6  A    between atoms: _38  and  _43
REMARK    7  A    between atoms: _43  and  _46
REMARK    8  A    between atoms: _53  and  _55
REMARK                            x       y       z     vdW  Elec       q    Type
REMARK                         _______ _______ _______ _____ _____    ______ ____
ROOT
ATOM     10  C   UNL     1      -1.800  49.470  15.336  0.00  0.00    +0.038 A 
ATOM     11  C   UNL     1      -0.850  49.882  14.367  0.00  0.00    +0.047 A 
ATOM     12  C   UNL     1       0.501  49.343  14.362  0.00  0.00    +0.035 A 
ATOM     32  C   UNL     1       0.850  48.385  15.358  0.00  0.00    +0.024 A 
ATOM     33  C   UNL     1      -0.103  47.956  16.351  0.00  0.00    +0.007 A 
ATOM     34  C   UNL     1      -1.437  48.485  16.362  0.00  0.00    -0.029 A 
ATOM     35  C   UNL     1      -2.415  47.994  17.454  0.00  0.00    +0.045 C 
ENDROOT
BRANCH  10   9
ATOM      4  C   UNL     1      -5.098  52.637  16.795  0.00  0.00    +0.077 A 
ATOM      5  C   UNL     1      -4.197  53.230  17.741  0.00  0.00    +0.048 A 
ATOM      6  C   UNL     1      -2.895  52.686  17.825  0.00  0.00    +0.116 A 
ATOM      7  N   UNL     1      -2.534  51.628  17.020  0.00  0.00    -0.223 NA
ATOM      8  C   UNL     1      -3.428  51.079  16.120  0.00  0.00    +0.220 A 
ATOM      9  N   UNL     1      -3.084  50.020  15.294  0.00  0.00    -0.283 N 
ATOM     36  H   UNL     1      -3.775  49.638  14.649  0.00  0.00    +0.155 HD
ATOM     37  N   UNL     1      -4.677  51.579  16.021  0.00  0.00    -0.214 NA
BRANCH   4   3
ATOM      1  C   UNL     1      -8.293  54.300  15.268  0.00  0.00    +0.020 A 
ATOM      2  C   UNL     1      -6.920  53.875  15.422  0.00  0.00    +0.013 A 
ATOM      3  C   UNL     1      -6.506  53.103  16.587  0.00  0.00    +0.019 A 
ATOM     38  C   UNL     1      -7.513  52.774  17.585  0.00  0.00    +0.120 A 
ATOM     39  N   UNL     1      -8.826  53.199  17.410  0.00  0.00    -0.263 NA
ATOM     40  C   UNL     1      -9.236  53.944  16.295  0.00  0.00    +0.111 A 
ENDBRANCH   4   3
ENDBRANCH  10   9
BRANCH  12  13
ATOM     13  N   UNL     1       1.512  49.730  13.409  0.00  0.00    -0.281 N 
ATOM     14  C   UNL     1       2.421  50.771  13.506  0.00  0.00    +0.248 C 
ATOM     30  O   UNL     1       2.362  51.665  14.337  0.00  0.00    -0.270 OA
ATOM     31  H   UNL     1       1.563  49.168  12.559  0.00  0.00    +0.155 HD
BRANCH  14  15
ATOM     15  C   UNL     1       3.550  50.836  12.529  0.00  0.00    +0.037 A 
ATOM     16  C   UNL     1       4.937  50.637  12.957  0.00  0.00    +0.013 A 
ATOM     17  C   UNL     1       6.010  50.722  11.998  0.00  0.00    +0.005 A 
ATOM     18  C   UNL     1       5.698  51.006  10.599  0.00  0.00    -0.033 A 
ATOM     28  C   UNL     1       4.313  51.194  10.201  0.00  0.00    +0.005 A 
ATOM     29  C   UNL     1       3.259  51.112  11.138  0.00  0.00    +0.013 A 
BRANCH  18  19
ATOM     19  C   UNL     1       6.780  51.136   9.511  0.00  0.00    +0.119 C 
BRANCH  19  20
ATOM     20  N   UNL     1       6.831  50.070   8.466  0.00  0.00    -0.302 NA
ATOM     21  C   UNL     1       7.137  48.694   9.064  0.00  0.00    +0.066 C 
ATOM     22  C   UNL     1       7.164  47.587   7.961  0.00  0.00    -0.064 C 
ATOM     23  N   UNL     1       8.198  47.957   6.896  0.00  0.00    +0.379 N 
ATOM     24  C   UNL     1       8.267  46.890   5.887  0.00  0.00    -0.096 C 
ATOM     25  H   UNL     1       9.193  48.014   7.397  0.00  0.00    -0.082 HD
ATOM     26  C   UNL     1       7.903  49.325   6.298  0.00  0.00    -0.064 C 
ATOM     27  C   UNL     1       7.849  50.413   7.407  0.00  0.00    +0.066 C 
ENDBRANCH  19  20
ENDBRANCH  18  19
ENDBRANCH  14  15
ENDBRANCH  12  13
TORSDOF 6
ENDMDL
MODEL 5
REMARK VINA RESULT:      -8.6      9.206     14.630
REMARK  Name = C:\Users\Docking\Desktop\test protocol\1iep_ligandH.pdb
REMARK  8 active torsions:
REMARK  status: ('A' for Active; 'I' for Inactive)
REMARK    1  A    between atoms: _5  and  _11
REMARK    2  A    between atoms: _19  and  _21
REMARK    3  A    between atoms: _22  and  _66
REMARK    4  A    between atoms: _27  and  _30
REMARK    5  A    between atoms: _32  and  _33
REMARK    6  A    between atoms: _38  and  _43
REMARK    7  A    between atoms: _43  and  _46
REMARK    8  A    between atoms: _53  and  _55
REMARK                            x       y       z     vdW  Elec       q    Type
REMARK                         _______ _______ _______ _____ _____    ______ ____
ROOT
ATOM     10  C   UNL     1       9.946  47.759   4.396  0.00  0.00    +0.038 A 
ATOM     11  C   UNL     1       9.523  48.613   5.447  0.00  0.00    +0.047 A 
ATOM     12  C   UNL     1       8.382  48.271   6.281  0.00  0.00    +0.035 A 
ATOM     32  C   UNL     1       7.695  47.050   6.019  0.00  0.00    +0.024 A 
ATOM     33  C   UNL     1       8.110  46.171   4.954  0.00  0.00    +0.007 A 
ATOM     34  C   UNL     1       9.234  46.504   4.126  0.00  0.00    -0.029 A 
ATOM     35  C   UNL     1       9.630  45.526   2.995  0.00  0.00    +0.045 C 
ENDROOT
BRANCH  10   9
ATOM      4  C   UNL     1      14.660  47.810   3.493  0.00  0.00    +0.077 A 
ATOM      5  C   UNL     1      14.953  47.044   4.670  0.00  0.00    +0.048 A 
ATOM      6  C   UNL     1      13.864  46.662   5.485  0.00  0.00    +0.116 A 
ATOM      7  N   UNL     1      12.580  47.025   5.138  0.00  0.00    -0.223 NA
ATOM      8  C   UNL     1      12.332  47.766   3.997  0.00  0.00    +0.220 A 
ATOM      9  N   UNL     1      11.048  48.136   3.626  0.00  0.00    -0.283 N 
ATOM     36  H   UNL     1      10.907  48.689   2.781  0.00  0.00    +0.155 HD
ATOM     37  N   UNL     1      13.355  48.144   3.204  0.00  0.00    -0.214 NA
BRANCH   4   3
ATOM      1  C   UNL     1      18.057  48.982   1.949  0.00  0.00    +0.020 A 
ATOM      2  C   UNL     1      17.088  48.524   2.918  0.00  0.00    +0.013 A 
ATOM      3  C   UNL     1      15.703  48.286   2.531  0.00  0.00    +0.019 A 
ATOM     38  C   UNL     1      15.329  48.522   1.145  0.00  0.00    +0.120 A 
ATOM     39  N   UNL     1      16.283  48.964   0.234  0.00  0.00    -0.263 NA
ATOM     40  C   UNL     1      17.618  49.199   0.595  0.00  0.00    +0.111 A 
ENDBRANCH   4   3
ENDBRANCH  10   9
BRANCH  12  13
ATOM     13  N   UNL     1       7.902  49.103   7.357  0.00  0.00    -0.281 N 
ATOM     14  C   UNL     1       7.071  50.208   7.273  0.00  0.00    +0.248 C 
ATOM     30  O   UNL     1       6.784  50.780   6.232  0.00  0.00    -0.270 OA
ATOM     31  H   UNL     1       8.213  48.845   8.294  0.00  0.00    +0.155 HD
BRANCH  14  15
ATOM     15  C   UNL     1       6.485  50.767   8.530  0.00  0.00    +0.037 A 
ATOM     16  C   UNL     1       5.298  51.625   8.498  0.00  0.00    +0.013 A 
ATOM     17  C   UNL     1       4.763  52.166   9.723  0.00  0.00    +0.005 A 
ATOM     18  C   UNL     1       5.415  51.847  10.991  0.00  0.00    -0.033 A 
ATOM     28  C   UNL     1       6.588  50.988  10.994  0.00  0.00    +0.005 A 
ATOM     29  C   UNL     1       7.116  50.458   9.795  0.00  0.00    +0.013 A 
BRANCH  18  19
ATOM     19  C   UNL     1       4.926  52.396  12.344  0.00  0.00    +0.119 C 
BRANCH  19  20
ATOM     20  N   UNL     1       3.677  51.805  12.910  0.00  0.00    -0.302 NA
ATOM     21  C   UNL     1       2.446  52.663  12.606  0.00  0.00    +0.066 C 
ATOM     22  C   UNL     1       1.145  52.019  13.186  0.00  0.00    -0.064 C 
ATOM     23  N   UNL     1       1.307  51.820  14.694  0.00  0.00    +0.379 N 
ATOM     24  C   UNL     1       0.064  51.268  15.252  0.00  0.00    -0.096 C 
ATOM     25  H   UNL     1       1.467  52.823  15.152  0.00  0.00    -0.082 HD
ATOM     26  C   UNL     1       2.530  50.969  15.006  0.00  0.00    -0.064 C 
ATOM     27  C   UNL     1       3.813  51.603  14.400  0.00  0.00    +0.066 C 
ENDBRANCH  19  20
ENDBRANCH  18  19
ENDBRANCH  14  15
ENDBRANCH  12  13
TORSDOF 6
ENDMDL
