MODEL 1
REMARK VINA RESULT:      -7.7      0.000      0.000
REMARK  Name = C:\Users\Docking\Desktop\test protocol\1iep_ligandH.pdb
REMARK  8 active torsions:
REMARK  status: ('A' for Active; 'I' for Inactive)
REMARK    1  A    between atoms: _5  and  _11
REMARK    2  A    between atoms: _19  and  _21
REMARK    3  A    between atoms: _22  and  _66
REMARK    4  A    between atoms: _27  and  _30
REMARK    5  A    between atoms: _32  and  _33
REMARK    6  A    between atoms: _38  and  _43
REMARK    7  A    between atoms: _43  and  _46
REMARK    8  A    between atoms: _53  and  _55
REMARK                            x       y       z     vdW  Elec       q    Type
REMARK                         _______ _______ _______ _____ _____    ______ ____
ROOT
ATOM     10  C   UNL     1      51.377  -0.979  37.027  0.00  0.00    +0.038 A 
ATOM     11  C   UNL     1      51.442  -1.216  35.631  0.00  0.00    +0.047 A 
ATOM     12  C   UNL     1      51.609  -2.561  35.102  0.00  0.00    +0.035 A 
ATOM     32  C   UNL     1      51.703  -3.643  36.026  0.00  0.00    +0.024 A 
ATOM     33  C   UNL     1      51.640  -3.420  37.449  0.00  0.00    +0.007 A 
ATOM     34  C   UNL     1      51.478  -2.095  37.976  0.00  0.00    -0.029 A 
ATOM     35  C   UNL     1      51.423  -1.915  39.511  0.00  0.00    +0.045 C 
ENDROOT
BRANCH  10   9
ATOM      4  C   UNL     1      48.681   2.893  37.908  0.00  0.00    +0.077 A 
ATOM      5  C   UNL     1      47.499   2.259  37.399  0.00  0.00    +0.048 A 
ATOM      6  C   UNL     1      47.629   0.938  36.914  0.00  0.00    +0.116 A 
ATOM      7  N   UNL     1      48.855   0.309  36.940  0.00  0.00    -0.223 NA
ATOM      8  C   UNL     1      49.975   0.949  37.436  0.00  0.00    +0.220 A 
ATOM      9  N   UNL     1      51.216   0.332  37.480  0.00  0.00    -0.283 N 
ATOM     36  H   UNL     1      52.020   0.841  37.846  0.00  0.00    +0.155 HD
ATOM     37  N   UNL     1      49.878   2.211  37.904  0.00  0.00    -0.214 NA
BRANCH   4   3
ATOM      1  C   UNL     1      49.358   5.990  40.199  0.00  0.00    +0.020 A 
ATOM      2  C   UNL     1      49.364   4.630  39.712  0.00  0.00    +0.013 A 
ATOM      3  C   UNL     1      48.705   4.285  38.459  0.00  0.00    +0.019 A 
ATOM     38  C   UNL     1      48.043   5.348  37.717  0.00  0.00    +0.120 A 
ATOM     39  N   UNL     1      48.052   6.648  38.212  0.00  0.00    -0.263 NA
ATOM     40  C   UNL     1      48.682   6.992  39.417  0.00  0.00    +0.111 A 
ENDBRANCH   4   3
ENDBRANCH  10   9
BRANCH  12  13
ATOM     13  N   UNL     1      51.690  -2.862  33.694  0.00  0.00    -0.281 N 
ATOM     14  C   UNL     1      50.714  -2.683  32.728  0.00  0.00    +0.248 C 
ATOM     30  O   UNL     1      49.542  -2.435  32.967  0.00  0.00    -0.270 OA
ATOM     31  H   UNL     1      52.574  -3.254  33.371  0.00  0.00    +0.155 HD
BRANCH  14  15
ATOM     15  C   UNL     1      51.091  -2.813  31.288  0.00  0.00    +0.037 A 
ATOM     16  C   UNL     1      51.640  -4.064  30.756  0.00  0.00    +0.013 A 
ATOM     17  C   UNL     1      52.012  -4.157  29.366  0.00  0.00    +0.005 A 
ATOM     18  C   UNL     1      51.835  -2.996  28.498  0.00  0.00    -0.033 A 
ATOM     28  C   UNL     1      51.284  -1.769  29.050  0.00  0.00    +0.005 A 
ATOM     29  C   UNL     1      50.919  -1.674  30.412  0.00  0.00    +0.013 A 
BRANCH  18  19
ATOM     19  C   UNL     1      52.224  -2.999  27.008  0.00  0.00    +0.119 C 
BRANCH  19  20
ATOM     20  N   UNL     1      51.243  -3.583  26.046  0.00  0.00    -0.302 NA
ATOM     21  C   UNL     1      49.800  -3.438  26.538  0.00  0.00    +0.066 C 
ATOM     22  C   UNL     1      48.785  -4.035  25.509  0.00  0.00    -0.064 C 
ATOM     23  N   UNL     1      49.125  -5.505  25.255  0.00  0.00    +0.379 N 
ATOM     24  C   UNL     1      48.138  -6.085  24.333  0.00  0.00    -0.096 C 
ATOM     25  H   UNL     1      49.039  -6.045  26.227  0.00  0.00    -0.082 HD
ATOM     26  C   UNL     1      50.559  -5.658  24.768  0.00  0.00    -0.064 C 
ATOM     27  C   UNL     1      51.558  -5.036  25.784  0.00  0.00    +0.066 C 
ENDBRANCH  19  20
ENDBRANCH  18  19
ENDBRANCH  14  15
ENDBRANCH  12  13
TORSDOF 6
ENDMDL
MODEL 2
REMARK VINA RESULT:      -7.1      1.942     12.274
REMARK  Name = C:\Users\Docking\Desktop\test protocol\1iep_ligandH.pdb
REMARK  8 active torsions:
REMARK  status: ('A' for Active; 'I' for Inactive)
REMARK    1  A    between atoms: _5  and  _11
REMARK    2  A    between atoms: _19  and  _21
REMARK    3  A    between atoms: _22  and  _66
REMARK    4  A    between atoms: _27  and  _30
REMARK    5  A    between atoms: _32  and  _33
REMARK    6  A    between atoms: _38  and  _43
REMARK    7  A    between atoms: _43  and  _46
REMARK    8  A    between atoms: _53  and  _55
REMARK                            x       y       z     vdW  Elec       q    Type
REMARK                         _______ _______ _______ _____ _____    ______ ____
ROOT
ATOM     10  C   UNL     1      52.048  -4.565  31.777  0.00  0.00    +0.038 A 
ATOM     11  C   UNL     1      51.376  -3.566  32.527  0.00  0.00    +0.047 A 
ATOM     12  C   UNL     1      51.923  -3.071  33.781  0.00  0.00    +0.035 A 
ATOM     32  C   UNL     1      53.158  -3.614  34.240  0.00  0.00    +0.024 A 
ATOM     33  C   UNL     1      53.854  -4.631  33.491  0.00  0.00    +0.007 A 
ATOM     34  C   UNL     1      53.318  -5.124  32.254  0.00  0.00    -0.029 A 
ATOM     35  C   UNL     1      54.104  -6.219  31.496  0.00  0.00    +0.045 C 
ENDROOT
BRANCH  10   9
ATOM      4  C   UNL     1      51.325  -4.191  27.047  0.00  0.00    +0.077 A 
ATOM      5  C   UNL     1      52.130  -3.007  26.957  0.00  0.00    +0.048 A 
ATOM      6  C   UNL     1      52.707  -2.523  28.153  0.00  0.00    +0.116 A 
ATOM      7  N   UNL     1      52.488  -3.181  29.343  0.00  0.00    -0.223 NA
ATOM      8  C   UNL     1      51.704  -4.320  29.395  0.00  0.00    +0.220 A 
ATOM      9  N   UNL     1      51.477  -5.003  30.580  0.00  0.00    -0.283 N 
ATOM     36  H   UNL     1      50.887  -5.834  30.577  0.00  0.00    +0.155 HD
ATOM     37  N   UNL     1      51.141  -4.801  28.267  0.00  0.00    -0.214 NA
BRANCH   4   3
ATOM      1  C   UNL     1      48.682  -5.151  24.327  0.00  0.00    +0.020 A 
ATOM      2  C   UNL     1      49.286  -4.508  25.472  0.00  0.00    +0.013 A 
ATOM      3  C   UNL     1      50.651  -4.827  25.870  0.00  0.00    +0.019 A 
ATOM     38  C   UNL     1      51.384  -5.806  25.083  0.00  0.00    +0.120 A 
ATOM     39  N   UNL     1      50.776  -6.410  23.986  0.00  0.00    -0.263 NA
ATOM     40  C   UNL     1      49.462  -6.113  23.595  0.00  0.00    +0.111 A 
ENDBRANCH   4   3
ENDBRANCH  10   9
BRANCH  12  13
ATOM     13  N   UNL     1      51.281  -2.065  34.590  0.00  0.00    -0.281 N 
ATOM     14  C   UNL     1      51.083  -2.073  35.961  0.00  0.00    +0.248 C 
ATOM     30  O   UNL     1      51.239  -3.052  36.676  0.00  0.00    -0.270 OA
ATOM     31  H   UNL     1      50.931  -1.247  34.092  0.00  0.00    +0.155 HD
BRANCH  14  15
ATOM     15  C   UNL     1      50.633  -0.816  36.633  0.00  0.00    +0.037 A 
ATOM     16  C   UNL     1      49.264  -0.318  36.476  0.00  0.00    +0.013 A 
ATOM     17  C   UNL     1      48.861   0.906  37.121  0.00  0.00    +0.005 A 
ATOM     18  C   UNL     1      49.829   1.640  37.932  0.00  0.00    -0.033 A 
ATOM     28  C   UNL     1      51.179   1.121  38.075  0.00  0.00    +0.005 A 
ATOM     29  C   UNL     1      51.578  -0.078  37.443  0.00  0.00    +0.013 A 
BRANCH  18  19
ATOM     19  C   UNL     1      49.493   2.966  38.640  0.00  0.00    +0.119 C 
BRANCH  19  20
ATOM     20  N   UNL     1      49.060   4.109  37.781  0.00  0.00    -0.302 NA
ATOM     21  C   UNL     1      50.104   5.229  37.747  0.00  0.00    +0.066 C 
ATOM     22  C   UNL     1      49.645   6.407  36.826  0.00  0.00    -0.064 C 
ATOM     23  N   UNL     1      48.297   6.938  37.316  0.00  0.00    +0.379 N 
ATOM     24  C   UNL     1      47.890   8.082  36.487  0.00  0.00    -0.096 C 
ATOM     25  H   UNL     1      48.437   7.307  38.358  0.00  0.00    -0.082 HD
ATOM     26  C   UNL     1      47.254   5.830  37.355  0.00  0.00    -0.064 C 
ATOM     27  C   UNL     1      47.732   4.652  38.249  0.00  0.00    +0.066 C 
ENDBRANCH  19  20
ENDBRANCH  18  19
ENDBRANCH  14  15
ENDBRANCH  12  13
TORSDOF 6
ENDMDL
MODEL 3
REMARK VINA RESULT:      -6.9      1.490      2.250
REMARK  Name = C:\Users\Docking\Desktop\test protocol\1iep_ligandH.pdb
REMARK  8 active torsions:
REMARK  status: ('A' for Active; 'I' for Inactive)
REMARK    1  A    between atoms: _5  and  _11
REMARK    2  A    between atoms: _19  and  _21
REMARK    3  A    between atoms: _22  and  _66
REMARK    4  A    between atoms: _27  and  _30
REMARK    5  A    between atoms: _32  and  _33
REMARK    6  A    between atoms: _38  and  _43
REMARK    7  A    between atoms: _43  and  _46
REMARK    8  A    between atoms: _53  and  _55
REMARK                            x       y       z     vdW  Elec       q    Type
REMARK                         _______ _______ _______ _____ _____    ______ ____
ROOT
ATOM     10  C   UNL     1      51.653  -0.960  36.946  0.00  0.00    +0.038 A 
ATOM     11  C   UNL     1      51.689  -1.202  35.549  0.00  0.00    +0.047 A 
ATOM     12  C   UNL     1      51.734  -2.557  35.021  0.00  0.00    +0.035 A 
ATOM     32  C   UNL     1      51.739  -3.642  35.945  0.00  0.00    +0.024 A 
ATOM     33  C   UNL     1      51.705  -3.415  37.368  0.00  0.00    +0.007 A 
ATOM     34  C   UNL     1      51.663  -2.080  37.895  0.00  0.00    -0.029 A 
ATOM     35  C   UNL     1      51.633  -1.895  39.430  0.00  0.00    +0.045 C 
ENDROOT
BRANCH  10   9
ATOM      4  C   UNL     1      49.274   3.054  38.069  0.00  0.00    +0.077 A 
ATOM      5  C   UNL     1      48.012   2.480  37.698  0.00  0.00    +0.048 A 
ATOM      6  C   UNL     1      48.020   1.152  37.217  0.00  0.00    +0.116 A 
ATOM      7  N   UNL     1      49.207   0.458  37.118  0.00  0.00    -0.223 NA
ATOM      8  C   UNL     1      50.406   1.042  37.482  0.00  0.00    +0.220 A 
ATOM      9  N   UNL     1      51.611   0.360  37.398  0.00  0.00    -0.283 N 
ATOM     36  H   UNL     1      52.475   0.829  37.670  0.00  0.00    +0.155 HD
ATOM     37  N   UNL     1      50.426   2.310  37.944  0.00  0.00    -0.214 NA
BRANCH   4   3
ATOM      1  C   UNL     1      49.054   6.229  40.343  0.00  0.00    +0.020 A 
ATOM      2  C   UNL     1      48.876   4.873  39.877  0.00  0.00    +0.013 A 
ATOM      3  C   UNL     1      49.429   4.446  38.598  0.00  0.00    +0.019 A 
ATOM     38  C   UNL     1      50.163   5.422  37.809  0.00  0.00    +0.120 A 
ATOM     39  N   UNL     1      50.318   6.722  38.282  0.00  0.00    -0.263 NA
ATOM     40  C   UNL     1      49.789   7.145  39.510  0.00  0.00    +0.111 A 
ENDBRANCH   4   3
ENDBRANCH  10   9
BRANCH  12  13
ATOM     13  N   UNL     1      51.780  -2.864  33.613  0.00  0.00    -0.281 N 
ATOM     14  C   UNL     1      50.777  -2.697  32.672  0.00  0.00    +0.248 C 
ATOM     30  O   UNL     1      49.609  -2.456  32.942  0.00  0.00    -0.270 OA
ATOM     31  H   UNL     1      52.658  -3.251  33.268  0.00  0.00    +0.155 HD
BRANCH  14  15
ATOM     15  C   UNL     1      51.116  -2.832  31.223  0.00  0.00    +0.037 A 
ATOM     16  C   UNL     1      50.919  -1.720  30.290  0.00  0.00    +0.013 A 
ATOM     17  C   UNL     1      51.239  -1.882  28.894  0.00  0.00    +0.005 A 
ATOM     18  C   UNL     1      51.762  -3.163  28.423  0.00  0.00    -0.033 A 
ATOM     28  C   UNL     1      51.953  -4.247  29.371  0.00  0.00    +0.005 A 
ATOM     29  C   UNL     1      51.639  -4.092  30.740  0.00  0.00    +0.013 A 
BRANCH  18  19
ATOM     19  C   UNL     1      52.110  -3.432  26.947  0.00  0.00    +0.119 C 
BRANCH  19  20
ATOM     20  N   UNL     1      52.794  -4.721  26.630  0.00  0.00    -0.302 NA
ATOM     21  C   UNL     1      54.231  -4.506  26.147  0.00  0.00    +0.066 C 
ATOM     22  C   UNL     1      54.939  -5.866  25.842  0.00  0.00    -0.064 C 
ATOM     23  N   UNL     1      54.127  -6.637  24.799  0.00  0.00    +0.379 N 
ATOM     24  C   UNL     1      54.820  -7.890  24.467  0.00  0.00    -0.096 C 
ATOM     25  H   UNL     1      54.089  -6.016  23.874  0.00  0.00    -0.082 HD
ATOM     26  C   UNL     1      52.696  -6.853  25.270  0.00  0.00    -0.064 C 
ATOM     27  C   UNL     1      52.012  -5.497  25.599  0.00  0.00    +0.066 C 
ENDBRANCH  19  20
ENDBRANCH  18  19
ENDBRANCH  14  15
ENDBRANCH  12  13
TORSDOF 6
ENDMDL
MODEL 4
REMARK VINA RESULT:      -6.6     23.232     24.860
REMARK  Name = C:\Users\Docking\Desktop\test protocol\1iep_ligandH.pdb
REMARK  8 active torsions:
REMARK  status: ('A' for Active; 'I' for Inactive)
REMARK    1  A    between atoms: _5  and  _11
REMARK    2  A    between atoms: _19  and  _21
REMARK    3  A    between atoms: _22  and  _66
REMARK    4  A    between atoms: _27  and  _30
REMARK    5  A    between atoms: _32  and  _33
REMARK    6  A    between atoms: _38  and  _43
REMARK    7  A    between atoms: _43  and  _46
REMARK    8  A    between atoms: _53  and  _55
REMARK                            x       y       z     vdW  Elec       q    Type
REMARK                         _______ _______ _______ _____ _____    ______ ____
ROOT
ATOM     10  C   UNL     1      39.230   4.148  53.870  0.00  0.00    +0.038 A 
ATOM     11  C   UNL     1      38.311   3.254  53.264  0.00  0.00    +0.047 A 
ATOM     12  C   UNL     1      36.903   3.595  53.135  0.00  0.00    +0.035 A 
ATOM     32  C   UNL     1      36.465   4.857  53.631  0.00  0.00    +0.024 A 
ATOM     33  C   UNL     1      37.385   5.778  54.251  0.00  0.00    +0.007 A 
ATOM     34  C   UNL     1      38.774   5.446  54.383  0.00  0.00    -0.029 A 
ATOM     35  C   UNL     1      39.715   6.469  55.062  0.00  0.00    +0.045 C 
ENDROOT
BRANCH  10   9
ATOM      4  C   UNL     1      42.850   1.937  56.114  0.00  0.00    +0.077 A 
ATOM      5  C   UNL     1      42.005   1.524  57.197  0.00  0.00    +0.048 A 
ATOM      6  C   UNL     1      40.646   1.907  57.142  0.00  0.00    +0.116 A 
ATOM      7  N   UNL     1      40.178   2.648  56.078  0.00  0.00    -0.223 NA
ATOM      8  C   UNL     1      41.021   3.031  55.051  0.00  0.00    +0.220 A 
ATOM      9  N   UNL     1      40.570   3.770  53.968  0.00  0.00    -0.283 N 
ATOM     36  H   UNL     1      41.225   4.040  53.234  0.00  0.00    +0.155 HD
ATOM     37  N   UNL     1      42.323   2.679  55.081  0.00  0.00    -0.214 NA
BRANCH   4   3
ATOM      1  C   UNL     1      46.255   0.013  56.208  0.00  0.00    +0.020 A 
ATOM      2  C   UNL     1      44.838   0.279  56.307  0.00  0.00    +0.013 A 
ATOM      3  C   UNL     1      44.308   1.608  56.027  0.00  0.00    +0.019 A 
ATOM     38  C   UNL     1      45.246   2.653  55.646  0.00  0.00    +0.120 A 
ATOM     39  N   UNL     1      46.605   2.368  55.561  0.00  0.00    -0.263 NA
ATOM     40  C   UNL     1      47.127   1.094  55.829  0.00  0.00    +0.111 A 
ENDBRANCH   4   3
ENDBRANCH  10   9
BRANCH  12  13
ATOM     13  N   UNL     1      35.922   2.723  52.536  0.00  0.00    -0.281 N 
ATOM     14  C   UNL     1      35.555   1.450  52.939  0.00  0.00    +0.248 C 
ATOM     30  O   UNL     1      36.171   0.778  53.753  0.00  0.00    -0.270 OA
ATOM     31  H   UNL     1      35.439   3.090  51.716  0.00  0.00    +0.155 HD
BRANCH  14  15
ATOM     15  C   UNL     1      34.336   0.826  52.340  0.00  0.00    +0.037 A 
ATOM     16  C   UNL     1      33.218   1.645  51.866  0.00  0.00    +0.013 A 
ATOM     17  C   UNL     1      32.047   1.017  51.308  0.00  0.00    +0.005 A 
ATOM     18  C   UNL     1      31.989  -0.440  51.220  0.00  0.00    -0.033 A 
ATOM     28  C   UNL     1      33.114  -1.229  51.694  0.00  0.00    +0.005 A 
ATOM     29  C   UNL     1      34.264  -0.617  52.242  0.00  0.00    +0.013 A 
BRANCH  18  19
ATOM     19  C   UNL     1      30.770  -1.196  50.659  0.00  0.00    +0.119 C 
BRANCH  19  20
ATOM     20  N   UNL     1      31.034  -2.469  49.924  0.00  0.00    -0.302 NA
ATOM     21  C   UNL     1      30.304  -2.518  48.579  0.00  0.00    +0.066 C 
ATOM     22  C   UNL     1      30.609  -3.846  47.813  0.00  0.00    -0.064 C 
ATOM     23  N   UNL     1      30.214  -5.038  48.687  0.00  0.00    +0.379 N 
ATOM     24  C   UNL     1      30.446  -6.287  47.948  0.00  0.00    -0.096 C 
ATOM     25  H   UNL     1      29.120  -4.962  48.888  0.00  0.00    -0.082 HD
ATOM     26  C   UNL     1      30.934  -4.996  50.028  0.00  0.00    -0.064 C 
ATOM     27  C   UNL     1      30.647  -3.659  50.767  0.00  0.00    +0.066 C 
ENDBRANCH  19  20
ENDBRANCH  18  19
ENDBRANCH  14  15
ENDBRANCH  12  13
TORSDOF 6
ENDMDL
MODEL 5
REMARK VINA RESULT:      -6.5     21.085     24.620
REMARK  Name = C:\Users\Docking\Desktop\test protocol\1iep_ligandH.pdb
REMARK  8 active torsions:
REMARK  status: ('A' for Active; 'I' for Inactive)
REMARK    1  A    between atoms: _5  and  _11
REMARK    2  A    between atoms: _19  and  _21
REMARK    3  A    between atoms: _22  and  _66
REMARK    4  A    between atoms: _27  and  _30
REMARK    5  A    between atoms: _32  and  _33
REMARK    6  A    between atoms: _38  and  _43
REMARK    7  A    between atoms: _43  and  _46
REMARK    8  A    between atoms: _53  and  _55
REMARK                            x       y       z     vdW  Elec       q    Type
REMARK                         _______ _______ _______ _____ _____    ______ ____
ROOT
ATOM     10  C   UNL     1      31.101  -7.965  31.944  0.00  0.00    +0.038 A 
ATOM     11  C   UNL     1      30.083  -7.017  31.666  0.00  0.00    +0.047 A 
ATOM     12  C   UNL     1      28.749  -7.158  32.228  0.00  0.00    +0.035 A 
ATOM     32  C   UNL     1      28.487  -8.276  33.072  0.00  0.00    +0.024 A 
ATOM     33  C   UNL     1      29.509  -9.250  33.364  0.00  0.00    +0.007 A 
ATOM     34  C   UNL     1      30.826  -9.118  32.810  0.00  0.00    -0.029 A 
ATOM     35  C   UNL     1      31.881 -10.196  33.152  0.00  0.00    +0.045 C 
ENDROOT
BRANCH  10   9
ATOM      4  C   UNL     1      34.060  -7.775  28.170  0.00  0.00    +0.077 A 
ATOM      5  C   UNL     1      33.006  -8.096  27.252  0.00  0.00    +0.048 A 
ATOM      6  C   UNL     1      31.718  -8.310  27.792  0.00  0.00    +0.116 A 
ATOM      7  N   UNL     1      31.511  -8.207  29.150  0.00  0.00    -0.223 NA
ATOM      8  C   UNL     1      32.551  -7.897  30.008  0.00  0.00    +0.220 A 
ATOM      9  N   UNL     1      32.364  -7.781  31.377  0.00  0.00    -0.283 N 
ATOM     36  H   UNL     1      33.158  -7.558  31.977  0.00  0.00    +0.155 HD
ATOM     37  N   UNL     1      33.790  -7.690  29.517  0.00  0.00    -0.214 NA
BRANCH   4   3
ATOM      1  C   UNL     1      37.256  -6.133  26.622  0.00  0.00    +0.020 A 
ATOM      2  C   UNL     1      35.876  -6.335  27.001  0.00  0.00    +0.013 A 
ATOM      3  C   UNL     1      35.475  -7.517  27.752  0.00  0.00    +0.019 A 
ATOM     38  C   UNL     1      36.502  -8.484  28.108  0.00  0.00    +0.120 A 
ATOM     39  N   UNL     1      37.823  -8.265  27.728  0.00  0.00    -0.263 NA
ATOM     40  C   UNL     1      38.220  -7.131  27.003  0.00  0.00    +0.111 A 
ENDBRANCH   4   3
ENDBRANCH  10   9
BRANCH  12  13
ATOM     13  N   UNL     1      27.674  -6.231  31.974  0.00  0.00    -0.281 N 
ATOM     14  C   UNL     1      27.331  -5.105  32.704  0.00  0.00    +0.248 C 
ATOM     30  O   UNL     1      27.768  -4.842  33.815  0.00  0.00    -0.270 OA
ATOM     31  H   UNL     1      27.096  -6.430  31.158  0.00  0.00    +0.155 HD
BRANCH  14  15
ATOM     15  C   UNL     1      26.349  -4.140  32.123  0.00  0.00    +0.037 A 
ATOM     16  C   UNL     1      26.000  -4.174  30.700  0.00  0.00    +0.013 A 
ATOM     17  C   UNL     1      25.064  -3.220  30.162  0.00  0.00    +0.005 A 
ATOM     18  C   UNL     1      24.467  -2.224  31.048  0.00  0.00    -0.033 A 
ATOM     28  C   UNL     1      24.827  -2.215  32.456  0.00  0.00    +0.005 A 
ATOM     29  C   UNL     1      25.746  -3.148  32.987  0.00  0.00    +0.013 A 
BRANCH  18  19
ATOM     19  C   UNL     1      23.474  -1.154  30.556  0.00  0.00    +0.119 C 
BRANCH  19  20
ATOM     20  N   UNL     1      22.128  -1.123  31.200  0.00  0.00    -0.302 NA
ATOM     21  C   UNL     1      21.013  -0.845  30.188  0.00  0.00    +0.066 C 
ATOM     22  C   UNL     1      19.608  -0.838  30.875  0.00  0.00    -0.064 C 
ATOM     23  N   UNL     1      19.597   0.205  31.995  0.00  0.00    +0.379 N 
ATOM     24  C   UNL     1      18.260   0.254  32.605  0.00  0.00    -0.096 C 
ATOM     25  H   UNL     1      19.794   1.199  31.532  0.00  0.00    -0.082 HD
ATOM     26  C   UNL     1      20.704  -0.063  33.004  0.00  0.00    -0.064 C 
ATOM     27  C   UNL     1      22.092  -0.097  32.306  0.00  0.00    +0.066 C 
ENDBRANCH  19  20
ENDBRANCH  18  19
ENDBRANCH  14  15
ENDBRANCH  12  13
TORSDOF 6
ENDMDL
