MODEL 1
REMARK VINA RESULT:      -5.6      0.000      0.000
REMARK  Name = C:\Users\Docking\Desktop\test protocol\1iep_ligandH.pdb
REMARK  8 active torsions:
REMARK  status: ('A' for Active; 'I' for Inactive)
REMARK    1  A    between atoms: _5  and  _11
REMARK    2  A    between atoms: _19  and  _21
REMARK    3  A    between atoms: _22  and  _66
REMARK    4  A    between atoms: _27  and  _30
REMARK    5  A    between atoms: _32  and  _33
REMARK    6  A    between atoms: _38  and  _43
REMARK    7  A    between atoms: _43  and  _46
REMARK    8  A    between atoms: _53  and  _55
REMARK                            x       y       z     vdW  Elec       q    Type
REMARK                         _______ _______ _______ _____ _____    ______ ____
ROOT
ATOM     10  C   UNL     1      30.791  22.883   9.483  0.00  0.00    +0.038 A 
ATOM     11  C   UNL     1      30.712  21.544   9.943  0.00  0.00    +0.047 A 
ATOM     12  C   UNL     1      31.871  20.665   9.909  0.00  0.00    +0.035 A 
ATOM     32  C   UNL     1      33.097  21.185   9.400  0.00  0.00    +0.024 A 
ATOM     33  C   UNL     1      33.196  22.543   8.927  0.00  0.00    +0.007 A 
ATOM     34  C   UNL     1      32.055  23.413   8.956  0.00  0.00    -0.029 A 
ATOM     35  C   UNL     1      32.217  24.858   8.430  0.00  0.00    +0.045 C 
ENDROOT
BRANCH  10   9
ATOM      4  C   UNL     1      26.765  24.652   7.561  0.00  0.00    +0.077 A 
ATOM      5  C   UNL     1      26.972  23.946   6.330  0.00  0.00    +0.048 A 
ATOM      6  C   UNL     1      28.130  23.143   6.229  0.00  0.00    +0.116 A 
ATOM      7  N   UNL     1      29.009  23.061   7.287  0.00  0.00    -0.223 NA
ATOM      8  C   UNL     1      28.781  23.756   8.460  0.00  0.00    +0.220 A 
ATOM      9  N   UNL     1      29.648  23.682   9.539  0.00  0.00    -0.283 N 
ATOM     36  H   UNL     1      29.447  24.216  10.384  0.00  0.00    +0.155 HD
ATOM     37  N   UNL     1      27.683  24.531   8.580  0.00  0.00    -0.214 NA
BRANCH   4   3
ATOM      1  C   UNL     1      23.106  25.966   7.995  0.00  0.00    +0.020 A 
ATOM      2  C   UNL     1      24.209  25.070   7.733  0.00  0.00    +0.013 A 
ATOM      3  C   UNL     1      25.586  25.538   7.821  0.00  0.00    +0.019 A 
ATOM     38  C   UNL     1      25.816  26.929   8.180  0.00  0.00    +0.120 A 
ATOM     39  N   UNL     1      24.734  27.769   8.425  0.00  0.00    -0.263 NA
ATOM     40  C   UNL     1      23.404  27.331   8.342  0.00  0.00    +0.111 A 
ENDBRANCH   4   3
ENDBRANCH  10   9
BRANCH  12  13
ATOM     13  N   UNL     1      31.847  19.295  10.355  0.00  0.00    -0.281 N 
ATOM     14  C   UNL     1      31.733  18.823  11.653  0.00  0.00    +0.248 C 
ATOM     30  O   UNL     1      31.849  19.517  12.652  0.00  0.00    -0.270 OA
ATOM     31  H   UNL     1      31.924  18.585   9.626  0.00  0.00    +0.155 HD
BRANCH  14  15
ATOM     15  C   UNL     1      31.467  17.369  11.872  0.00  0.00    +0.037 A 
ATOM     16  C   UNL     1      30.240  16.913  12.531  0.00  0.00    +0.013 A 
ATOM     17  C   UNL     1      30.015  15.505  12.745  0.00  0.00    +0.005 A 
ATOM     18  C   UNL     1      31.020  14.543  12.299  0.00  0.00    -0.033 A 
ATOM     28  C   UNL     1      32.225  15.023  11.643  0.00  0.00    +0.005 A 
ATOM     29  C   UNL     1      32.450  16.402  11.432  0.00  0.00    +0.013 A 
BRANCH  18  19
ATOM     19  C   UNL     1      30.873  13.024  12.505  0.00  0.00    +0.119 C 
BRANCH  19  20
ATOM     20  N   UNL     1      31.948  12.151  11.945  0.00  0.00    -0.302 NA
ATOM     21  C   UNL     1      31.378  11.013  11.093  0.00  0.00    +0.066 C 
ATOM     22  C   UNL     1      32.516  10.123  10.497  0.00  0.00    -0.064 C 
ATOM     23  N   UNL     1      33.376   9.570  11.635  0.00  0.00    +0.379 N 
ATOM     24  C   UNL     1      34.412   8.686  11.081  0.00  0.00    -0.096 C 
ATOM     25  H   UNL     1      32.716   8.951  12.286  0.00  0.00    -0.082 HD
ATOM     26  C   UNL     1      33.945  10.694  12.488  0.00  0.00    -0.064 C 
ATOM     27  C   UNL     1      32.806  11.590  13.052  0.00  0.00    +0.066 C 
ENDBRANCH  19  20
ENDBRANCH  18  19
ENDBRANCH  14  15
ENDBRANCH  12  13
TORSDOF 6
ENDMDL
MODEL 2
REMARK VINA RESULT:      -5.5      5.263      6.810
REMARK  Name = C:\Users\Docking\Desktop\test protocol\1iep_ligandH.pdb
REMARK  8 active torsions:
REMARK  status: ('A' for Active; 'I' for Inactive)
REMARK    1  A    between atoms: _5  and  _11
REMARK    2  A    between atoms: _19  and  _21
REMARK    3  A    between atoms: _22  and  _66
REMARK    4  A    between atoms: _27  and  _30
REMARK    5  A    between atoms: _32  and  _33
REMARK    6  A    between atoms: _38  and  _43
REMARK    7  A    between atoms: _43  and  _46
REMARK    8  A    between atoms: _53  and  _55
REMARK                            x       y       z     vdW  Elec       q    Type
REMARK                         _______ _______ _______ _____ _____    ______ ____
ROOT
ATOM     10  C   UNL     1      32.170  24.046  11.534  0.00  0.00    +0.038 A 
ATOM     11  C   UNL     1      31.597  22.749  11.500  0.00  0.00    +0.047 A 
ATOM     12  C   UNL     1      32.186  21.687  10.699  0.00  0.00    +0.035 A 
ATOM     32  C   UNL     1      33.362  21.980   9.948  0.00  0.00    +0.024 A 
ATOM     33  C   UNL     1      33.957  23.293   9.970  0.00  0.00    +0.007 A 
ATOM     34  C   UNL     1      33.378  24.345  10.756  0.00  0.00    -0.029 A 
ATOM     35  C   UNL     1      34.056  25.736  10.738  0.00  0.00    +0.045 C 
ENDROOT
BRANCH  10   9
ATOM      4  C   UNL     1      31.366  26.195  15.750  0.00  0.00    +0.077 A 
ATOM      5  C   UNL     1      32.205  25.267  16.450  0.00  0.00    +0.048 A 
ATOM      6  C   UNL     1      32.820  24.247  15.690  0.00  0.00    +0.116 A 
ATOM      7  N   UNL     1      32.604  24.170  14.331  0.00  0.00    -0.223 NA
ATOM      8  C   UNL     1      31.787  25.081  13.687  0.00  0.00    +0.220 A 
ATOM      9  N   UNL     1      31.563  25.028  12.320  0.00  0.00    -0.283 N 
ATOM     36  H   UNL     1      30.947  25.714  11.883  0.00  0.00    +0.155 HD
ATOM     37  N   UNL     1      31.188  26.064  14.390  0.00  0.00    -0.214 NA
BRANCH   4   3
ATOM      1  C   UNL     1      28.669  28.869  16.689  0.00  0.00    +0.020 A 
ATOM      2  C   UNL     1      29.317  27.767  16.015  0.00  0.00    +0.013 A 
ATOM      3  C   UNL     1      30.649  27.330  16.413  0.00  0.00    +0.019 A 
ATOM     38  C   UNL     1      31.304  28.035  17.506  0.00  0.00    +0.120 A 
ATOM     39  N   UNL     1      30.656  29.093  18.135  0.00  0.00    -0.263 NA
ATOM     40  C   UNL     1      29.374  29.523  17.760  0.00  0.00    +0.111 A 
ENDBRANCH   4   3
ENDBRANCH  10   9
BRANCH  12  13
ATOM     13  N   UNL     1      31.644  20.353  10.619  0.00  0.00    -0.281 N 
ATOM     14  C   UNL     1      31.682  19.359  11.583  0.00  0.00    +0.248 C 
ATOM     30  O   UNL     1      32.379  19.395  12.586  0.00  0.00    -0.270 OA
ATOM     31  H   UNL     1      31.176  20.113   9.745  0.00  0.00    +0.155 HD
BRANCH  14  15
ATOM     15  C   UNL     1      30.834  18.142  11.398  0.00  0.00    +0.037 A 
ATOM     16  C   UNL     1      30.180  17.858  10.118  0.00  0.00    +0.013 A 
ATOM     17  C   UNL     1      29.353  16.686   9.973  0.00  0.00    +0.005 A 
ATOM     18  C   UNL     1      29.178  15.788  11.111  0.00  0.00    -0.033 A 
ATOM     28  C   UNL     1      29.843  16.090  12.368  0.00  0.00    +0.005 A 
ATOM     29  C   UNL     1      30.653  17.239  12.514  0.00  0.00    +0.013 A 
BRANCH  18  19
ATOM     19  C   UNL     1      28.297  14.526  11.052  0.00  0.00    +0.119 C 
BRANCH  19  20
ATOM     20  N   UNL     1      27.440  14.234  12.240  0.00  0.00    -0.302 NA
ATOM     21  C   UNL     1      27.851  12.935  12.940  0.00  0.00    +0.066 C 
ATOM     22  C   UNL     1      26.959  12.657  14.193  0.00  0.00    -0.064 C 
ATOM     23  N   UNL     1      25.490  12.602  13.768  0.00  0.00    +0.379 N 
ATOM     24  C   UNL     1      24.654  12.283  14.934  0.00  0.00    -0.096 C 
ATOM     25  H   UNL     1      25.382  11.769  13.035  0.00  0.00    -0.082 HD
ATOM     26  C   UNL     1      25.074  13.889  13.069  0.00  0.00    -0.064 C 
ATOM     27  C   UNL     1      25.986  14.171  11.842  0.00  0.00    +0.066 C 
ENDBRANCH  19  20
ENDBRANCH  18  19
ENDBRANCH  14  15
ENDBRANCH  12  13
TORSDOF 6
ENDMDL
MODEL 3
REMARK VINA RESULT:      -5.4      5.028      6.251
REMARK  Name = C:\Users\Docking\Desktop\test protocol\1iep_ligandH.pdb
REMARK  8 active torsions:
REMARK  status: ('A' for Active; 'I' for Inactive)
REMARK    1  A    between atoms: _5  and  _11
REMARK    2  A    between atoms: _19  and  _21
REMARK    3  A    between atoms: _22  and  _66
REMARK    4  A    between atoms: _27  and  _30
REMARK    5  A    between atoms: _32  and  _33
REMARK    6  A    between atoms: _38  and  _43
REMARK    7  A    between atoms: _43  and  _46
REMARK    8  A    between atoms: _53  and  _55
REMARK                            x       y       z     vdW  Elec       q    Type
REMARK                         _______ _______ _______ _____ _____    ______ ____
ROOT
ATOM     10  C   UNL     1      32.264  24.150  11.689  0.00  0.00    +0.038 A 
ATOM     11  C   UNL     1      31.709  22.846  11.634  0.00  0.00    +0.047 A 
ATOM     12  C   UNL     1      32.345  21.789  10.863  0.00  0.00    +0.035 A 
ATOM     32  C   UNL     1      33.549  22.094  10.163  0.00  0.00    +0.024 A 
ATOM     33  C   UNL     1      34.126  23.414  10.207  0.00  0.00    +0.007 A 
ATOM     34  C   UNL     1      33.502  24.462  10.964  0.00  0.00    -0.029 A 
ATOM     35  C   UNL     1      34.162  25.860  10.970  0.00  0.00    +0.045 C 
ENDROOT
BRANCH  10   9
ATOM      4  C   UNL     1      31.272  26.317  15.855  0.00  0.00    +0.077 A 
ATOM      5  C   UNL     1      32.104  25.411  16.593  0.00  0.00    +0.048 A 
ATOM      6  C   UNL     1      32.764  24.396  15.864  0.00  0.00    +0.116 A 
ATOM      7  N   UNL     1      32.597  24.305  14.499  0.00  0.00    -0.223 NA
ATOM      8  C   UNL     1      31.787  25.195  13.818  0.00  0.00    +0.220 A 
ATOM      9  N   UNL     1      31.612  25.126  12.444  0.00  0.00    -0.283 N 
ATOM     36  H   UNL     1      30.999  25.797  11.980  0.00  0.00    +0.155 HD
ATOM     37  N   UNL     1      31.145  26.171  14.492  0.00  0.00    -0.214 NA
BRANCH   4   3
ATOM      1  C   UNL     1      28.536  29.006  16.619  0.00  0.00    +0.020 A 
ATOM      2  C   UNL     1      29.229  27.915  15.975  0.00  0.00    +0.013 A 
ATOM      3  C   UNL     1      30.512  27.444  16.483  0.00  0.00    +0.019 A 
ATOM     38  C   UNL     1      31.069  28.104  17.654  0.00  0.00    +0.120 A 
ATOM     39  N   UNL     1      30.379  29.154  18.252  0.00  0.00    -0.263 NA
ATOM     40  C   UNL     1      29.145  29.617  17.771  0.00  0.00    +0.111 A 
ENDBRANCH   4   3
ENDBRANCH  10   9
BRANCH  12  13
ATOM     13  N   UNL     1      31.823  20.448  10.764  0.00  0.00    -0.281 N 
ATOM     14  C   UNL     1      31.665  19.519  11.778  0.00  0.00    +0.248 C 
ATOM     30  O   UNL     1      32.149  19.625  12.895  0.00  0.00    -0.270 OA
ATOM     31  H   UNL     1      31.536  20.148   9.832  0.00  0.00    +0.155 HD
BRANCH  14  15
ATOM     15  C   UNL     1      30.864  18.285  11.509  0.00  0.00    +0.037 A 
ATOM     16  C   UNL     1      30.670  17.265  12.542  0.00  0.00    +0.013 A 
ATOM     17  C   UNL     1      29.908  16.077  12.250  0.00  0.00    +0.005 A 
ATOM     18  C   UNL     1      29.332  15.904  10.919  0.00  0.00    -0.033 A 
ATOM     28  C   UNL     1      29.535  16.935   9.915  0.00  0.00    +0.005 A 
ATOM     29  C   UNL     1      30.283  18.100  10.196  0.00  0.00    +0.013 A 
BRANCH  18  19
ATOM     19  C   UNL     1      28.522  14.658  10.513  0.00  0.00    +0.119 C 
BRANCH  19  20
ATOM     20  N   UNL     1      28.724  13.418  11.320  0.00  0.00    -0.302 NA
ATOM     21  C   UNL     1      29.808  12.515  10.724  0.00  0.00    +0.066 C 
ATOM     22  C   UNL     1      30.022  11.234  11.593  0.00  0.00    -0.064 C 
ATOM     23  N   UNL     1      28.698  10.479  11.720  0.00  0.00    +0.379 N 
ATOM     24  C   UNL     1      28.909   9.243  12.488  0.00  0.00    -0.096 C 
ATOM     25  H   UNL     1      28.375  10.188  10.693  0.00  0.00    -0.082 HD
ATOM     26  C   UNL     1      27.614  11.370  12.309  0.00  0.00    -0.064 C 
ATOM     27  C   UNL     1      27.429  12.655  11.454  0.00  0.00    +0.066 C 
ENDBRANCH  19  20
ENDBRANCH  18  19
ENDBRANCH  14  15
ENDBRANCH  12  13
TORSDOF 6
ENDMDL
MODEL 4
REMARK VINA RESULT:      -5.4      4.793      5.841
REMARK  Name = C:\Users\Docking\Desktop\test protocol\1iep_ligandH.pdb
REMARK  8 active torsions:
REMARK  status: ('A' for Active; 'I' for Inactive)
REMARK    1  A    between atoms: _5  and  _11
REMARK    2  A    between atoms: _19  and  _21
REMARK    3  A    between atoms: _22  and  _66
REMARK    4  A    between atoms: _27  and  _30
REMARK    5  A    between atoms: _32  and  _33
REMARK    6  A    between atoms: _38  and  _43
REMARK    7  A    between atoms: _43  and  _46
REMARK    8  A    between atoms: _53  and  _55
REMARK                            x       y       z     vdW  Elec       q    Type
REMARK                         _______ _______ _______ _____ _____    ______ ____
ROOT
ATOM     10  C   UNL     1      32.321  23.880  12.005  0.00  0.00    +0.038 A 
ATOM     11  C   UNL     1      31.966  22.546  12.329  0.00  0.00    +0.047 A 
ATOM     12  C   UNL     1      32.668  21.416  11.742  0.00  0.00    +0.035 A 
ATOM     32  C   UNL     1      33.731  21.681  10.829  0.00  0.00    +0.024 A 
ATOM     33  C   UNL     1      34.105  23.031  10.487  0.00  0.00    +0.007 A 
ATOM     34  C   UNL     1      33.414  24.150  11.062  0.00  0.00    -0.029 A 
ATOM     35  C   UNL     1      33.853  25.575  10.654  0.00  0.00    +0.045 C 
ENDROOT
BRANCH  10   9
ATOM      4  C   UNL     1      31.414  26.826  15.684  0.00  0.00    +0.077 A 
ATOM      5  C   UNL     1      32.418  26.209  16.502  0.00  0.00    +0.048 A 
ATOM      6  C   UNL     1      33.140  25.132  15.942  0.00  0.00    +0.116 A 
ATOM      7  N   UNL     1      32.871  24.712  14.657  0.00  0.00    -0.223 NA
ATOM      8  C   UNL     1      31.895  25.328  13.895  0.00  0.00    +0.220 A 
ATOM      9  N   UNL     1      31.613  24.928  12.598  0.00  0.00    -0.283 N 
ATOM     36  H   UNL     1      30.881  25.403  12.072  0.00  0.00    +0.155 HD
ATOM     37  N   UNL     1      31.190  26.358  14.408  0.00  0.00    -0.214 NA
BRANCH   4   3
ATOM      1  C   UNL     1      28.349  29.134  16.445  0.00  0.00    +0.020 A 
ATOM      2  C   UNL     1      29.118  27.997  15.994  0.00  0.00    +0.013 A 
ATOM      3  C   UNL     1      30.569  27.977  16.134  0.00  0.00    +0.019 A 
ATOM     38  C   UNL     1      31.215  29.132  16.739  0.00  0.00    +0.120 A 
ATOM     39  N   UNL     1      30.448  30.213  17.163  0.00  0.00    -0.263 NA
ATOM     40  C   UNL     1      29.052  30.244  17.033  0.00  0.00    +0.111 A 
ENDBRANCH   4   3
ENDBRANCH  10   9
BRANCH  12  13
ATOM     13  N   UNL     1      32.346  20.040  12.027  0.00  0.00    -0.281 N 
ATOM     14  C   UNL     1      31.540  19.184  11.294  0.00  0.00    +0.248 C 
ATOM     30  O   UNL     1      30.798  19.539  10.390  0.00  0.00    -0.270 OA
ATOM     31  H   UNL     1      32.763  19.649  12.872  0.00  0.00    +0.155 HD
BRANCH  14  15
ATOM     15  C   UNL     1      31.549  17.726  11.622  0.00  0.00    +0.037 A 
ATOM     16  C   UNL     1      32.679  16.871  11.251  0.00  0.00    +0.013 A 
ATOM     17  C   UNL     1      32.654  15.464  11.564  0.00  0.00    +0.005 A 
ATOM     18  C   UNL     1      31.495  14.904  12.254  0.00  0.00    -0.033 A 
ATOM     28  C   UNL     1      30.389  15.776  12.614  0.00  0.00    +0.005 A 
ATOM     29  C   UNL     1      30.409  17.155  12.308  0.00  0.00    +0.013 A 
BRANCH  18  19
ATOM     19  C   UNL     1      31.373  13.410  12.609  0.00  0.00    +0.119 C 
BRANCH  19  20
ATOM     20  N   UNL     1      32.394  12.485  12.032  0.00  0.00    -0.302 NA
ATOM     21  C   UNL     1      31.786  11.525  11.007  0.00  0.00    +0.066 C 
ATOM     22  C   UNL     1      32.872  10.580  10.397  0.00  0.00    -0.064 C 
ATOM     23  N   UNL     1      33.560   9.805  11.523  0.00  0.00    +0.379 N 
ATOM     24  C   UNL     1      34.541   8.874  10.948  0.00  0.00    -0.096 C 
ATOM     25  H   UNL     1      32.781   9.199  12.041  0.00  0.00    -0.082 HD
ATOM     26  C   UNL     1      34.166  10.753  12.548  0.00  0.00    -0.064 C 
ATOM     27  C   UNL     1      33.083  11.707  13.126  0.00  0.00    +0.066 C 
ENDBRANCH  19  20
ENDBRANCH  18  19
ENDBRANCH  14  15
ENDBRANCH  12  13
TORSDOF 6
ENDMDL
MODEL 5
REMARK VINA RESULT:      -5.4      3.516      5.566
REMARK  Name = C:\Users\Docking\Desktop\test protocol\1iep_ligandH.pdb
REMARK  8 active torsions:
REMARK  status: ('A' for Active; 'I' for Inactive)
REMARK    1  A    between atoms: _5  and  _11
REMARK    2  A    between atoms: _19  and  _21
REMARK    3  A    between atoms: _22  and  _66
REMARK    4  A    between atoms: _27  and  _30
REMARK    5  A    between atoms: _32  and  _33
REMARK    6  A    between atoms: _38  and  _43
REMARK    7  A    between atoms: _43  and  _46
REMARK    8  A    between atoms: _53  and  _55
REMARK                            x       y       z     vdW  Elec       q    Type
REMARK                         _______ _______ _______ _____ _____    ______ ____
ROOT
ATOM     10  C   UNL     1      30.812  21.262  10.873  0.00  0.00    +0.038 A 
ATOM     11  C   UNL     1      31.405  20.077  11.376  0.00  0.00    +0.047 A 
ATOM     12  C   UNL     1      31.256  18.807  10.682  0.00  0.00    +0.035 A 
ATOM     32  C   UNL     1      30.499  18.782   9.475  0.00  0.00    +0.024 A 
ATOM     33  C   UNL     1      29.888  19.978   8.949  0.00  0.00    +0.007 A 
ATOM     34  C   UNL     1      30.029  21.232   9.632  0.00  0.00    -0.029 A 
ATOM     35  C   UNL     1      29.347  22.481   9.026  0.00  0.00    +0.045 C 
ENDROOT
BRANCH  10   9
ATOM      4  C   UNL     1      33.130  25.378  11.725  0.00  0.00    +0.077 A 
ATOM      5  C   UNL     1      34.090  25.120  10.691  0.00  0.00    +0.048 A 
ATOM      6  C   UNL     1      33.956  23.913   9.968  0.00  0.00    +0.116 A 
ATOM      7  N   UNL     1      32.935  23.038  10.265  0.00  0.00    -0.223 NA
ATOM      8  C   UNL     1      32.027  23.316  11.270  0.00  0.00    +0.220 A 
ATOM      9  N   UNL     1      30.987  22.454  11.580  0.00  0.00    -0.283 N 
ATOM     36  H   UNL     1      30.342  22.692  12.334  0.00  0.00    +0.155 HD
ATOM     37  N   UNL     1      32.134  24.461  11.976  0.00  0.00    -0.214 NA
BRANCH   4   3
ATOM      1  C   UNL     1      34.037  28.877  13.219  0.00  0.00    +0.020 A 
ATOM      2  C   UNL     1      34.073  27.708  12.370  0.00  0.00    +0.013 A 
ATOM      3  C   UNL     1      33.137  26.610  12.575  0.00  0.00    +0.019 A 
ATOM     38  C   UNL     1      32.168  26.728  13.655  0.00  0.00    +0.120 A 
ATOM     39  N   UNL     1      32.158  27.865  14.457  0.00  0.00    -0.263 NA
ATOM     40  C   UNL     1      33.056  28.927  14.271  0.00  0.00    +0.111 A 
ENDBRANCH   4   3
ENDBRANCH  10   9
BRANCH  12  13
ATOM     13  N   UNL     1      31.829  17.569  11.149  0.00  0.00    -0.281 N 
ATOM     14  C   UNL     1      31.202  16.552  11.850  0.00  0.00    +0.248 C 
ATOM     30  O   UNL     1      30.101  16.648  12.370  0.00  0.00    -0.270 OA
ATOM     31  H   UNL     1      32.817  17.425  10.937  0.00  0.00    +0.155 HD
BRANCH  14  15
ATOM     15  C   UNL     1      31.907  15.244  12.008  0.00  0.00    +0.037 A 
ATOM     16  C   UNL     1      31.204  14.056  12.500  0.00  0.00    +0.013 A 
ATOM     17  C   UNL     1      31.912  12.810  12.659  0.00  0.00    +0.005 A 
ATOM     18  C   UNL     1      33.333  12.746  12.325  0.00  0.00    -0.033 A 
ATOM     28  C   UNL     1      34.004  13.938  11.835  0.00  0.00    +0.005 A 
ATOM     29  C   UNL     1      33.314  15.161  11.678  0.00  0.00    +0.013 A 
BRANCH  18  19
ATOM     19  C   UNL     1      34.172  11.465  12.485  0.00  0.00    +0.119 C 
BRANCH  19  20
ATOM     20  N   UNL     1      34.775  10.885  11.248  0.00  0.00    -0.302 NA
ATOM     21  C   UNL     1      34.523   9.378  11.138  0.00  0.00    +0.066 C 
ATOM     22  C   UNL     1      35.142   8.792   9.827  0.00  0.00    -0.064 C 
ATOM     23  N   UNL     1      36.641   9.093   9.795  0.00  0.00    +0.379 N 
ATOM     24  C   UNL     1      37.236   8.493   8.592  0.00  0.00    -0.096 C 
ATOM     25  H   UNL     1      37.104   8.603  10.682  0.00  0.00    -0.082 HD
ATOM     26  C   UNL     1      36.901  10.589   9.906  0.00  0.00    -0.064 C 
ATOM     27  C   UNL     1      36.257  11.167  11.197  0.00  0.00    +0.066 C 
ENDBRANCH  19  20
ENDBRANCH  18  19
ENDBRANCH  14  15
ENDBRANCH  12  13
TORSDOF 6
ENDMDL
