MODEL 1
REMARK VINA RESULT:      -7.7      0.000      0.000
REMARK  Name = C:\Users\Docking\Desktop\test protocol\1iep_ligandH.pdb
REMARK  8 active torsions:
REMARK  status: ('A' for Active; 'I' for Inactive)
REMARK    1  A    between atoms: _5  and  _11
REMARK    2  A    between atoms: _19  and  _21
REMARK    3  A    between atoms: _22  and  _66
REMARK    4  A    between atoms: _27  and  _30
REMARK    5  A    between atoms: _32  and  _33
REMARK    6  A    between atoms: _38  and  _43
REMARK    7  A    between atoms: _43  and  _46
REMARK    8  A    between atoms: _53  and  _55
REMARK                            x       y       z     vdW  Elec       q    Type
REMARK                         _______ _______ _______ _____ _____    ______ ____
ROOT
ATOM     10  C   UNL     1     122.282  74.276  35.298  0.00  0.00    +0.038 A 
ATOM     11  C   UNL     1     121.467  75.198  36.004  0.00  0.00    +0.047 A 
ATOM     12  C   UNL     1     121.253  76.548  35.507  0.00  0.00    +0.035 A 
ATOM     32  C   UNL     1     121.882  76.925  34.285  0.00  0.00    +0.024 A 
ATOM     33  C   UNL     1     122.714  76.002  33.555  0.00  0.00    +0.007 A 
ATOM     34  C   UNL     1     122.931  74.670  34.042  0.00  0.00    -0.029 A 
ATOM     35  C   UNL     1     123.838  73.724  33.221  0.00  0.00    +0.045 C 
ENDROOT
BRANCH  10   9
ATOM      4  C   UNL     1     120.994  69.672  35.724  0.00  0.00    +0.077 A 
ATOM      5  C   UNL     1     119.868  69.845  34.852  0.00  0.00    +0.048 A 
ATOM      6  C   UNL     1     119.652  71.136  34.320  0.00  0.00    +0.116 A 
ATOM      7  N   UNL     1     120.504  72.170  34.643  0.00  0.00    -0.223 NA
ATOM      8  C   UNL     1     121.579  71.970  35.489  0.00  0.00    +0.220 A 
ATOM      9  N   UNL     1     122.453  72.993  35.821  0.00  0.00    -0.283 N 
ATOM     36  H   UNL     1     123.230  72.806  36.455  0.00  0.00    +0.155 HD
ATOM     37  N   UNL     1     121.806  70.746  36.011  0.00  0.00    -0.214 NA
BRANCH   4   3
ATOM      1  C   UNL     1     122.968  66.490  36.853  0.00  0.00    +0.020 A 
ATOM      2  C   UNL     1     122.669  67.751  36.215  0.00  0.00    +0.013 A 
ATOM      3  C   UNL     1     121.356  68.367  36.362  0.00  0.00    +0.019 A 
ATOM     38  C   UNL     1     120.361  67.677  37.168  0.00  0.00    +0.120 A 
ATOM     39  N   UNL     1     120.677  66.462  37.769  0.00  0.00    -0.263 NA
ATOM     40  C   UNL     1     121.936  65.859  37.633  0.00  0.00    +0.111 A 
ENDBRANCH   4   3
ENDBRANCH  10   9
BRANCH  12  13
ATOM     13  N   UNL     1     120.442  77.529  36.185  0.00  0.00    -0.281 N 
ATOM     14  C   UNL     1     119.096  77.797  35.999  0.00  0.00    +0.248 C 
ATOM     30  O   UNL     1     118.430  77.377  35.065  0.00  0.00    -0.270 OA
ATOM     31  H   UNL     1     120.919  78.095  36.887  0.00  0.00    +0.155 HD
BRANCH  14  15
ATOM     15  C   UNL     1     118.391  78.671  36.986  0.00  0.00    +0.037 A 
ATOM     16  C   UNL     1     117.090  79.270  36.677  0.00  0.00    +0.013 A 
ATOM     17  C   UNL     1     116.439  80.122  37.640  0.00  0.00    +0.005 A 
ATOM     18  C   UNL     1     117.089  80.380  38.923  0.00  0.00    -0.033 A 
ATOM     28  C   UNL     1     118.378  79.769  39.205  0.00  0.00    +0.005 A 
ATOM     29  C   UNL     1     119.019  78.934  38.263  0.00  0.00    +0.013 A 
BRANCH  18  19
ATOM     19  C   UNL     1     116.478  81.294  40.002  0.00  0.00    +0.119 C 
BRANCH  19  20
ATOM     20  N   UNL     1     117.194  81.381  41.309  0.00  0.00    -0.302 NA
ATOM     21  C   UNL     1     116.553  80.488  42.376  0.00  0.00    +0.066 C 
ATOM     22  C   UNL     1     117.328  80.575  43.731  0.00  0.00    -0.064 C 
ATOM     23  N   UNL     1     117.371  82.031  44.198  0.00  0.00    +0.379 N 
ATOM     24  C   UNL     1     118.048  82.108  45.501  0.00  0.00    -0.096 C 
ATOM     25  H   UNL     1     116.319  82.370  44.343  0.00  0.00    -0.082 HD
ATOM     26  C   UNL     1     118.004  82.926  43.143  0.00  0.00    -0.064 C 
ATOM     27  C   UNL     1     117.244  82.810  41.792  0.00  0.00    +0.066 C 
ENDBRANCH  19  20
ENDBRANCH  18  19
ENDBRANCH  14  15
ENDBRANCH  12  13
TORSDOF 6
ENDMDL
MODEL 2
REMARK VINA RESULT:      -7.6     34.356     38.060
REMARK  Name = C:\Users\Docking\Desktop\test protocol\1iep_ligandH.pdb
REMARK  8 active torsions:
REMARK  status: ('A' for Active; 'I' for Inactive)
REMARK    1  A    between atoms: _5  and  _11
REMARK    2  A    between atoms: _19  and  _21
REMARK    3  A    between atoms: _22  and  _66
REMARK    4  A    between atoms: _27  and  _30
REMARK    5  A    between atoms: _32  and  _33
REMARK    6  A    between atoms: _38  and  _43
REMARK    7  A    between atoms: _43  and  _46
REMARK    8  A    between atoms: _53  and  _55
REMARK                            x       y       z     vdW  Elec       q    Type
REMARK                         _______ _______ _______ _____ _____    ______ ____
ROOT
ATOM     10  C   UNL     1     120.092  78.162  72.608  0.00  0.00    +0.038 A 
ATOM     11  C   UNL     1     120.778  79.053  73.472  0.00  0.00    +0.047 A 
ATOM     12  C   UNL     1     120.588  80.492  73.373  0.00  0.00    +0.035 A 
ATOM     32  C   UNL     1     119.690  80.988  72.383  0.00  0.00    +0.024 A 
ATOM     33  C   UNL     1     118.986  80.096  71.496  0.00  0.00    +0.007 A 
ATOM     34  C   UNL     1     119.171  78.676  71.588  0.00  0.00    -0.029 A 
ATOM     35  C   UNL     1     118.395  77.767  70.607  0.00  0.00    +0.045 C 
ENDROOT
BRANCH  10   9
ATOM      4  C   UNL     1     118.808  73.806  74.163  0.00  0.00    +0.077 A 
ATOM      5  C   UNL     1     117.611  74.311  74.771  0.00  0.00    +0.048 A 
ATOM      6  C   UNL     1     117.366  75.699  74.668  0.00  0.00    +0.116 A 
ATOM      7  N   UNL     1     118.259  76.511  74.003  0.00  0.00    -0.223 NA
ATOM      8  C   UNL     1     119.405  75.992  73.428  0.00  0.00    +0.220 A 
ATOM      9  N   UNL     1     120.312  76.789  72.748  0.00  0.00    -0.283 N 
ATOM     36  H   UNL     1     121.149  76.369  72.345  0.00  0.00    +0.155 HD
ATOM     37  N   UNL     1     119.662  74.670  73.515  0.00  0.00    -0.214 NA
BRANCH   4   3
ATOM      1  C   UNL     1     119.975  70.272  75.368  0.00  0.00    +0.020 A 
ATOM      2  C   UNL     1     119.603  71.668  75.402  0.00  0.00    +0.013 A 
ATOM      3  C   UNL     1     119.203  72.362  74.184  0.00  0.00    +0.019 A 
ATOM     38  C   UNL     1     119.191  71.609  72.939  0.00  0.00    +0.120 A 
ATOM     39  N   UNL     1     119.556  70.267  72.936  0.00  0.00    -0.263 NA
ATOM     40  C   UNL     1     119.944  69.589  74.101  0.00  0.00    +0.111 A 
ENDBRANCH   4   3
ENDBRANCH  10   9
BRANCH  12  13
ATOM     13  N   UNL     1     121.263  81.447  74.217  0.00  0.00    -0.281 N 
ATOM     14  C   UNL     1     121.217  81.545  75.598  0.00  0.00    +0.248 C 
ATOM     30  O   UNL     1     120.414  80.956  76.306  0.00  0.00    -0.270 OA
ATOM     31  H   UNL     1     121.846  82.134  73.738  0.00  0.00    +0.155 HD
BRANCH  14  15
ATOM     15  C   UNL     1     122.194  82.438  76.292  0.00  0.00    +0.037 A 
ATOM     16  C   UNL     1     121.847  83.118  77.542  0.00  0.00    +0.013 A 
ATOM     17  C   UNL     1     122.803  83.988  78.181  0.00  0.00    +0.005 A 
ATOM     18  C   UNL     1     124.116  84.180  77.571  0.00  0.00    -0.033 A 
ATOM     28  C   UNL     1     124.436  83.488  76.334  0.00  0.00    +0.005 A 
ATOM     29  C   UNL     1     123.502  82.637  75.703  0.00  0.00    +0.013 A 
BRANCH  18  19
ATOM     19  C   UNL     1     125.190  85.106  78.173  0.00  0.00    +0.119 C 
BRANCH  19  20
ATOM     20  N   UNL     1     125.768  86.154  77.280  0.00  0.00    -0.302 NA
ATOM     21  C   UNL     1     126.872  86.956  77.975  0.00  0.00    +0.066 C 
ATOM     22  C   UNL     1     127.481  88.033  77.019  0.00  0.00    -0.064 C 
ATOM     23  N   UNL     1     126.368  88.959  76.524  0.00  0.00    +0.379 N 
ATOM     24  C   UNL     1     126.946  90.008  75.671  0.00  0.00    -0.096 C 
ATOM     25  H   UNL     1     125.921  89.456  77.416  0.00  0.00    -0.082 HD
ATOM     26  C   UNL     1     125.265  88.169  75.834  0.00  0.00    -0.064 C 
ATOM     27  C   UNL     1     124.687  87.082  76.783  0.00  0.00    +0.066 C 
ENDBRANCH  19  20
ENDBRANCH  18  19
ENDBRANCH  14  15
ENDBRANCH  12  13
TORSDOF 6
ENDMDL
MODEL 3
REMARK VINA RESULT:      -7.3      9.815     15.394
REMARK  Name = C:\Users\Docking\Desktop\test protocol\1iep_ligandH.pdb
REMARK  8 active torsions:
REMARK  status: ('A' for Active; 'I' for Inactive)
REMARK    1  A    between atoms: _5  and  _11
REMARK    2  A    between atoms: _19  and  _21
REMARK    3  A    between atoms: _22  and  _66
REMARK    4  A    between atoms: _27  and  _30
REMARK    5  A    between atoms: _32  and  _33
REMARK    6  A    between atoms: _38  and  _43
REMARK    7  A    between atoms: _43  and  _46
REMARK    8  A    between atoms: _53  and  _55
REMARK                            x       y       z     vdW  Elec       q    Type
REMARK                         _______ _______ _______ _____ _____    ______ ____
ROOT
ATOM     10  C   UNL     1     112.140  81.258  28.299  0.00  0.00    +0.038 A 
ATOM     11  C   UNL     1     113.215  81.049  29.201  0.00  0.00    +0.047 A 
ATOM     12  C   UNL     1     114.067  79.874  29.096  0.00  0.00    +0.035 A 
ATOM     32  C   UNL     1     113.797  78.934  28.059  0.00  0.00    +0.024 A 
ATOM     33  C   UNL     1     112.708  79.131  27.135  0.00  0.00    +0.007 A 
ATOM     34  C   UNL     1     111.863  80.286  27.235  0.00  0.00    -0.029 A 
ATOM     35  C   UNL     1     110.706  80.442  26.221  0.00  0.00    +0.045 C 
ENDROOT
BRANCH  10   9
ATOM      4  C   UNL     1     110.999  85.781  27.171  0.00  0.00    +0.077 A 
ATOM      5  C   UNL     1     112.077  85.881  26.229  0.00  0.00    +0.048 A 
ATOM      6  C   UNL     1     112.906  84.748  26.070  0.00  0.00    +0.116 A 
ATOM      7  N   UNL     1     112.666  83.606  26.803  0.00  0.00    -0.223 NA
ATOM      8  C   UNL     1     111.619  83.544  27.704  0.00  0.00    +0.220 A 
ATOM      9  N   UNL     1     111.354  82.403  28.446  0.00  0.00    -0.283 N 
ATOM     36  H   UNL     1     110.577  82.400  29.106  0.00  0.00    +0.155 HD
ATOM     37  N   UNL     1     110.814  84.613  27.875  0.00  0.00    -0.214 NA
BRANCH   4   3
ATOM      1  C   UNL     1     107.737  87.771  28.004  0.00  0.00    +0.020 A 
ATOM      2  C   UNL     1     108.626  86.663  27.743  0.00  0.00    +0.013 A 
ATOM      3  C   UNL     1     110.035  86.892  27.448  0.00  0.00    +0.019 A 
ATOM     38  C   UNL     1     110.516  88.266  27.425  0.00  0.00    +0.120 A 
ATOM     39  N   UNL     1     109.635  89.313  27.679  0.00  0.00    -0.263 NA
ATOM     40  C   UNL     1     108.277  89.105  27.963  0.00  0.00    +0.111 A 
ENDBRANCH   4   3
ENDBRANCH  10   9
BRANCH  12  13
ATOM     13  N   UNL     1     115.168  79.604  29.988  0.00  0.00    -0.281 N 
ATOM     14  C   UNL     1     116.276  80.397  30.236  0.00  0.00    +0.248 C 
ATOM     30  O   UNL     1     116.597  81.367  29.566  0.00  0.00    -0.270 OA
ATOM     31  H   UNL     1     115.124  78.722  30.497  0.00  0.00    +0.155 HD
BRANCH  14  15
ATOM     15  C   UNL     1     117.165  80.055  31.388  0.00  0.00    +0.037 A 
ATOM     16  C   UNL     1     116.721  80.238  32.772  0.00  0.00    +0.013 A 
ATOM     17  C   UNL     1     117.604  79.916  33.864  0.00  0.00    +0.005 A 
ATOM     18  C   UNL     1     118.942  79.405  33.576  0.00  0.00    -0.033 A 
ATOM     28  C   UNL     1     119.355  79.227  32.194  0.00  0.00    +0.005 A 
ATOM     29  C   UNL     1     118.492  79.543  31.121  0.00  0.00    +0.013 A 
BRANCH  18  19
ATOM     19  C   UNL     1     119.959  79.055  34.679  0.00  0.00    +0.119 C 
BRANCH  19  20
ATOM     20  N   UNL     1     120.201  77.606  34.951  0.00  0.00    -0.302 NA
ATOM     21  C   UNL     1     120.032  77.265  36.434  0.00  0.00    +0.066 C 
ATOM     22  C   UNL     1     120.266  75.742  36.698  0.00  0.00    -0.064 C 
ATOM     23  N   UNL     1     121.661  75.351  36.208  0.00  0.00    +0.379 N 
ATOM     24  C   UNL     1     121.907  73.933  36.507  0.00  0.00    -0.096 C 
ATOM     25  H   UNL     1     122.403  75.952  36.784  0.00  0.00    -0.082 HD
ATOM     26  C   UNL     1     121.839  75.690  34.734  0.00  0.00    -0.064 C 
ATOM     27  C   UNL     1     121.575  77.200  34.479  0.00  0.00    +0.066 C 
ENDBRANCH  19  20
ENDBRANCH  18  19
ENDBRANCH  14  15
ENDBRANCH  12  13
TORSDOF 6
ENDMDL
