MODEL 1
REMARK VINA RESULT:      -8.9      0.000      0.000
REMARK  Name = C:\Users\Docking\Desktop\test protocol\1iep_ligandH.pdb
REMARK  8 active torsions:
REMARK  status: ('A' for Active; 'I' for Inactive)
REMARK    1  A    between atoms: _5  and  _11
REMARK    2  A    between atoms: _19  and  _21
REMARK    3  A    between atoms: _22  and  _66
REMARK    4  A    between atoms: _27  and  _30
REMARK    5  A    between atoms: _32  and  _33
REMARK    6  A    between atoms: _38  and  _43
REMARK    7  A    between atoms: _43  and  _46
REMARK    8  A    between atoms: _53  and  _55
REMARK                            x       y       z     vdW  Elec       q    Type
REMARK                         _______ _______ _______ _____ _____    ______ ____
ROOT
ATOM     10  C   UNL     1      12.460  13.725  25.517  0.00  0.00    +0.038 A 
ATOM     11  C   UNL     1      13.215  13.530  24.332  0.00  0.00    +0.047 A 
ATOM     12  C   UNL     1      14.664  13.416  24.373  0.00  0.00    +0.035 A 
ATOM     32  C   UNL     1      15.313  13.503  25.640  0.00  0.00    +0.024 A 
ATOM     33  C   UNL     1      14.561  13.702  26.854  0.00  0.00    +0.007 A 
ATOM     34  C   UNL     1      13.131  13.818  26.819  0.00  0.00    -0.029 A 
ATOM     35  C   UNL     1      12.377  14.037  28.151  0.00  0.00    +0.045 C 
ENDROOT
BRANCH  10   9
ATOM      4  C   UNL     1       8.059  11.812  25.595  0.00  0.00    +0.077 A 
ATOM      5  C   UNL     1       8.572  10.492  25.824  0.00  0.00    +0.048 A 
ATOM      6  C   UNL     1       9.975  10.347  25.908  0.00  0.00    +0.116 A 
ATOM      7  N   UNL     1      10.794  11.447  25.772  0.00  0.00    -0.223 NA
ATOM      8  C   UNL     1      10.266  12.706  25.550  0.00  0.00    +0.220 A 
ATOM      9  N   UNL     1      11.070  13.827  25.419  0.00  0.00    -0.283 N 
ATOM     36  H   UNL     1      10.643  14.737  25.249  0.00  0.00    +0.155 HD
ATOM     37  N   UNL     1       8.930  12.870  25.465  0.00  0.00    -0.214 NA
BRANCH   4   3
ATOM      1  C   UNL     1       4.194  11.862  26.201  0.00  0.00    +0.020 A 
ATOM      2  C   UNL     1       5.591  11.523  26.348  0.00  0.00    +0.013 A 
ATOM      3  C   UNL     1       6.599  12.126  25.485  0.00  0.00    +0.019 A 
ATOM     38  C   UNL     1       6.157  13.077  24.476  0.00  0.00    +0.120 A 
ATOM     39  N   UNL     1       4.805  13.383  24.357  0.00  0.00    -0.263 NA
ATOM     40  C   UNL     1       3.826  12.807  25.180  0.00  0.00    +0.111 A 
ENDBRANCH   4   3
ENDBRANCH  10   9
BRANCH  12  13
ATOM     13  N   UNL     1      15.484  13.225  23.203  0.00  0.00    -0.281 N 
ATOM     14  C   UNL     1      16.039  14.196  22.385  0.00  0.00    +0.248 C 
ATOM     30  O   UNL     1      15.737  15.379  22.413  0.00  0.00    -0.270 OA
ATOM     31  H   UNL     1      15.678  12.258  22.946  0.00  0.00    +0.155 HD
BRANCH  14  15
ATOM     15  C   UNL     1      17.069  13.790  21.380  0.00  0.00    +0.037 A 
ATOM     16  C   UNL     1      17.535  12.404  21.287  0.00  0.00    +0.013 A 
ATOM     17  C   UNL     1      18.542  12.044  20.320  0.00  0.00    +0.005 A 
ATOM     18  C   UNL     1      19.089  13.072  19.438  0.00  0.00    -0.033 A 
ATOM     28  C   UNL     1      18.605  14.438  19.549  0.00  0.00    +0.005 A 
ATOM     29  C   UNL     1      17.619  14.795  20.496  0.00  0.00    +0.013 A 
BRANCH  18  19
ATOM     19  C   UNL     1      20.181  12.781  18.392  0.00  0.00    +0.119 C 
BRANCH  19  20
ATOM     20  N   UNL     1      21.587  13.133  18.755  0.00  0.00    -0.302 NA
ATOM     21  C   UNL     1      22.379  13.649  17.551  0.00  0.00    +0.066 C 
ATOM     22  C   UNL     1      23.840  14.034  17.953  0.00  0.00    -0.064 C 
ATOM     23  N   UNL     1      24.531  12.819  18.575  0.00  0.00    +0.379 N 
ATOM     24  C   UNL     1      25.923  13.160  18.902  0.00  0.00    -0.096 C 
ATOM     25  H   UNL     1      24.552  12.011  17.807  0.00  0.00    -0.082 HD
ATOM     26  C   UNL     1      23.748  12.297  19.772  0.00  0.00    -0.064 C 
ATOM     27  C   UNL     1      22.289  11.946  19.367  0.00  0.00    +0.066 C 
ENDBRANCH  19  20
ENDBRANCH  18  19
ENDBRANCH  14  15
ENDBRANCH  12  13
TORSDOF 6
ENDMDL
MODEL 2
REMARK VINA RESULT:      -8.8      2.533     13.903
REMARK  Name = C:\Users\Docking\Desktop\test protocol\1iep_ligandH.pdb
REMARK  8 active torsions:
REMARK  status: ('A' for Active; 'I' for Inactive)
REMARK    1  A    between atoms: _5  and  _11
REMARK    2  A    between atoms: _19  and  _21
REMARK    3  A    between atoms: _22  and  _66
REMARK    4  A    between atoms: _27  and  _30
REMARK    5  A    between atoms: _32  and  _33
REMARK    6  A    between atoms: _38  and  _43
REMARK    7  A    between atoms: _43  and  _46
REMARK    8  A    between atoms: _53  and  _55
REMARK                            x       y       z     vdW  Elec       q    Type
REMARK                         _______ _______ _______ _____ _____    ______ ____
ROOT
ATOM     10  C   UNL     1      13.989  13.006  24.983  0.00  0.00    +0.038 A 
ATOM     11  C   UNL     1      12.627  13.003  24.587  0.00  0.00    +0.047 A 
ATOM     12  C   UNL     1      11.589  13.534  25.457  0.00  0.00    +0.035 A 
ATOM     32  C   UNL     1      11.974  14.062  26.723  0.00  0.00    +0.024 A 
ATOM     33  C   UNL     1      13.354  14.072  27.143  0.00  0.00    +0.007 A 
ATOM     34  C   UNL     1      14.382  13.548  26.290  0.00  0.00    -0.029 A 
ATOM     35  C   UNL     1      15.843  13.578  26.794  0.00  0.00    +0.045 C 
ENDROOT
BRANCH  10   9
ATOM      4  C   UNL     1      17.159  13.472  21.410  0.00  0.00    +0.077 A 
ATOM      5  C   UNL     1      16.868  14.868  21.255  0.00  0.00    +0.048 A 
ATOM      6  C   UNL     1      15.891  15.426  22.109  0.00  0.00    +0.116 A 
ATOM      7  N   UNL     1      15.259  14.637  23.046  0.00  0.00    -0.223 NA
ATOM      8  C   UNL     1      15.562  13.294  23.168  0.00  0.00    +0.220 A 
ATOM      9  N   UNL     1      14.944  12.484  24.109  0.00  0.00    -0.283 N 
ATOM     36  H   UNL     1      15.190  11.495  24.162  0.00  0.00    +0.155 HD
ATOM     37  N   UNL     1      16.490  12.737  22.363  0.00  0.00    -0.214 NA
BRANCH   4   3
ATOM      1  C   UNL     1      19.811  12.586  18.675  0.00  0.00    +0.020 A 
ATOM      2  C   UNL     1      18.843  13.338  19.439  0.00  0.00    +0.013 A 
ATOM      3  C   UNL     1      18.169  12.738  20.584  0.00  0.00    +0.019 A 
ATOM     38  C   UNL     1      18.501  11.364  20.931  0.00  0.00    +0.120 A 
ATOM     39  N   UNL     1      19.436  10.664  20.176  0.00  0.00    -0.263 NA
ATOM     40  C   UNL     1      20.090  11.230  19.071  0.00  0.00    +0.111 A 
ENDBRANCH   4   3
ENDBRANCH  10   9
BRANCH  12  13
ATOM     13  N   UNL     1      10.189  13.550  25.111  0.00  0.00    -0.281 N 
ATOM     14  C   UNL     1       9.467  12.580  24.436  0.00  0.00    +0.248 C 
ATOM     30  O   UNL     1       9.966  11.640  23.836  0.00  0.00    -0.270 OA
ATOM     31  H   UNL     1       9.667  14.378  25.400  0.00  0.00    +0.155 HD
BRANCH  14  15
ATOM     15  C   UNL     1       7.976  12.675  24.412  0.00  0.00    +0.037 A 
ATOM     16  C   UNL     1       7.291  13.940  24.689  0.00  0.00    +0.013 A 
ATOM     17  C   UNL     1       5.851  14.001  24.676  0.00  0.00    +0.005 A 
ATOM     18  C   UNL     1       5.086  12.791  24.384  0.00  0.00    -0.033 A 
ATOM     28  C   UNL     1       5.791  11.551  24.108  0.00  0.00    +0.005 A 
ATOM     29  C   UNL     1       7.202  11.487  24.120  0.00  0.00    +0.013 A 
BRANCH  18  19
ATOM     19  C   UNL     1       3.546  12.759  24.370  0.00  0.00    +0.119 C 
BRANCH  19  20
ATOM     20  N   UNL     1       2.845  12.967  25.672  0.00  0.00    -0.302 NA
ATOM     21  C   UNL     1       3.223  11.901  26.704  0.00  0.00    +0.066 C 
ATOM     22  C   UNL     1       2.499  12.147  28.068  0.00  0.00    -0.064 C 
ATOM     23  N   UNL     1       0.986  12.170  27.842  0.00  0.00    +0.379 N 
ATOM     24  C   UNL     1       0.300  12.344  29.130  0.00  0.00    -0.096 C 
ATOM     25  H   UNL     1       0.691  11.176  27.432  0.00  0.00    -0.082 HD
ATOM     26  C   UNL     1       0.602  13.226  26.814  0.00  0.00    -0.064 C 
ATOM     27  C   UNL     1       1.350  12.989  25.473  0.00  0.00    +0.066 C 
ENDBRANCH  19  20
ENDBRANCH  18  19
ENDBRANCH  14  15
ENDBRANCH  12  13
TORSDOF 6
ENDMDL
MODEL 3
REMARK VINA RESULT:      -8.6      3.397     14.127
REMARK  Name = C:\Users\Docking\Desktop\test protocol\1iep_ligandH.pdb
REMARK  8 active torsions:
REMARK  status: ('A' for Active; 'I' for Inactive)
REMARK    1  A    between atoms: _5  and  _11
REMARK    2  A    between atoms: _19  and  _21
REMARK    3  A    between atoms: _22  and  _66
REMARK    4  A    between atoms: _27  and  _30
REMARK    5  A    between atoms: _32  and  _33
REMARK    6  A    between atoms: _38  and  _43
REMARK    7  A    between atoms: _43  and  _46
REMARK    8  A    between atoms: _53  and  _55
REMARK                            x       y       z     vdW  Elec       q    Type
REMARK                         _______ _______ _______ _____ _____    ______ ____
ROOT
ATOM     10  C   UNL     1      12.370  13.288  26.160  0.00  0.00    +0.038 A 
ATOM     11  C   UNL     1      11.021  13.047  25.793  0.00  0.00    +0.047 A 
ATOM     12  C   UNL     1      10.093  12.409  26.713  0.00  0.00    +0.035 A 
ATOM     32  C   UNL     1      10.572  12.032  28.002  0.00  0.00    +0.024 A 
ATOM     33  C   UNL     1      11.940  12.268  28.391  0.00  0.00    +0.007 A 
ATOM     34  C   UNL     1      12.861  12.895  27.487  0.00  0.00    -0.029 A 
ATOM     35  C   UNL     1      14.317  13.118  27.955  0.00  0.00    +0.045 C 
ENDROOT
BRANCH  10   9
ATOM      4  C   UNL     1      15.702  13.128  22.709  0.00  0.00    +0.077 A 
ATOM      5  C   UNL     1      15.780  11.696  22.770  0.00  0.00    +0.048 A 
ATOM      6  C   UNL     1      14.952  11.040  23.707  0.00  0.00    +0.116 A 
ATOM      7  N   UNL     1      14.111  11.771  24.519  0.00  0.00    -0.223 NA
ATOM      8  C   UNL     1      14.061  13.150  24.436  0.00  0.00    +0.220 A 
ATOM      9  N   UNL     1      13.218  13.905  25.237  0.00  0.00    -0.283 N 
ATOM     36  H   UNL     1      13.216  14.921  25.151  0.00  0.00    +0.155 HD
ATOM     37  N   UNL     1      14.844  13.801  23.550  0.00  0.00    -0.214 NA
BRANCH   4   3
ATOM      1  C   UNL     1      18.257  14.252  19.969  0.00  0.00    +0.020 A 
ATOM      2  C   UNL     1      17.502  13.400  20.858  0.00  0.00    +0.013 A 
ATOM      3  C   UNL     1      16.513  13.964  21.768  0.00  0.00    +0.019 A 
ATOM     38  C   UNL     1      16.310  15.405  21.753  0.00  0.00    +0.120 A 
ATOM     39  N   UNL     1      17.054  16.200  20.887  0.00  0.00    -0.263 NA
ATOM     40  C   UNL     1      18.010  15.669  20.008  0.00  0.00    +0.111 A 
ENDBRANCH   4   3
ENDBRANCH  10   9
BRANCH  12  13
ATOM     13  N   UNL     1       8.715  12.131  26.393  0.00  0.00    -0.281 N 
ATOM     14  C   UNL     1       7.909  12.775  25.468  0.00  0.00    +0.248 C 
ATOM     30  O   UNL     1       8.190  13.833  24.924  0.00  0.00    -0.270 OA
ATOM     31  H   UNL     1       8.281  11.368  26.911  0.00  0.00    +0.155 HD
BRANCH  14  15
ATOM     15  C   UNL     1       6.595  12.162  25.105  0.00  0.00    +0.037 A 
ATOM     16  C   UNL     1       6.295  10.764  25.422  0.00  0.00    +0.013 A 
ATOM     17  C   UNL     1       5.026  10.193  25.046  0.00  0.00    +0.005 A 
ATOM     18  C   UNL     1       4.046  11.023  24.349  0.00  0.00    -0.033 A 
ATOM     28  C   UNL     1       4.368  12.409  24.052  0.00  0.00    +0.005 A 
ATOM     29  C   UNL     1       5.611  12.971  24.418  0.00  0.00    +0.013 A 
BRANCH  18  19
ATOM     19  C   UNL     1       2.675  10.491  23.891  0.00  0.00    +0.119 C 
BRANCH  19  20
ATOM     20  N   UNL     1       1.540  10.610  24.854  0.00  0.00    -0.302 NA
ATOM     21  C   UNL     1       0.378   9.682  24.488  0.00  0.00    +0.066 C 
ATOM     22  C   UNL     1      -0.792   9.802  25.518  0.00  0.00    -0.064 C 
ATOM     23  N   UNL     1      -1.261  11.257  25.585  0.00  0.00    +0.379 N 
ATOM     24  C   UNL     1      -2.400  11.363  26.510  0.00  0.00    -0.096 C 
ATOM     25  H   UNL     1      -1.622  11.543  24.570  0.00  0.00    -0.082 HD
ATOM     26  C   UNL     1      -0.111  12.187  25.945  0.00  0.00    -0.064 C 
ATOM     27  C   UNL     1       1.058  12.038  24.932  0.00  0.00    +0.066 C 
ENDBRANCH  19  20
ENDBRANCH  18  19
ENDBRANCH  14  15
ENDBRANCH  12  13
TORSDOF 6
ENDMDL
