MODEL 1
REMARK VINA RESULT:      -7.5      0.000      0.000
REMARK  Name = C:\Users\Docking\Desktop\test protocol\1iep_ligandH.pdb
REMARK  8 active torsions:
REMARK  status: ('A' for Active; 'I' for Inactive)
REMARK    1  A    between atoms: _5  and  _11
REMARK    2  A    between atoms: _19  and  _21
REMARK    3  A    between atoms: _22  and  _66
REMARK    4  A    between atoms: _27  and  _30
REMARK    5  A    between atoms: _32  and  _33
REMARK    6  A    between atoms: _38  and  _43
REMARK    7  A    between atoms: _43  and  _46
REMARK    8  A    between atoms: _53  and  _55
REMARK                            x       y       z     vdW  Elec       q    Type
REMARK                         _______ _______ _______ _____ _____    ______ ____
ROOT
ATOM     10  C   UNL     1      12.936  -1.921   0.204  0.00  0.00    +0.038 A 
ATOM     11  C   UNL     1      12.392  -2.681  -0.862  0.00  0.00    +0.047 A 
ATOM     12  C   UNL     1      12.675  -4.102  -0.994  0.00  0.00    +0.035 A 
ATOM     32  C   UNL     1      13.516  -4.716  -0.021  0.00  0.00    +0.024 A 
ATOM     33  C   UNL     1      14.078  -3.958   1.069  0.00  0.00    +0.007 A 
ATOM     34  C   UNL     1      13.804  -2.556   1.203  0.00  0.00    -0.029 A 
ATOM     35  C   UNL     1      14.440  -1.792   2.388  0.00  0.00    +0.045 C 
ENDROOT
BRANCH  10   9
ATOM      4  C   UNL     1       9.828   1.695   0.758  0.00  0.00    +0.077 A 
ATOM      5  C   UNL     1       8.714   0.798   0.873  0.00  0.00    +0.048 A 
ATOM      6  C   UNL     1       8.983  -0.586   0.777  0.00  0.00    +0.116 A 
ATOM      7  N   UNL     1      10.273  -1.029   0.581  0.00  0.00    -0.223 NA
ATOM      8  C   UNL     1      11.324  -0.137   0.473  0.00  0.00    +0.220 A 
ATOM      9  N   UNL     1      12.631  -0.560   0.283  0.00  0.00    -0.283 N 
ATOM     36  H   UNL     1      13.377   0.130   0.201  0.00  0.00    +0.155 HD
ATOM     37  N   UNL     1      11.093   1.190   0.559  0.00  0.00    -0.214 NA
BRANCH   4   3
ATOM      1  C   UNL     1       8.401   5.300   1.274  0.00  0.00    +0.020 A 
ATOM      2  C   UNL     1       8.465   3.858   1.207  0.00  0.00    +0.013 A 
ATOM      3  C   UNL     1       9.705   3.184   0.842  0.00  0.00    +0.019 A 
ATOM     38  C   UNL     1      10.871   4.005   0.549  0.00  0.00    +0.120 A 
ATOM     39  N   UNL     1      10.778   5.392   0.620  0.00  0.00    -0.263 NA
ATOM     40  C   UNL     1       9.590   6.051   0.968  0.00  0.00    +0.111 A 
ENDBRANCH   4   3
ENDBRANCH  10   9
BRANCH  12  13
ATOM     13  N   UNL     1      12.157  -4.923  -2.060  0.00  0.00    -0.281 N 
ATOM     14  C   UNL     1      11.280  -5.990  -1.963  0.00  0.00    +0.248 C 
ATOM     30  O   UNL     1      10.971  -6.539  -0.915  0.00  0.00    -0.270 OA
ATOM     31  H   UNL     1      12.477  -4.689  -3.000  0.00  0.00    +0.155 HD
BRANCH  14  15
ATOM     15  C   UNL     1      10.667  -6.537  -3.212  0.00  0.00    +0.037 A 
ATOM     16  C   UNL     1      10.316  -7.955  -3.329  0.00  0.00    +0.013 A 
ATOM     17  C   UNL     1       9.742  -8.460  -4.551  0.00  0.00    +0.005 A 
ATOM     18  C   UNL     1       9.514  -7.545  -5.666  0.00  0.00    -0.033 A 
ATOM     28  C   UNL     1       9.866  -6.142  -5.522  0.00  0.00    +0.005 A 
ATOM     29  C   UNL     1      10.430  -5.644  -4.326  0.00  0.00    +0.013 A 
BRANCH  18  19
ATOM     19  C   UNL     1       8.925  -8.000  -7.015  0.00  0.00    +0.119 C 
BRANCH  19  20
ATOM     20  N   UNL     1       7.552  -8.587  -6.998  0.00  0.00    -0.302 NA
ATOM     21  C   UNL     1       7.100  -9.029  -8.393  0.00  0.00    +0.066 C 
ATOM     22  C   UNL     1       5.670  -9.661  -8.354  0.00  0.00    -0.064 C 
ATOM     23  N   UNL     1       4.686  -8.652  -7.760  0.00  0.00    +0.379 N 
ATOM     24  C   UNL     1       3.331  -9.222  -7.775  0.00  0.00    -0.096 C 
ATOM     25  H   UNL     1       4.683  -7.754  -8.421  0.00  0.00    -0.082 HD
ATOM     26  C   UNL     1       5.129  -8.205  -6.374  0.00  0.00    -0.064 C 
ATOM     27  C   UNL     1       6.563  -7.605  -6.420  0.00  0.00    +0.066 C 
ENDBRANCH  19  20
ENDBRANCH  18  19
ENDBRANCH  14  15
ENDBRANCH  12  13
TORSDOF 6
ENDMDL
MODEL 2
REMARK VINA RESULT:      -7.5      2.827      3.526
REMARK  Name = C:\Users\Docking\Desktop\test protocol\1iep_ligandH.pdb
REMARK  8 active torsions:
REMARK  status: ('A' for Active; 'I' for Inactive)
REMARK    1  A    between atoms: _5  and  _11
REMARK    2  A    between atoms: _19  and  _21
REMARK    3  A    between atoms: _22  and  _66
REMARK    4  A    between atoms: _27  and  _30
REMARK    5  A    between atoms: _32  and  _33
REMARK    6  A    between atoms: _38  and  _43
REMARK    7  A    between atoms: _43  and  _46
REMARK    8  A    between atoms: _53  and  _55
REMARK                            x       y       z     vdW  Elec       q    Type
REMARK                         _______ _______ _______ _____ _____    ______ ____
ROOT
ATOM     10  C   UNL     1      12.560  -1.974   0.189  0.00  0.00    +0.038 A 
ATOM     11  C   UNL     1      12.323  -2.518  -1.100  0.00  0.00    +0.047 A 
ATOM     12  C   UNL     1      12.532  -3.932  -1.370  0.00  0.00    +0.035 A 
ATOM     32  C   UNL     1      12.980  -4.765  -0.303  0.00  0.00    +0.024 A 
ATOM     33  C   UNL     1      13.227  -4.229   1.012  0.00  0.00    +0.007 A 
ATOM     34  C   UNL     1      13.025  -2.834   1.284  0.00  0.00    -0.029 A 
ATOM     35  C   UNL     1      13.312  -2.313   2.711  0.00  0.00    +0.045 C 
ENDROOT
BRANCH  10   9
ATOM      4  C   UNL     1       9.676   1.787   0.943  0.00  0.00    +0.077 A 
ATOM      5  C   UNL     1       8.499   0.968   0.902  0.00  0.00    +0.048 A 
ATOM      6  C   UNL     1       8.678  -0.416   0.678  0.00  0.00    +0.116 A 
ATOM      7  N   UNL     1       9.945  -0.930   0.508  0.00  0.00    -0.223 NA
ATOM      8  C   UNL     1      11.059  -0.112   0.552  0.00  0.00    +0.220 A 
ATOM      9  N   UNL     1      12.343  -0.610   0.392  0.00  0.00    -0.283 N 
ATOM     36  H   UNL     1      13.139   0.028   0.423  0.00  0.00    +0.155 HD
ATOM     37  N   UNL     1      10.914   1.212   0.764  0.00  0.00    -0.214 NA
BRANCH   4   3
ATOM      1  C   UNL     1       8.457   5.483   1.335  0.00  0.00    +0.020 A 
ATOM      2  C   UNL     1       8.428   4.058   1.103  0.00  0.00    +0.013 A 
ATOM      3  C   UNL     1       9.650   3.266   1.175  0.00  0.00    +0.019 A 
ATOM     38  C   UNL     1      10.894   3.952   1.488  0.00  0.00    +0.120 A 
ATOM     39  N   UNL     1      10.892   5.327   1.706  0.00  0.00    -0.263 NA
ATOM     40  C   UNL     1       9.723   6.099   1.637  0.00  0.00    +0.111 A 
ENDBRANCH   4   3
ENDBRANCH  10   9
BRANCH  12  13
ATOM     13  N   UNL     1      12.315  -4.539  -2.660  0.00  0.00    -0.281 N 
ATOM     14  C   UNL     1      11.348  -5.465  -3.014  0.00  0.00    +0.248 C 
ATOM     30  O   UNL     1      10.651  -6.076  -2.217  0.00  0.00    -0.270 OA
ATOM     31  H   UNL     1      12.953  -4.251  -3.402  0.00  0.00    +0.155 HD
BRANCH  14  15
ATOM     15  C   UNL     1      11.133  -5.767  -4.462  0.00  0.00    +0.037 A 
ATOM     16  C   UNL     1      12.172  -6.416  -5.265  0.00  0.00    +0.013 A 
ATOM     17  C   UNL     1      11.945  -6.681  -6.664  0.00  0.00    +0.005 A 
ATOM     18  C   UNL     1      10.672  -6.297  -7.268  0.00  0.00    -0.033 A 
ATOM     28  C   UNL     1       9.656  -5.660  -6.446  0.00  0.00    +0.005 A 
ATOM     29  C   UNL     1       9.875  -5.398  -5.075  0.00  0.00    +0.013 A 
BRANCH  18  19
ATOM     19  C   UNL     1      10.351  -6.522  -8.757  0.00  0.00    +0.119 C 
BRANCH  19  20
ATOM     20  N   UNL     1      10.000  -5.319  -9.570  0.00  0.00    -0.302 NA
ATOM     21  C   UNL     1       9.600  -5.690 -11.001  0.00  0.00    +0.066 C 
ATOM     22  C   UNL     1       9.213  -4.422 -11.830  0.00  0.00    -0.064 C 
ATOM     23  N   UNL     1      10.387  -3.441 -11.833  0.00  0.00    +0.379 N 
ATOM     24  C   UNL     1      10.048  -2.274 -12.660  0.00  0.00    -0.096 C 
ATOM     25  H   UNL     1      11.254  -3.953 -12.310  0.00  0.00    -0.082 HD
ATOM     26  C   UNL     1      10.793  -3.069 -10.414  0.00  0.00    -0.064 C 
ATOM     27  C   UNL     1      11.146  -4.339  -9.590  0.00  0.00    +0.066 C 
ENDBRANCH  19  20
ENDBRANCH  18  19
ENDBRANCH  14  15
ENDBRANCH  12  13
TORSDOF 6
ENDMDL
MODEL 3
REMARK VINA RESULT:      -7.5      6.437      9.657
REMARK  Name = C:\Users\Docking\Desktop\test protocol\1iep_ligandH.pdb
REMARK  8 active torsions:
REMARK  status: ('A' for Active; 'I' for Inactive)
REMARK    1  A    between atoms: _5  and  _11
REMARK    2  A    between atoms: _19  and  _21
REMARK    3  A    between atoms: _22  and  _66
REMARK    4  A    between atoms: _27  and  _30
REMARK    5  A    between atoms: _32  and  _33
REMARK    6  A    between atoms: _38  and  _43
REMARK    7  A    between atoms: _43  and  _46
REMARK    8  A    between atoms: _53  and  _55
REMARK                            x       y       z     vdW  Elec       q    Type
REMARK                         _______ _______ _______ _____ _____    ______ ____
ROOT
ATOM     10  C   UNL     1      12.206  -2.321   0.798  0.00  0.00    +0.038 A 
ATOM     11  C   UNL     1      11.977  -3.036   2.001  0.00  0.00    +0.047 A 
ATOM     12  C   UNL     1      12.104  -4.485   2.052  0.00  0.00    +0.035 A 
ATOM     32  C   UNL     1      12.468  -5.173   0.858  0.00  0.00    +0.024 A 
ATOM     33  C   UNL     1      12.702  -4.462  -0.375  0.00  0.00    +0.007 A 
ATOM     34  C   UNL     1      12.576  -3.034  -0.431  0.00  0.00    -0.029 A 
ATOM     35  C   UNL     1      12.833  -2.324  -1.781  0.00  0.00    +0.045 C 
ENDROOT
BRANCH  10   9
ATOM      4  C   UNL     1       9.543   1.672   0.757  0.00  0.00    +0.077 A 
ATOM      5  C   UNL     1       8.320   0.926   0.686  0.00  0.00    +0.048 A 
ATOM      6  C   UNL     1       8.419  -0.483   0.654  0.00  0.00    +0.116 A 
ATOM      7  N   UNL     1       9.656  -1.090   0.692  0.00  0.00    -0.223 NA
ATOM      8  C   UNL     1      10.816  -0.341   0.759  0.00  0.00    +0.220 A 
ATOM      9  N   UNL     1      12.070  -0.931   0.807  0.00  0.00    -0.283 N 
ATOM     36  H   UNL     1      12.902  -0.344   0.849  0.00  0.00    +0.155 HD
ATOM     37  N   UNL     1      10.748   1.006   0.789  0.00  0.00    -0.214 NA
BRANCH   4   3
ATOM      1  C   UNL     1       8.572   5.435   1.203  0.00  0.00    +0.020 A 
ATOM      2  C   UNL     1       8.462   3.994   1.176  0.00  0.00    +0.013 A 
ATOM      3  C   UNL     1       9.602   3.167   0.801  0.00  0.00    +0.019 A 
ATOM     38  C   UNL     1      10.849   3.834   0.457  0.00  0.00    +0.120 A 
ATOM     39  N   UNL     1      10.924   5.223   0.491  0.00  0.00    -0.263 NA
ATOM     40  C   UNL     1       9.833   6.029   0.848  0.00  0.00    +0.111 A 
ENDBRANCH   4   3
ENDBRANCH  10   9
BRANCH  12  13
ATOM     13  N   UNL     1      11.877  -5.265   3.243  0.00  0.00    -0.281 N 
ATOM     14  C   UNL     1      12.776  -5.552   4.257  0.00  0.00    +0.248 C 
ATOM     30  O   UNL     1      13.980  -5.358   4.189  0.00  0.00    -0.270 OA
ATOM     31  H   UNL     1      10.940  -5.653   3.351  0.00  0.00    +0.155 HD
BRANCH  14  15
ATOM     15  C   UNL     1      12.264  -6.156   5.525  0.00  0.00    +0.037 A 
ATOM     16  C   UNL     1      11.858  -7.562   5.588  0.00  0.00    +0.013 A 
ATOM     17  C   UNL     1      11.352  -8.115   6.819  0.00  0.00    +0.005 A 
ATOM     18  C   UNL     1      11.251  -7.260   8.000  0.00  0.00    -0.033 A 
ATOM     28  C   UNL     1      11.666  -5.870   7.911  0.00  0.00    +0.005 A 
ATOM     29  C   UNL     1      12.162  -5.324   6.706  0.00  0.00    +0.013 A 
BRANCH  18  19
ATOM     19  C   UNL     1      10.704  -7.760   9.350  0.00  0.00    +0.119 C 
BRANCH  19  20
ATOM     20  N   UNL     1       9.229  -7.974   9.452  0.00  0.00    -0.302 NA
ATOM     21  C   UNL     1       8.656  -7.411  10.755  0.00  0.00    +0.066 C 
ATOM     22  C   UNL     1       7.109  -7.623  10.836  0.00  0.00    -0.064 C 
ATOM     23  N   UNL     1       6.795  -9.115  10.706  0.00  0.00    +0.379 N 
ATOM     24  C   UNL     1       5.346  -9.324  10.839  0.00  0.00    -0.096 C 
ATOM     25  H   UNL     1       7.292  -9.640  11.554  0.00  0.00    -0.082 HD
ATOM     26  C   UNL     1       7.364  -9.684   9.414  0.00  0.00    -0.064 C 
ATOM     27  C   UNL     1       8.897  -9.441   9.331  0.00  0.00    +0.066 C 
ENDBRANCH  19  20
ENDBRANCH  18  19
ENDBRANCH  14  15
ENDBRANCH  12  13
TORSDOF 6
ENDMDL
MODEL 4
REMARK VINA RESULT:      -7.3      2.089      2.422
REMARK  Name = C:\Users\Docking\Desktop\test protocol\1iep_ligandH.pdb
REMARK  8 active torsions:
REMARK  status: ('A' for Active; 'I' for Inactive)
REMARK    1  A    between atoms: _5  and  _11
REMARK    2  A    between atoms: _19  and  _21
REMARK    3  A    between atoms: _22  and  _66
REMARK    4  A    between atoms: _27  and  _30
REMARK    5  A    between atoms: _32  and  _33
REMARK    6  A    between atoms: _38  and  _43
REMARK    7  A    between atoms: _43  and  _46
REMARK    8  A    between atoms: _53  and  _55
REMARK                            x       y       z     vdW  Elec       q    Type
REMARK                         _______ _______ _______ _____ _____    ______ ____
ROOT
ATOM     10  C   UNL     1      12.546  -1.918   0.187  0.00  0.00    +0.038 A 
ATOM     11  C   UNL     1      12.251  -2.440  -1.099  0.00  0.00    +0.047 A 
ATOM     12  C   UNL     1      12.466  -3.845  -1.408  0.00  0.00    +0.035 A 
ATOM     32  C   UNL     1      12.980  -4.691  -0.383  0.00  0.00    +0.024 A 
ATOM     33  C   UNL     1      13.286  -4.177   0.929  0.00  0.00    +0.007 A 
ATOM     34  C   UNL     1      13.079  -2.792   1.239  0.00  0.00    -0.029 A 
ATOM     35  C   UNL     1      13.431  -2.295   2.660  0.00  0.00    +0.045 C 
ENDROOT
BRANCH  10   9
ATOM      4  C   UNL     1       9.630   1.818   0.948  0.00  0.00    +0.077 A 
ATOM      5  C   UNL     1       8.456   1.002   0.826  0.00  0.00    +0.048 A 
ATOM      6  C   UNL     1       8.646  -0.372   0.560  0.00  0.00    +0.116 A 
ATOM      7  N   UNL     1       9.919  -0.883   0.428  0.00  0.00    -0.223 NA
ATOM      8  C   UNL     1      11.030  -0.068   0.550  0.00  0.00    +0.220 A 
ATOM      9  N   UNL     1      12.320  -0.561   0.429  0.00  0.00    -0.283 N 
ATOM     36  H   UNL     1      13.113   0.074   0.518  0.00  0.00    +0.155 HD
ATOM     37  N   UNL     1      10.875   1.248   0.802  0.00  0.00    -0.214 NA
BRANCH   4   3
ATOM      1  C   UNL     1       8.388   5.493   1.452  0.00  0.00    +0.020 A 
ATOM      2  C   UNL     1       8.369   4.076   1.169  0.00  0.00    +0.013 A 
ATOM      3  C   UNL     1       9.594   3.288   1.231  0.00  0.00    +0.019 A 
ATOM     38  C   UNL     1      10.830   3.968   1.586  0.00  0.00    +0.120 A 
ATOM     39  N   UNL     1      10.818   5.334   1.852  0.00  0.00    -0.263 NA
ATOM     40  C   UNL     1       9.646   6.103   1.793  0.00  0.00    +0.111 A 
ENDBRANCH   4   3
ENDBRANCH  10   9
BRANCH  12  13
ATOM     13  N   UNL     1      12.192  -4.430  -2.697  0.00  0.00    -0.281 N 
ATOM     14  C   UNL     1      11.228  -5.371  -3.018  0.00  0.00    +0.248 C 
ATOM     30  O   UNL     1      10.590  -6.014  -2.198  0.00  0.00    -0.270 OA
ATOM     31  H   UNL     1      12.781  -4.111  -3.467  0.00  0.00    +0.155 HD
BRANCH  14  15
ATOM     15  C   UNL     1      10.940  -5.647  -4.459  0.00  0.00    +0.037 A 
ATOM     16  C   UNL     1       9.670  -5.247  -5.070  0.00  0.00    +0.013 A 
ATOM     17  C   UNL     1       9.411  -5.541  -6.458  0.00  0.00    +0.005 A 
ATOM     18  C   UNL     1      10.426  -6.239  -7.243  0.00  0.00    -0.033 A 
ATOM     28  C   UNL     1      11.679  -6.620  -6.613  0.00  0.00    +0.005 A 
ATOM     29  C   UNL     1      11.936  -6.334  -5.253  0.00  0.00    +0.013 A 
BRANCH  18  19
ATOM     19  C   UNL     1      10.227  -6.612  -8.724  0.00  0.00    +0.119 C 
BRANCH  19  20
ATOM     20  N   UNL     1       8.882  -6.354  -9.319  0.00  0.00    -0.302 NA
ATOM     21  C   UNL     1       8.392  -7.533 -10.165  0.00  0.00    +0.066 C 
ATOM     22  C   UNL     1       6.974  -7.255 -10.761  0.00  0.00    -0.064 C 
ATOM     23  N   UNL     1       7.016  -5.972 -11.594  0.00  0.00    +0.379 N 
ATOM     24  C   UNL     1       5.698  -5.740 -12.203  0.00  0.00    -0.096 C 
ATOM     25  H   UNL     1       7.748  -6.130 -12.420  0.00  0.00    -0.082 HD
ATOM     26  C   UNL     1       7.505  -4.795 -10.761  0.00  0.00    -0.064 C 
ATOM     27  C   UNL     1       8.902  -5.094 -10.149  0.00  0.00    +0.066 C 
ENDBRANCH  19  20
ENDBRANCH  18  19
ENDBRANCH  14  15
ENDBRANCH  12  13
TORSDOF 6
ENDMDL
MODEL 5
REMARK VINA RESULT:      -7.0      1.868      2.451
REMARK  Name = C:\Users\Docking\Desktop\test protocol\1iep_ligandH.pdb
REMARK  8 active torsions:
REMARK  status: ('A' for Active; 'I' for Inactive)
REMARK    1  A    between atoms: _5  and  _11
REMARK    2  A    between atoms: _19  and  _21
REMARK    3  A    between atoms: _22  and  _66
REMARK    4  A    between atoms: _27  and  _30
REMARK    5  A    between atoms: _32  and  _33
REMARK    6  A    between atoms: _38  and  _43
REMARK    7  A    between atoms: _43  and  _46
REMARK    8  A    between atoms: _53  and  _55
REMARK                            x       y       z     vdW  Elec       q    Type
REMARK                         _______ _______ _______ _____ _____    ______ ____
ROOT
ATOM     10  C   UNL     1      13.283  -1.181   0.415  0.00  0.00    +0.038 A 
ATOM     11  C   UNL     1      12.579  -1.777  -0.663  0.00  0.00    +0.047 A 
ATOM     12  C   UNL     1      12.520  -3.222  -0.816  0.00  0.00    +0.035 A 
ATOM     32  C   UNL     1      13.187  -4.031   0.149  0.00  0.00    +0.024 A 
ATOM     33  C   UNL     1      13.908  -3.443   1.250  0.00  0.00    +0.007 A 
ATOM     34  C   UNL     1      13.972  -2.018   1.405  0.00  0.00    -0.029 A 
ATOM     35  C   UNL     1      14.764  -1.442   2.602  0.00  0.00    +0.045 C 
ENDROOT
BRANCH  10   9
ATOM      4  C   UNL     1      11.110   3.059   0.992  0.00  0.00    +0.077 A 
ATOM      5  C   UNL     1       9.814   2.450   1.078  0.00  0.00    +0.048 A 
ATOM      6  C   UNL     1       9.749   1.043   0.961  0.00  0.00    +0.116 A 
ATOM      7  N   UNL     1      10.901   0.311   0.774  0.00  0.00    -0.223 NA
ATOM      8  C   UNL     1      12.135   0.930   0.694  0.00  0.00    +0.220 A 
ATOM      9  N   UNL     1      13.307   0.212   0.514  0.00  0.00    -0.283 N 
ATOM     36  H   UNL     1      14.197   0.706   0.452  0.00  0.00    +0.155 HD
ATOM     37  N   UNL     1      12.223   2.272   0.801  0.00  0.00    -0.214 NA
BRANCH   4   3
ATOM      1  C   UNL     1      11.170   6.742   2.308  0.00  0.00    +0.020 A 
ATOM      2  C   UNL     1      10.921   5.320   2.253  0.00  0.00    +0.013 A 
ATOM      3  C   UNL     1      11.342   4.534   1.100  0.00  0.00    +0.019 A 
ATOM     38  C   UNL     1      12.018   5.223   0.011  0.00  0.00    +0.120 A 
ATOM     39  N   UNL     1      12.243   6.594   0.091  0.00  0.00    -0.263 NA
ATOM     40  C   UNL     1      11.841   7.361   1.195  0.00  0.00    +0.111 A 
ENDBRANCH   4   3
ENDBRANCH  10   9
BRANCH  12  13
ATOM     13  N   UNL     1      11.828  -3.883  -1.895  0.00  0.00    -0.281 N 
ATOM     14  C   UNL     1      12.378  -4.532  -2.988  0.00  0.00    +0.248 C 
ATOM     30  O   UNL     1      13.552  -4.457  -3.318  0.00  0.00    -0.270 OA
ATOM     31  H   UNL     1      10.809  -3.871  -1.846  0.00  0.00    +0.155 HD
BRANCH  14  15
ATOM     15  C   UNL     1      11.492  -5.374  -3.849  0.00  0.00    +0.037 A 
ATOM     16  C   UNL     1      10.033  -5.311  -3.728  0.00  0.00    +0.013 A 
ATOM     17  C   UNL     1       9.202  -6.147  -4.558  0.00  0.00    +0.005 A 
ATOM     18  C   UNL     1       9.829  -7.052  -5.518  0.00  0.00    -0.033 A 
ATOM     28  C   UNL     1      11.279  -7.090  -5.621  0.00  0.00    +0.005 A 
ATOM     29  C   UNL     1      12.096  -6.273  -4.808  0.00  0.00    +0.013 A 
BRANCH  18  19
ATOM     19  C   UNL     1       9.021  -7.995  -6.430  0.00  0.00    +0.119 C 
BRANCH  19  20
ATOM     20  N   UNL     1       8.756  -7.535  -7.825  0.00  0.00    -0.302 NA
ATOM     21  C   UNL     1       8.740  -6.007  -7.934  0.00  0.00    +0.066 C 
ATOM     22  C   UNL     1       8.483  -5.544  -9.405  0.00  0.00    -0.064 C 
ATOM     23  N   UNL     1       7.162  -6.135  -9.899  0.00  0.00    +0.379 N 
ATOM     24  C   UNL     1       6.889  -5.654 -11.262  0.00  0.00    -0.096 C 
ATOM     25  H   UNL     1       6.352  -5.753  -9.237  0.00  0.00    -0.082 HD
ATOM     26  C   UNL     1       7.168  -7.653  -9.793  0.00  0.00    -0.064 C 
ATOM     27  C   UNL     1       7.453  -8.104  -8.333  0.00  0.00    +0.066 C 
ENDBRANCH  19  20
ENDBRANCH  18  19
ENDBRANCH  14  15
ENDBRANCH  12  13
TORSDOF 6
ENDMDL
