MODEL 1
REMARK VINA RESULT:      -8.7      0.000      0.000
REMARK  Name = C:\Users\Docking\Desktop\test protocol\1iep_ligandH.pdb
REMARK  8 active torsions:
REMARK  status: ('A' for Active; 'I' for Inactive)
REMARK    1  A    between atoms: _5  and  _11
REMARK    2  A    between atoms: _19  and  _21
REMARK    3  A    between atoms: _22  and  _66
REMARK    4  A    between atoms: _27  and  _30
REMARK    5  A    between atoms: _32  and  _33
REMARK    6  A    between atoms: _38  and  _43
REMARK    7  A    between atoms: _43  and  _46
REMARK    8  A    between atoms: _53  and  _55
REMARK                            x       y       z     vdW  Elec       q    Type
REMARK                         _______ _______ _______ _____ _____    ______ ____
ROOT
ATOM     10  C   UNL     1      16.057   5.623  21.846  0.00  0.00    +0.038 A 
ATOM     11  C   UNL     1      15.379   6.844  21.599  0.00  0.00    +0.047 A 
ATOM     12  C   UNL     1      14.002   6.859  21.132  0.00  0.00    +0.035 A 
ATOM     32  C   UNL     1      13.344   5.611  20.928  0.00  0.00    +0.024 A 
ATOM     33  C   UNL     1      14.018   4.361  21.173  0.00  0.00    +0.007 A 
ATOM     34  C   UNL     1      15.378   4.340  21.632  0.00  0.00    -0.029 A 
ATOM     35  C   UNL     1      16.053   2.969  21.871  0.00  0.00    +0.045 C 
ENDROOT
BRANCH  10   9
ATOM      4  C   UNL     1      20.791   5.375  21.095  0.00  0.00    +0.077 A 
ATOM      5  C   UNL     1      20.615   5.109  19.696  0.00  0.00    +0.048 A 
ATOM      6  C   UNL     1      19.290   5.036  19.211  0.00  0.00    +0.116 A 
ATOM      7  N   UNL     1      18.228   5.219  20.070  0.00  0.00    -0.223 NA
ATOM      8  C   UNL     1      18.433   5.473  21.414  0.00  0.00    +0.220 A 
ATOM      9  N   UNL     1      17.379   5.667  22.294  0.00  0.00    -0.283 N 
ATOM     36  H   UNL     1      17.572   5.845  23.279  0.00  0.00    +0.155 HD
ATOM     37  N   UNL     1      19.688   5.545  21.902  0.00  0.00    -0.214 NA
BRANCH   4   3
ATOM      1  C   UNL     1      23.634   5.434  23.781  0.00  0.00    +0.020 A 
ATOM      2  C   UNL     1      22.320   5.318  23.192  0.00  0.00    +0.013 A 
ATOM      3  C   UNL     1      22.130   5.485  21.757  0.00  0.00    +0.019 A 
ATOM     38  C   UNL     1      23.299   5.769  20.939  0.00  0.00    +0.120 A 
ATOM     39  N   UNL     1      24.552   5.876  21.534  0.00  0.00    -0.263 NA
ATOM     40  C   UNL     1      24.747   5.719  22.914  0.00  0.00    +0.111 A 
ENDBRANCH   4   3
ENDBRANCH  10   9
BRANCH  12  13
ATOM     13  N   UNL     1      13.265   8.068  20.857  0.00  0.00    -0.281 N 
ATOM     14  C   UNL     1      12.708   8.471  19.655  0.00  0.00    +0.248 C 
ATOM     30  O   UNL     1      12.943   7.949  18.575  0.00  0.00    -0.270 OA
ATOM     31  H   UNL     1      13.140   8.704  21.645  0.00  0.00    +0.155 HD
BRANCH  14  15
ATOM     15  C   UNL     1      11.763   9.629  19.649  0.00  0.00    +0.037 A 
ATOM     16  C   UNL     1      10.539   9.616  20.454  0.00  0.00    +0.013 A 
ATOM     17  C   UNL     1       9.637  10.739  20.416  0.00  0.00    +0.005 A 
ATOM     18  C   UNL     1       9.957  11.887  19.571  0.00  0.00    -0.033 A 
ATOM     28  C   UNL     1      11.180  11.876  18.787  0.00  0.00    +0.005 A 
ATOM     29  C   UNL     1      12.067  10.776  18.820  0.00  0.00    +0.013 A 
BRANCH  18  19
ATOM     19  C   UNL     1       9.041  13.120  19.453  0.00  0.00    +0.119 C 
BRANCH  19  20
ATOM     20  N   UNL     1       8.557  13.736  20.725  0.00  0.00    -0.302 NA
ATOM     21  C   UNL     1       7.191  13.186  21.146  0.00  0.00    +0.066 C 
ATOM     22  C   UNL     1       6.710  13.825  22.489  0.00  0.00    -0.064 C 
ATOM     23  N   UNL     1       6.659  15.346  22.338  0.00  0.00    +0.379 N 
ATOM     24  C   UNL     1       6.152  15.946  23.581  0.00  0.00    -0.096 C 
ATOM     25  H   UNL     1       5.930  15.581  21.527  0.00  0.00    -0.082 HD
ATOM     26  C   UNL     1       8.012  15.901  21.917  0.00  0.00    -0.064 C 
ATOM     27  C   UNL     1       8.495  15.238  20.596  0.00  0.00    +0.066 C 
ENDBRANCH  19  20
ENDBRANCH  18  19
ENDBRANCH  14  15
ENDBRANCH  12  13
TORSDOF 6
ENDMDL
MODEL 2
REMARK VINA RESULT:      -8.4      2.928     12.380
REMARK  Name = C:\Users\Docking\Desktop\test protocol\1iep_ligandH.pdb
REMARK  8 active torsions:
REMARK  status: ('A' for Active; 'I' for Inactive)
REMARK    1  A    between atoms: _5  and  _11
REMARK    2  A    between atoms: _19  and  _21
REMARK    3  A    between atoms: _22  and  _66
REMARK    4  A    between atoms: _27  and  _30
REMARK    5  A    between atoms: _32  and  _33
REMARK    6  A    between atoms: _38  and  _43
REMARK    7  A    between atoms: _43  and  _46
REMARK    8  A    between atoms: _53  and  _55
REMARK                            x       y       z     vdW  Elec       q    Type
REMARK                         _______ _______ _______ _____ _____    ______ ____
ROOT
ATOM     10  C   UNL     1      14.156   5.833  21.624  0.00  0.00    +0.038 A 
ATOM     11  C   UNL     1      15.484   6.112  22.035  0.00  0.00    +0.047 A 
ATOM     12  C   UNL     1      16.489   5.063  22.097  0.00  0.00    +0.035 A 
ATOM     32  C   UNL     1      16.108   3.740  21.728  0.00  0.00    +0.024 A 
ATOM     33  C   UNL     1      14.762   3.438  21.308  0.00  0.00    +0.007 A 
ATOM     34  C   UNL     1      13.766   4.468  21.249  0.00  0.00    -0.029 A 
ATOM     35  C   UNL     1      12.337   4.086  20.797  0.00  0.00    +0.045 C 
ENDROOT
BRANCH  10   9
ATOM      4  C   UNL     1      11.592   9.127  19.254  0.00  0.00    +0.077 A 
ATOM      5  C   UNL     1      12.164   8.751  17.994  0.00  0.00    +0.048 A 
ATOM      6  C   UNL     1      13.119   7.710  17.999  0.00  0.00    +0.116 A 
ATOM      7  N   UNL     1      13.469   7.098  19.183  0.00  0.00    -0.223 NA
ATOM      8  C   UNL     1      12.900   7.486  20.382  0.00  0.00    +0.220 A 
ATOM      9  N   UNL     1      13.231   6.879  21.583  0.00  0.00    -0.283 N 
ATOM     36  H   UNL     1      12.794   7.199  22.447  0.00  0.00    +0.155 HD
ATOM     37  N   UNL     1      11.986   8.478  20.403  0.00  0.00    -0.214 NA
BRANCH   4   3
ATOM      1  C   UNL     1       9.813  12.611  19.278  0.00  0.00    +0.020 A 
ATOM      2  C   UNL     1      10.839  11.607  19.110  0.00  0.00    +0.013 A 
ATOM      3  C   UNL     1      10.567  10.207  19.412  0.00  0.00    +0.019 A 
ATOM     38  C   UNL     1       9.237   9.853  19.885  0.00  0.00    +0.120 A 
ATOM     39  N   UNL     1       8.270  10.842  20.039  0.00  0.00    -0.263 NA
ATOM     40  C   UNL     1       8.521  12.193  19.753  0.00  0.00    +0.111 A 
ENDBRANCH   4   3
ENDBRANCH  10   9
BRANCH  12  13
ATOM     13  N   UNL     1      17.851   5.286  22.515  0.00  0.00    -0.281 N 
ATOM     14  C   UNL     1      18.969   5.462  21.716  0.00  0.00    +0.248 C 
ATOM     30  O   UNL     1      19.002   5.241  20.515  0.00  0.00    -0.270 OA
ATOM     31  H   UNL     1      18.010   5.317  23.522  0.00  0.00    +0.155 HD
BRANCH  14  15
ATOM     15  C   UNL     1      20.238   5.939  22.345  0.00  0.00    +0.037 A 
ATOM     16  C   UNL     1      21.340   5.015  22.628  0.00  0.00    +0.013 A 
ATOM     17  C   UNL     1      22.547   5.498  23.251  0.00  0.00    +0.005 A 
ATOM     18  C   UNL     1      22.658   6.914  23.595  0.00  0.00    -0.033 A 
ATOM     28  C   UNL     1      21.552   7.809  23.298  0.00  0.00    +0.005 A 
ATOM     29  C   UNL     1      20.367   7.339  22.689  0.00  0.00    +0.013 A 
BRANCH  18  19
ATOM     19  C   UNL     1      23.900   7.513  24.281  0.00  0.00    +0.119 C 
BRANCH  19  20
ATOM     20  N   UNL     1      23.732   8.021  25.675  0.00  0.00    -0.302 NA
ATOM     21  C   UNL     1      25.021   8.644  26.219  0.00  0.00    +0.066 C 
ATOM     22  C   UNL     1      24.822   9.191  27.670  0.00  0.00    -0.064 C 
ATOM     23  N   UNL     1      24.343   8.057  28.578  0.00  0.00    +0.379 N 
ATOM     24  C   UNL     1      24.210   8.555  29.955  0.00  0.00    -0.096 C 
ATOM     25  H   UNL     1      25.131   7.269  28.577  0.00  0.00    -0.082 HD
ATOM     26  C   UNL     1      23.063   7.431  28.043  0.00  0.00    -0.064 C 
ATOM     27  C   UNL     1      23.264   6.917  26.590  0.00  0.00    +0.066 C 
ENDBRANCH  19  20
ENDBRANCH  18  19
ENDBRANCH  14  15
ENDBRANCH  12  13
TORSDOF 6
ENDMDL
MODEL 3
REMARK VINA RESULT:      -8.3      1.746     13.328
REMARK  Name = C:\Users\Docking\Desktop\test protocol\1iep_ligandH.pdb
REMARK  8 active torsions:
REMARK  status: ('A' for Active; 'I' for Inactive)
REMARK    1  A    between atoms: _5  and  _11
REMARK    2  A    between atoms: _19  and  _21
REMARK    3  A    between atoms: _22  and  _66
REMARK    4  A    between atoms: _27  and  _30
REMARK    5  A    between atoms: _32  and  _33
REMARK    6  A    between atoms: _38  and  _43
REMARK    7  A    between atoms: _43  and  _46
REMARK    8  A    between atoms: _53  and  _55
REMARK                            x       y       z     vdW  Elec       q    Type
REMARK                         _______ _______ _______ _____ _____    ______ ____
ROOT
ATOM     10  C   UNL     1       9.224  10.491  20.063  0.00  0.00    +0.038 A 
ATOM     11  C   UNL     1      10.522   9.938  20.205  0.00  0.00    +0.047 A 
ATOM     12  C   UNL     1      11.058   9.012  19.220  0.00  0.00    +0.035 A 
ATOM     32  C   UNL     1      10.244   8.673  18.099  0.00  0.00    +0.024 A 
ATOM     33  C   UNL     1       8.922   9.225  17.940  0.00  0.00    +0.007 A 
ATOM     34  C   UNL     1       8.388  10.137  18.910  0.00  0.00    -0.029 A 
ATOM     35  C   UNL     1       6.961  10.693  18.692  0.00  0.00    +0.045 C 
ENDROOT
BRANCH  10   9
ATOM      4  C   UNL     1       8.147  14.906  21.608  0.00  0.00    +0.077 A 
ATOM      5  C   UNL     1       8.569  15.504  20.374  0.00  0.00    +0.048 A 
ATOM      6  C   UNL     1       9.064  14.642  19.370  0.00  0.00    +0.116 A 
ATOM      7  N   UNL     1       9.127  13.284  19.594  0.00  0.00    -0.223 NA
ATOM      8  C   UNL     1       8.713  12.739  20.796  0.00  0.00    +0.220 A 
ATOM      9  N   UNL     1       8.760  11.375  21.040  0.00  0.00    -0.283 N 
ATOM     36  H   UNL     1       8.453  11.013  21.942  0.00  0.00    +0.155 HD
ATOM     37  N   UNL     1       8.238  13.542  21.771  0.00  0.00    -0.214 NA
BRANCH   4   3
ATOM      1  C   UNL     1       7.765  17.470  24.536  0.00  0.00    +0.020 A 
ATOM      2  C   UNL     1       8.341  16.749  23.425  0.00  0.00    +0.013 A 
ATOM      3  C   UNL     1       7.598  15.684  22.763  0.00  0.00    +0.019 A 
ATOM     38  C   UNL     1       6.263  15.373  23.252  0.00  0.00    +0.120 A 
ATOM     39  N   UNL     1       5.735  16.085  24.325  0.00  0.00    -0.263 NA
ATOM     40  C   UNL     1       6.441  17.110  24.971  0.00  0.00    +0.111 A 
ENDBRANCH   4   3
ENDBRANCH  10   9
BRANCH  12  13
ATOM     13  N   UNL     1      12.366   8.412  19.315  0.00  0.00    -0.281 N 
ATOM     14  C   UNL     1      13.077   8.098  20.461  0.00  0.00    +0.248 C 
ATOM     30  O   UNL     1      12.785   8.484  21.584  0.00  0.00    -0.270 OA
ATOM     31  H   UNL     1      12.822   8.192  18.430  0.00  0.00    +0.155 HD
BRANCH  14  15
ATOM     15  C   UNL     1      14.298   7.245  20.343  0.00  0.00    +0.037 A 
ATOM     16  C   UNL     1      15.249   7.119  21.451  0.00  0.00    +0.013 A 
ATOM     17  C   UNL     1      16.427   6.303  21.303  0.00  0.00    +0.005 A 
ATOM     18  C   UNL     1      16.661   5.603  20.042  0.00  0.00    -0.033 A 
ATOM     28  C   UNL     1      15.699   5.741  18.961  0.00  0.00    +0.005 A 
ATOM     29  C   UNL     1      14.543   6.541  19.101  0.00  0.00    +0.013 A 
BRANCH  18  19
ATOM     19  C   UNL     1      17.903   4.727  19.789  0.00  0.00    +0.119 C 
BRANCH  19  20
ATOM     20  N   UNL     1      19.182   5.153  20.431  0.00  0.00    -0.302 NA
ATOM     21  C   UNL     1      20.358   5.110  19.452  0.00  0.00    +0.066 C 
ATOM     22  C   UNL     1      21.684   5.580  20.134  0.00  0.00    -0.064 C 
ATOM     23  N   UNL     1      21.965   4.703  21.356  0.00  0.00    +0.379 N 
ATOM     24  C   UNL     1      23.241   5.105  21.965  0.00  0.00    -0.096 C 
ATOM     25  H   UNL     1      22.075   3.653  21.000  0.00  0.00    -0.082 HD
ATOM     26  C   UNL     1      20.799   4.739  22.334  0.00  0.00    -0.064 C 
ATOM     27  C   UNL     1      19.480   4.298  21.638  0.00  0.00    +0.066 C 
ENDBRANCH  19  20
ENDBRANCH  18  19
ENDBRANCH  14  15
ENDBRANCH  12  13
TORSDOF 6
ENDMDL
