MODEL 1
REMARK VINA RESULT:      -7.3      0.000      0.000
REMARK  Name = C:\Users\Docking\Desktop\test protocol\1iep_ligandH.pdb
REMARK  8 active torsions:
REMARK  status: ('A' for Active; 'I' for Inactive)
REMARK    1  A    between atoms: _5  and  _11
REMARK    2  A    between atoms: _19  and  _21
REMARK    3  A    between atoms: _22  and  _66
REMARK    4  A    between atoms: _27  and  _30
REMARK    5  A    between atoms: _32  and  _33
REMARK    6  A    between atoms: _38  and  _43
REMARK    7  A    between atoms: _43  and  _46
REMARK    8  A    between atoms: _53  and  _55
REMARK                            x       y       z     vdW  Elec       q    Type
REMARK                         _______ _______ _______ _____ _____    ______ ____
ROOT
ATOM     10  C   UNL     1      65.990  45.118  66.397  0.00  0.00    +0.038 A 
ATOM     11  C   UNL     1      66.122  43.921  67.145  0.00  0.00    +0.047 A 
ATOM     12  C   UNL     1      67.370  43.584  67.813  0.00  0.00    +0.035 A 
ATOM     32  C   UNL     1      68.463  44.492  67.699  0.00  0.00    +0.024 A 
ATOM     33  C   UNL     1      68.347  45.712  66.941  0.00  0.00    +0.007 A 
ATOM     34  C   UNL     1      67.119  46.049  66.278  0.00  0.00    -0.029 A 
ATOM     35  C   UNL     1      67.054  47.368  65.474  0.00  0.00    +0.045 C 
ENDROOT
BRANCH  10   9
ATOM      4  C   UNL     1      62.868  44.606  62.787  0.00  0.00    +0.077 A 
ATOM      5  C   UNL     1      63.756  43.742  62.063  0.00  0.00    +0.048 A 
ATOM      6  C   UNL     1      65.010  43.460  62.651  0.00  0.00    +0.116 A 
ATOM      7  N   UNL     1      65.340  44.007  63.873  0.00  0.00    -0.223 NA
ATOM      8  C   UNL     1      64.461  44.837  64.543  0.00  0.00    +0.220 A 
ATOM      9  N   UNL     1      64.769  45.391  65.776  0.00  0.00    -0.283 N 
ATOM     36  H   UNL     1      64.097  46.005  66.235  0.00  0.00    +0.155 HD
ATOM     37  N   UNL     1      63.259  45.123  64.002  0.00  0.00    -0.214 NA
BRANCH   4   3
ATOM      1  C   UNL     1      59.056  44.542  61.914  0.00  0.00    +0.020 A 
ATOM      2  C   UNL     1      60.348  44.118  62.401  0.00  0.00    +0.013 A 
ATOM      3  C   UNL     1      61.508  44.995  62.298  0.00  0.00    +0.019 A 
ATOM     38  C   UNL     1      61.324  46.306  61.693  0.00  0.00    +0.120 A 
ATOM     39  N   UNL     1      60.068  46.686  61.232  0.00  0.00    -0.263 NA
ATOM     40  C   UNL     1      58.945  45.850  61.324  0.00  0.00    +0.111 A 
ENDBRANCH   4   3
ENDBRANCH  10   9
BRANCH  12  13
ATOM     13  N   UNL     1      67.565  42.379  68.581  0.00  0.00    -0.281 N 
ATOM     14  C   UNL     1      68.612  41.476  68.496  0.00  0.00    +0.248 C 
ATOM     30  O   UNL     1      69.435  41.455  67.593  0.00  0.00    -0.270 OA
ATOM     31  H   UNL     1      66.844  42.167  69.270  0.00  0.00    +0.155 HD
BRANCH  14  15
ATOM     15  C   UNL     1      68.756  40.436  69.560  0.00  0.00    +0.037 A 
ATOM     16  C   UNL     1      69.078  39.046  69.226  0.00  0.00    +0.013 A 
ATOM     17  C   UNL     1      69.195  38.060  70.271  0.00  0.00    +0.005 A 
ATOM     18  C   UNL     1      68.991  38.461  71.660  0.00  0.00    -0.033 A 
ATOM     28  C   UNL     1      68.678  39.848  71.964  0.00  0.00    +0.005 A 
ATOM     29  C   UNL     1      68.562  40.817  70.943  0.00  0.00    +0.013 A 
BRANCH  18  19
ATOM     19  C   UNL     1      69.075  37.472  72.838  0.00  0.00    +0.119 C 
BRANCH  19  20
ATOM     20  N   UNL     1      68.120  37.671  73.968  0.00  0.00    -0.302 NA
ATOM     21  C   UNL     1      68.509  36.848  75.200  0.00  0.00    +0.066 C 
ATOM     22  C   UNL     1      67.512  37.086  76.381  0.00  0.00    -0.064 C 
ATOM     23  N   UNL     1      66.093  36.741  75.924  0.00  0.00    +0.379 N 
ATOM     24  C   UNL     1      65.161  36.908  77.049  0.00  0.00    -0.096 C 
ATOM     25  H   UNL     1      66.084  35.665  75.634  0.00  0.00    -0.082 HD
ATOM     26  C   UNL     1      65.700  37.553  74.698  0.00  0.00    -0.064 C 
ATOM     27  C   UNL     1      66.714  37.332  73.541  0.00  0.00    +0.066 C 
ENDBRANCH  19  20
ENDBRANCH  18  19
ENDBRANCH  14  15
ENDBRANCH  12  13
TORSDOF 6
ENDMDL
MODEL 2
REMARK VINA RESULT:      -7.1      8.208     12.926
REMARK  Name = C:\Users\Docking\Desktop\test protocol\1iep_ligandH.pdb
REMARK  8 active torsions:
REMARK  status: ('A' for Active; 'I' for Inactive)
REMARK    1  A    between atoms: _5  and  _11
REMARK    2  A    between atoms: _19  and  _21
REMARK    3  A    between atoms: _22  and  _66
REMARK    4  A    between atoms: _27  and  _30
REMARK    5  A    between atoms: _32  and  _33
REMARK    6  A    between atoms: _38  and  _43
REMARK    7  A    between atoms: _43  and  _46
REMARK    8  A    between atoms: _53  and  _55
REMARK                            x       y       z     vdW  Elec       q    Type
REMARK                         _______ _______ _______ _____ _____    ______ ____
ROOT
ATOM     10  C   UNL     1      57.669  37.830  63.308  0.00  0.00    +0.038 A 
ATOM     11  C   UNL     1      58.282  39.031  63.749  0.00  0.00    +0.047 A 
ATOM     12  C   UNL     1      57.491  40.126  64.288  0.00  0.00    +0.035 A 
ATOM     32  C   UNL     1      56.077  39.963  64.366  0.00  0.00    +0.024 A 
ATOM     33  C   UNL     1      55.437  38.750  63.922  0.00  0.00    +0.007 A 
ATOM     34  C   UNL     1      56.212  37.667  63.387  0.00  0.00    -0.029 A 
ATOM     35  C   UNL     1      55.472  36.392  62.921  0.00  0.00    +0.045 C 
ENDROOT
BRANCH  10   9
ATOM      4  C   UNL     1      60.003  33.660  63.752  0.00  0.00    +0.077 A 
ATOM      5  C   UNL     1      59.602  33.513  65.121  0.00  0.00    +0.048 A 
ATOM      6  C   UNL     1      58.801  34.536  65.676  0.00  0.00    +0.116 A 
ATOM      7  N   UNL     1      58.434  35.620  64.909  0.00  0.00    -0.223 NA
ATOM      8  C   UNL     1      58.840  35.732  63.592  0.00  0.00    +0.220 A 
ATOM      9  N   UNL     1      58.477  36.811  62.800  0.00  0.00    -0.283 N 
ATOM     36  H   UNL     1      58.803  36.860  61.835  0.00  0.00    +0.155 HD
ATOM     37  N   UNL     1      59.607  34.769  63.039  0.00  0.00    -0.214 NA
BRANCH   4   3
ATOM      1  C   UNL     1      61.248  30.385  62.012  0.00  0.00    +0.020 A 
ATOM      2  C   UNL     1      60.393  31.310  62.719  0.00  0.00    +0.013 A 
ATOM      3  C   UNL     1      60.848  32.661  63.023  0.00  0.00    +0.019 A 
ATOM     38  C   UNL     1      62.183  33.047  62.593  0.00  0.00    +0.120 A 
ATOM     39  N   UNL     1      62.985  32.134  61.915  0.00  0.00    -0.263 NA
ATOM     40  C   UNL     1      62.559  30.831  61.619  0.00  0.00    +0.111 A 
ENDBRANCH   4   3
ENDBRANCH  10   9
BRANCH  12  13
ATOM     13  N   UNL     1      58.057  41.371  64.743  0.00  0.00    -0.281 N 
ATOM     14  C   UNL     1      59.331  41.597  65.237  0.00  0.00    +0.248 C 
ATOM     30  O   UNL     1      60.112  40.716  65.564  0.00  0.00    -0.270 OA
ATOM     31  H   UNL     1      57.444  42.185  64.695  0.00  0.00    +0.155 HD
BRANCH  14  15
ATOM     15  C   UNL     1      59.801  43.006  65.406  0.00  0.00    +0.037 A 
ATOM     16  C   UNL     1      59.094  43.943  66.283  0.00  0.00    +0.013 A 
ATOM     17  C   UNL     1      59.558  45.301  66.415  0.00  0.00    +0.005 A 
ATOM     18  C   UNL     1      60.738  45.731  65.667  0.00  0.00    -0.033 A 
ATOM     28  C   UNL     1      61.423  44.779  64.808  0.00  0.00    +0.005 A 
ATOM     29  C   UNL     1      60.970  43.447  64.676  0.00  0.00    +0.013 A 
BRANCH  18  19
ATOM     19  C   UNL     1      61.291  47.167  65.731  0.00  0.00    +0.119 C 
BRANCH  19  20
ATOM     20  N   UNL     1      62.752  47.348  65.482  0.00  0.00    -0.302 NA
ATOM     21  C   UNL     1      63.482  47.889  66.715  0.00  0.00    +0.066 C 
ATOM     22  C   UNL     1      65.013  48.052  66.444  0.00  0.00    -0.064 C 
ATOM     23  N   UNL     1      65.221  48.975  65.242  0.00  0.00    +0.379 N 
ATOM     24  C   UNL     1      66.661  49.176  65.021  0.00  0.00    -0.096 C 
ATOM     25  H   UNL     1      64.776  49.965  65.496  0.00  0.00    -0.082 HD
ATOM     26  C   UNL     1      64.497  48.445  64.013  0.00  0.00    -0.064 C 
ATOM     27  C   UNL     1      62.981  48.260  64.302  0.00  0.00    +0.066 C 
ENDBRANCH  19  20
ENDBRANCH  18  19
ENDBRANCH  14  15
ENDBRANCH  12  13
TORSDOF 6
ENDMDL
MODEL 3
REMARK VINA RESULT:      -7.0      2.651     12.264
REMARK  Name = C:\Users\Docking\Desktop\test protocol\1iep_ligandH.pdb
REMARK  8 active torsions:
REMARK  status: ('A' for Active; 'I' for Inactive)
REMARK    1  A    between atoms: _5  and  _11
REMARK    2  A    between atoms: _19  and  _21
REMARK    3  A    between atoms: _22  and  _66
REMARK    4  A    between atoms: _27  and  _30
REMARK    5  A    between atoms: _32  and  _33
REMARK    6  A    between atoms: _38  and  _43
REMARK    7  A    between atoms: _43  and  _46
REMARK    8  A    between atoms: _53  and  _55
REMARK                            x       y       z     vdW  Elec       q    Type
REMARK                         _______ _______ _______ _____ _____    ______ ____
ROOT
ATOM     10  C   UNL     1      67.642  44.022  72.099  0.00  0.00    +0.038 A 
ATOM     11  C   UNL     1      66.951  44.599  71.003  0.00  0.00    +0.047 A 
ATOM     12  C   UNL     1      67.548  45.666  70.214  0.00  0.00    +0.035 A 
ATOM     32  C   UNL     1      68.852  46.118  70.567  0.00  0.00    +0.024 A 
ATOM     33  C   UNL     1      69.569  45.544  71.678  0.00  0.00    +0.007 A 
ATOM     34  C   UNL     1      68.984  44.494  72.462  0.00  0.00    -0.029 A 
ATOM     35  C   UNL     1      69.795  43.919  73.646  0.00  0.00    +0.045 C 
ENDROOT
BRANCH  10   9
ATOM      4  C   UNL     1      66.888  39.385  73.078  0.00  0.00    +0.077 A 
ATOM      5  C   UNL     1      67.786  38.959  72.044  0.00  0.00    +0.048 A 
ATOM      6  C   UNL     1      68.417  39.965  71.277  0.00  0.00    +0.116 A 
ATOM      7  N   UNL     1      68.161  41.294  71.536  0.00  0.00    -0.223 NA
ATOM      8  C   UNL     1      67.288  41.670  72.540  0.00  0.00    +0.220 A 
ATOM      9  N   UNL     1      67.021  43.001  72.822  0.00  0.00    -0.283 N 
ATOM     36  H   UNL     1      66.366  43.238  73.566  0.00  0.00    +0.155 HD
ATOM     37  N   UNL     1      66.672  40.729  73.285  0.00  0.00    -0.214 NA
BRANCH   4   3
ATOM      1  C   UNL     1      64.165  36.992  74.547  0.00  0.00    +0.020 A 
ATOM      2  C   UNL     1      64.836  37.900  73.646  0.00  0.00    +0.013 A 
ATOM      3  C   UNL     1      66.149  38.441  73.975  0.00  0.00    +0.019 A 
ATOM     38  C   UNL     1      66.761  38.038  75.232  0.00  0.00    +0.120 A 
ATOM     39  N   UNL     1      66.090  37.163  76.081  0.00  0.00    -0.263 NA
ATOM     40  C   UNL     1      64.825  36.638  75.776  0.00  0.00    +0.111 A 
ENDBRANCH   4   3
ENDBRANCH  10   9
BRANCH  12  13
ATOM     13  N   UNL     1      66.890  46.295  69.095  0.00  0.00    -0.281 N 
ATOM     14  C   UNL     1      66.876  45.882  67.773  0.00  0.00    +0.248 C 
ATOM     30  O   UNL     1      67.608  45.019  67.311  0.00  0.00    -0.270 OA
ATOM     31  H   UNL     1      66.373  47.149  69.304  0.00  0.00    +0.155 HD
BRANCH  14  15
ATOM     15  C   UNL     1      65.921  46.531  66.824  0.00  0.00    +0.037 A 
ATOM     16  C   UNL     1      64.725  47.227  67.307  0.00  0.00    +0.013 A 
ATOM     17  C   UNL     1      63.811  47.830  66.369  0.00  0.00    +0.005 A 
ATOM     18  C   UNL     1      64.090  47.739  64.938  0.00  0.00    -0.033 A 
ATOM     28  C   UNL     1      65.286  47.046  64.487  0.00  0.00    +0.005 A 
ATOM     29  C   UNL     1      66.184  46.454  65.403  0.00  0.00    +0.013 A 
BRANCH  18  19
ATOM     19  C   UNL     1      63.159  48.334  63.865  0.00  0.00    +0.119 C 
BRANCH  19  20
ATOM     20  N   UNL     1      61.988  47.510  63.443  0.00  0.00    -0.302 NA
ATOM     21  C   UNL     1      62.397  46.362  62.515  0.00  0.00    +0.066 C 
ATOM     22  C   UNL     1      61.163  45.497  62.101  0.00  0.00    -0.064 C 
ATOM     23  N   UNL     1      60.119  46.390  61.429  0.00  0.00    +0.379 N 
ATOM     24  C   UNL     1      58.982  45.570  60.987  0.00  0.00    -0.096 C 
ATOM     25  H   UNL     1      60.589  46.835  60.521  0.00  0.00    -0.082 HD
ATOM     26  C   UNL     1      59.708  47.536  62.344  0.00  0.00    -0.064 C 
ATOM     27  C   UNL     1      60.946  48.372  62.773  0.00  0.00    +0.066 C 
ENDBRANCH  19  20
ENDBRANCH  18  19
ENDBRANCH  14  15
ENDBRANCH  12  13
TORSDOF 6
ENDMDL
MODEL 4
REMARK VINA RESULT:      -7.0      7.301     14.462
REMARK  Name = C:\Users\Docking\Desktop\test protocol\1iep_ligandH.pdb
REMARK  8 active torsions:
REMARK  status: ('A' for Active; 'I' for Inactive)
REMARK    1  A    between atoms: _5  and  _11
REMARK    2  A    between atoms: _19  and  _21
REMARK    3  A    between atoms: _22  and  _66
REMARK    4  A    between atoms: _27  and  _30
REMARK    5  A    between atoms: _32  and  _33
REMARK    6  A    between atoms: _38  and  _43
REMARK    7  A    between atoms: _43  and  _46
REMARK    8  A    between atoms: _53  and  _55
REMARK                            x       y       z     vdW  Elec       q    Type
REMARK                         _______ _______ _______ _____ _____    ______ ____
ROOT
ATOM     10  C   UNL     1      67.551  46.935  65.833  0.00  0.00    +0.038 A 
ATOM     11  C   UNL     1      68.445  48.027  65.698  0.00  0.00    +0.047 A 
ATOM     12  C   UNL     1      68.001  49.300  65.152  0.00  0.00    +0.035 A 
ATOM     32  C   UNL     1      66.637  49.426  64.756  0.00  0.00    +0.024 A 
ATOM     33  C   UNL     1      65.715  48.326  64.885  0.00  0.00    +0.007 A 
ATOM     34  C   UNL     1      66.148  47.067  65.420  0.00  0.00    -0.029 A 
ATOM     35  C   UNL     1      65.118  45.919  65.530  0.00  0.00    +0.045 C 
ENDROOT
BRANCH  10   9
ATOM      4  C   UNL     1      68.372  43.961  69.510  0.00  0.00    +0.077 A 
ATOM      5  C   UNL     1      67.822  44.887  70.458  0.00  0.00    +0.048 A 
ATOM      6  C   UNL     1      67.345  46.120  69.960  0.00  0.00    +0.116 A 
ATOM      7  N   UNL     1      67.418  46.396  68.611  0.00  0.00    -0.223 NA
ATOM      8  C   UNL     1      67.956  45.482  67.724  0.00  0.00    +0.220 A 
ATOM      9  N   UNL     1      68.031  45.735  66.363  0.00  0.00    -0.283 N 
ATOM     36  H   UNL     1      68.442  45.038  65.743  0.00  0.00    +0.155 HD
ATOM     37  N   UNL     1      68.419  44.298  68.176  0.00  0.00    -0.214 NA
BRANCH   4   3
ATOM      1  C   UNL     1      68.861  40.094  69.839  0.00  0.00    +0.020 A 
ATOM      2  C   UNL     1      68.297  41.367  69.452  0.00  0.00    +0.013 A 
ATOM      3  C   UNL     1      68.914  42.616  69.882  0.00  0.00    +0.019 A 
ATOM     38  C   UNL     1      70.109  42.541  70.709  0.00  0.00    +0.120 A 
ATOM     39  N   UNL     1      70.628  41.301  71.067  0.00  0.00    -0.263 NA
ATOM     40  C   UNL     1      70.043  40.093  70.660  0.00  0.00    +0.111 A 
ENDBRANCH   4   3
ENDBRANCH  10   9
BRANCH  12  13
ATOM     13  N   UNL     1      68.865  50.442  64.983  0.00  0.00    -0.281 N 
ATOM     14  C   UNL     1      69.948  50.812  65.763  0.00  0.00    +0.248 C 
ATOM     30  O   UNL     1      70.210  50.332  66.855  0.00  0.00    -0.270 OA
ATOM     31  H   UNL     1      68.652  51.051  64.194  0.00  0.00    +0.155 HD
BRANCH  14  15
ATOM     15  C   UNL     1      70.866  51.881  65.263  0.00  0.00    +0.037 A 
ATOM     16  C   UNL     1      72.321  51.742  65.364  0.00  0.00    +0.013 A 
ATOM     17  C   UNL     1      73.183  52.796  64.890  0.00  0.00    +0.005 A 
ATOM     18  C   UNL     1      72.590  53.998  64.308  0.00  0.00    -0.033 A 
ATOM     28  C   UNL     1      71.144  54.108  64.216  0.00  0.00    +0.005 A 
ATOM     29  C   UNL     1      70.296  53.078  64.681  0.00  0.00    +0.013 A 
BRANCH  18  19
ATOM     19  C   UNL     1      73.433  55.182  63.796  0.00  0.00    +0.119 C 
BRANCH  19  20
ATOM     20  N   UNL     1      74.783  54.870  63.239  0.00  0.00    -0.302 NA
ATOM     21  C   UNL     1      75.839  55.881  63.693  0.00  0.00    +0.066 C 
ATOM     22  C   UNL     1      77.250  55.526  63.120  0.00  0.00    -0.064 C 
ATOM     23  N   UNL     1      77.177  55.468  61.593  0.00  0.00    +0.379 N 
ATOM     24  C   UNL     1      78.514  55.192  61.048  0.00  0.00    -0.096 C 
ATOM     25  H   UNL     1      76.865  56.475  61.231  0.00  0.00    -0.082 HD
ATOM     26  C   UNL     1      76.127  54.467  61.133  0.00  0.00    -0.064 C 
ATOM     27  C   UNL     1      74.735  54.812  61.732  0.00  0.00    +0.066 C 
ENDBRANCH  19  20
ENDBRANCH  18  19
ENDBRANCH  14  15
ENDBRANCH  12  13
TORSDOF 6
ENDMDL
MODEL 5
REMARK VINA RESULT:      -6.8     22.797     29.472
REMARK  Name = C:\Users\Docking\Desktop\test protocol\1iep_ligandH.pdb
REMARK  8 active torsions:
REMARK  status: ('A' for Active; 'I' for Inactive)
REMARK    1  A    between atoms: _5  and  _11
REMARK    2  A    between atoms: _19  and  _21
REMARK    3  A    between atoms: _22  and  _66
REMARK    4  A    between atoms: _27  and  _30
REMARK    5  A    between atoms: _32  and  _33
REMARK    6  A    between atoms: _38  and  _43
REMARK    7  A    between atoms: _43  and  _46
REMARK    8  A    between atoms: _53  and  _55
REMARK                            x       y       z     vdW  Elec       q    Type
REMARK                         _______ _______ _______ _____ _____    ______ ____
ROOT
ATOM     10  C   UNL     1      53.471  31.426  50.533  0.00  0.00    +0.038 A 
ATOM     11  C   UNL     1      52.620  30.882  49.537  0.00  0.00    +0.047 A 
ATOM     12  C   UNL     1      51.518  30.000  49.890  0.00  0.00    +0.035 A 
ATOM     32  C   UNL     1      51.311  29.695  51.267  0.00  0.00    +0.024 A 
ATOM     33  C   UNL     1      52.167  30.239  52.291  0.00  0.00    +0.007 A 
ATOM     34  C   UNL     1      53.257  31.107  51.949  0.00  0.00    -0.029 A 
ATOM     35  C   UNL     1      54.147  31.656  53.089  0.00  0.00    +0.045 C 
ENDROOT
BRANCH  10   9
ATOM      4  C   UNL     1      57.930  32.171  48.920  0.00  0.00    +0.077 A 
ATOM      5  C   UNL     1      58.216  30.765  48.887  0.00  0.00    +0.048 A 
ATOM      6  C   UNL     1      57.191  29.885  49.299  0.00  0.00    +0.116 A 
ATOM      7  N   UNL     1      55.975  30.383  49.712  0.00  0.00    -0.223 NA
ATOM      8  C   UNL     1      55.733  31.745  49.734  0.00  0.00    +0.220 A 
ATOM      9  N   UNL     1      54.514  32.268  50.138  0.00  0.00    -0.283 N 
ATOM     36  H   UNL     1      54.377  33.278  50.147  0.00  0.00    +0.155 HD
ATOM     37  N   UNL     1      56.696  32.606  49.346  0.00  0.00    -0.214 NA
BRANCH   4   3
ATOM      1  C   UNL     1      59.532  35.612  47.974  0.00  0.00    +0.020 A 
ATOM      2  C   UNL     1      58.548  34.632  48.371  0.00  0.00    +0.013 A 
ATOM      3  C   UNL     1      58.910  33.227  48.512  0.00  0.00    +0.019 A 
ATOM     38  C   UNL     1      60.288  32.844  48.243  0.00  0.00    +0.120 A 
ATOM     39  N   UNL     1      61.214  33.810  47.861  0.00  0.00    -0.263 NA
ATOM     40  C   UNL     1      60.877  35.164  47.720  0.00  0.00    +0.111 A 
ENDBRANCH   4   3
ENDBRANCH  10   9
BRANCH  12  13
ATOM     13  N   UNL     1      50.626  29.411  48.922  0.00  0.00    -0.281 N 
ATOM     14  C   UNL     1      49.305  29.741  48.671  0.00  0.00    +0.248 C 
ATOM     30  O   UNL     1      48.621  30.454  49.391  0.00  0.00    -0.270 OA
ATOM     31  H   UNL     1      51.016  28.659  48.354  0.00  0.00    +0.155 HD
BRANCH  14  15
ATOM     15  C   UNL     1      48.642  29.189  47.450  0.00  0.00    +0.037 A 
ATOM     16  C   UNL     1      47.282  29.586  47.078  0.00  0.00    +0.013 A 
ATOM     17  C   UNL     1      46.660  29.025  45.905  0.00  0.00    +0.005 A 
ATOM     18  C   UNL     1      47.399  28.061  45.095  0.00  0.00    -0.033 A 
ATOM     28  C   UNL     1      48.749  27.688  45.484  0.00  0.00    +0.005 A 
ATOM     29  C   UNL     1      49.361  28.235  46.633  0.00  0.00    +0.013 A 
BRANCH  18  19
ATOM     19  C   UNL     1      46.806  27.395  43.838  0.00  0.00    +0.119 C 
BRANCH  19  20
ATOM     20  N   UNL     1      47.466  27.690  42.532  0.00  0.00    -0.302 NA
ATOM     21  C   UNL     1      47.596  29.195  42.281  0.00  0.00    +0.066 C 
ATOM     22  C   UNL     1      48.310  29.485  40.920  0.00  0.00    -0.064 C 
ATOM     23  N   UNL     1      47.534  28.812  39.787  0.00  0.00    +0.379 N 
ATOM     24  C   UNL     1      48.169  29.131  38.500  0.00  0.00    -0.096 C 
ATOM     25  H   UNL     1      46.508  29.247  39.775  0.00  0.00    -0.082 HD
ATOM     26  C   UNL     1      47.397  27.315  40.030  0.00  0.00    -0.064 C 
ATOM     27  C   UNL     1      46.714  27.038  41.398  0.00  0.00    +0.066 C 
ENDBRANCH  19  20
ENDBRANCH  18  19
ENDBRANCH  14  15
ENDBRANCH  12  13
TORSDOF 6
ENDMDL
