MODEL 1
REMARK VINA RESULT:      -7.6      0.000      0.000
REMARK  Name = C:\Users\Docking\Desktop\test protocol\1iep_ligandH.pdb
REMARK  8 active torsions:
REMARK  status: ('A' for Active; 'I' for Inactive)
REMARK    1  A    between atoms: _5  and  _11
REMARK    2  A    between atoms: _19  and  _21
REMARK    3  A    between atoms: _22  and  _66
REMARK    4  A    between atoms: _27  and  _30
REMARK    5  A    between atoms: _32  and  _33
REMARK    6  A    between atoms: _38  and  _43
REMARK    7  A    between atoms: _43  and  _46
REMARK    8  A    between atoms: _53  and  _55
REMARK                            x       y       z     vdW  Elec       q    Type
REMARK                         _______ _______ _______ _____ _____    ______ ____
ROOT
ATOM     10  C   UNL     1      10.610  17.991  24.773  0.00  0.00    +0.038 A 
ATOM     11  C   UNL     1       9.931  17.361  23.699  0.00  0.00    +0.047 A 
ATOM     12  C   UNL     1      10.280  17.647  22.317  0.00  0.00    +0.035 A 
ATOM     32  C   UNL     1      11.329  18.579  22.064  0.00  0.00    +0.024 A 
ATOM     33  C   UNL     1      12.029  19.230  23.144  0.00  0.00    +0.007 A 
ATOM     34  C   UNL     1      11.687  18.953  24.510  0.00  0.00    -0.029 A 
ATOM     35  C   UNL     1      12.466  19.685  25.627  0.00  0.00    +0.045 C 
ENDROOT
BRANCH  10   9
ATOM      4  C   UNL     1      10.221  14.929  28.449  0.00  0.00    +0.077 A 
ATOM      5  C   UNL     1      10.791  13.854  27.691  0.00  0.00    +0.048 A 
ATOM      6  C   UNL     1      11.165  14.128  26.356  0.00  0.00    +0.116 A 
ATOM      7  N   UNL     1      10.978  15.388  25.830  0.00  0.00    -0.223 NA
ATOM      8  C   UNL     1      10.423  16.402  26.588  0.00  0.00    +0.220 A 
ATOM      9  N   UNL     1      10.233  17.679  26.082  0.00  0.00    -0.283 N 
ATOM     36  H   UNL     1       9.814  18.398  26.671  0.00  0.00    +0.155 HD
ATOM     37  N   UNL     1      10.057  16.165  27.865  0.00  0.00    -0.214 NA
BRANCH   4   3
ATOM      1  C   UNL     1       8.031  14.888  31.690  0.00  0.00    +0.020 A 
ATOM      2  C   UNL     1       8.405  15.030  30.302  0.00  0.00    +0.013 A 
ATOM      3  C   UNL     1       9.779  14.797  29.874  0.00  0.00    +0.019 A 
ATOM     38  C   UNL     1      10.757  14.418  30.883  0.00  0.00    +0.120 A 
ATOM     39  N   UNL     1      10.367  14.291  32.212  0.00  0.00    -0.263 NA
ATOM     40  C   UNL     1       9.048  14.514  32.637  0.00  0.00    +0.111 A 
ENDBRANCH   4   3
ENDBRANCH  10   9
BRANCH  12  13
ATOM     13  N   UNL     1       9.621  17.044  21.185  0.00  0.00    -0.281 N 
ATOM     14  C   UNL     1       8.585  17.564  20.427  0.00  0.00    +0.248 C 
ATOM     30  O   UNL     1       7.921  18.541  20.741  0.00  0.00    -0.270 OA
ATOM     31  H   UNL     1       9.959  16.122  20.910  0.00  0.00    +0.155 HD
BRANCH  14  15
ATOM     15  C   UNL     1       8.225  16.894  19.140  0.00  0.00    +0.037 A 
ATOM     16  C   UNL     1       8.690  15.539  18.833  0.00  0.00    +0.013 A 
ATOM     17  C   UNL     1       8.342  14.922  17.578  0.00  0.00    +0.005 A 
ATOM     18  C   UNL     1       7.522  15.660  16.620  0.00  0.00    -0.033 A 
ATOM     28  C   UNL     1       7.070  17.001  16.953  0.00  0.00    +0.005 A 
ATOM     29  C   UNL     1       7.409  17.609  18.182  0.00  0.00    +0.013 A 
BRANCH  18  19
ATOM     19  C   UNL     1       7.120  15.088  15.247  0.00  0.00    +0.119 C 
BRANCH  19  20
ATOM     20  N   UNL     1       7.900  15.549  14.060  0.00  0.00    -0.302 NA
ATOM     21  C   UNL     1       6.996  16.129  12.969  0.00  0.00    +0.066 C 
ATOM     22  C   UNL     1       7.830  16.626  11.744  0.00  0.00    -0.064 C 
ATOM     23  N   UNL     1       8.666  15.469  11.195  0.00  0.00    +0.379 N 
ATOM     24  C   UNL     1       9.408  15.918  10.008  0.00  0.00    -0.096 C 
ATOM     25  H   UNL     1       7.962  14.667  10.872  0.00  0.00    -0.082 HD
ATOM     26  C   UNL     1       9.566  14.884  12.275  0.00  0.00    -0.064 C 
ATOM     27  C   UNL     1       8.730  14.420  13.500  0.00  0.00    +0.066 C 
ENDBRANCH  19  20
ENDBRANCH  18  19
ENDBRANCH  14  15
ENDBRANCH  12  13
TORSDOF 6
ENDMDL
MODEL 2
REMARK VINA RESULT:      -7.6      3.510     12.729
REMARK  Name = C:\Users\Docking\Desktop\test protocol\1iep_ligandH.pdb
REMARK  8 active torsions:
REMARK  status: ('A' for Active; 'I' for Inactive)
REMARK    1  A    between atoms: _5  and  _11
REMARK    2  A    between atoms: _19  and  _21
REMARK    3  A    between atoms: _22  and  _66
REMARK    4  A    between atoms: _27  and  _30
REMARK    5  A    between atoms: _32  and  _33
REMARK    6  A    between atoms: _38  and  _43
REMARK    7  A    between atoms: _43  and  _46
REMARK    8  A    between atoms: _53  and  _55
REMARK                            x       y       z     vdW  Elec       q    Type
REMARK                         _______ _______ _______ _____ _____    ______ ____
ROOT
ATOM     10  C   UNL     1      10.471  17.639  24.204  0.00  0.00    +0.038 A 
ATOM     11  C   UNL     1      10.047  16.742  25.218  0.00  0.00    +0.047 A 
ATOM     12  C   UNL     1      10.733  16.677  26.499  0.00  0.00    +0.035 A 
ATOM     32  C   UNL     1      11.845  17.542  26.716  0.00  0.00    +0.024 A 
ATOM     33  C   UNL     1      12.289  18.459  25.696  0.00  0.00    +0.007 A 
ATOM     34  C   UNL     1      11.619  18.526  24.429  0.00  0.00    -0.029 A 
ATOM     35  C   UNL     1      12.143  19.524  23.370  0.00  0.00    +0.045 C 
ENDROOT
BRANCH  10   9
ATOM      4  C   UNL     1       9.468  15.842  19.869  0.00  0.00    +0.077 A 
ATOM      5  C   UNL     1      10.428  14.787  20.019  0.00  0.00    +0.048 A 
ATOM      6  C   UNL     1      11.165  14.747  21.224  0.00  0.00    +0.116 A 
ATOM      7  N   UNL     1      10.949  15.695  22.199  0.00  0.00    -0.223 NA
ATOM      8  C   UNL     1      10.016  16.700  22.022  0.00  0.00    +0.220 A 
ATOM      9  N   UNL     1       9.776  17.661  22.993  0.00  0.00    -0.283 N 
ATOM     36  H   UNL     1       9.085  18.390  22.821  0.00  0.00    +0.155 HD
ATOM     37  N   UNL     1       9.300  16.762  20.880  0.00  0.00    -0.214 NA
BRANCH   4   3
ATOM      1  C   UNL     1       7.450  15.142  16.592  0.00  0.00    +0.020 A 
ATOM      2  C   UNL     1       8.284  14.920  17.751  0.00  0.00    +0.013 A 
ATOM      3  C   UNL     1       8.610  16.016  18.654  0.00  0.00    +0.019 A 
ATOM     38  C   UNL     1       8.072  17.335  18.354  0.00  0.00    +0.120 A 
ATOM     39  N   UNL     1       7.273  17.518  17.230  0.00  0.00    -0.263 NA
ATOM     40  C   UNL     1       6.954  16.472  16.352  0.00  0.00    +0.111 A 
ENDBRANCH   4   3
ENDBRANCH  10   9
BRANCH  12  13
ATOM     13  N   UNL     1      10.353  15.781  27.563  0.00  0.00    -0.281 N 
ATOM     14  C   UNL     1       9.786  16.102  28.786  0.00  0.00    +0.248 C 
ATOM     30  O   UNL     1       9.716  17.235  29.239  0.00  0.00    -0.270 OA
ATOM     31  H   UNL     1      10.523  14.789  27.395  0.00  0.00    +0.155 HD
BRANCH  14  15
ATOM     15  C   UNL     1       9.230  15.004  29.634  0.00  0.00    +0.037 A 
ATOM     16  C   UNL     1       9.092  13.640  29.118  0.00  0.00    +0.013 A 
ATOM     17  C   UNL     1       8.536  12.604  29.952  0.00  0.00    +0.005 A 
ATOM     18  C   UNL     1       8.117  12.928  31.313  0.00  0.00    -0.033 A 
ATOM     28  C   UNL     1       8.270  14.288  31.802  0.00  0.00    +0.005 A 
ATOM     29  C   UNL     1       8.813  15.307  30.987  0.00  0.00    +0.013 A 
BRANCH  18  19
ATOM     19  C   UNL     1       7.494  11.890  32.266  0.00  0.00    +0.119 C 
BRANCH  19  20
ATOM     20  N   UNL     1       6.911  10.661  31.651  0.00  0.00    -0.302 NA
ATOM     21  C   UNL     1       5.411  10.807  31.385  0.00  0.00    +0.066 C 
ATOM     22  C   UNL     1       4.822   9.520  30.721  0.00  0.00    -0.064 C 
ATOM     23  N   UNL     1       5.097   8.314  31.621  0.00  0.00    +0.379 N 
ATOM     24  C   UNL     1       4.494   7.112  31.028  0.00  0.00    -0.096 C 
ATOM     25  H   UNL     1       4.592   8.499  32.598  0.00  0.00    -0.082 HD
ATOM     26  C   UNL     1       6.587   8.162  31.893  0.00  0.00    -0.064 C 
ATOM     27  C   UNL     1       7.168   9.458  32.525  0.00  0.00    +0.066 C 
ENDBRANCH  19  20
ENDBRANCH  18  19
ENDBRANCH  14  15
ENDBRANCH  12  13
TORSDOF 6
ENDMDL
MODEL 3
REMARK VINA RESULT:      -7.6      2.631     13.171
REMARK  Name = C:\Users\Docking\Desktop\test protocol\1iep_ligandH.pdb
REMARK  8 active torsions:
REMARK  status: ('A' for Active; 'I' for Inactive)
REMARK    1  A    between atoms: _5  and  _11
REMARK    2  A    between atoms: _19  and  _21
REMARK    3  A    between atoms: _22  and  _66
REMARK    4  A    between atoms: _27  and  _30
REMARK    5  A    between atoms: _32  and  _33
REMARK    6  A    between atoms: _38  and  _43
REMARK    7  A    between atoms: _43  and  _46
REMARK    8  A    between atoms: _53  and  _55
REMARK                            x       y       z     vdW  Elec       q    Type
REMARK                         _______ _______ _______ _____ _____    ______ ____
ROOT
ATOM     10  C   UNL     1      10.738  18.332  23.375  0.00  0.00    +0.038 A 
ATOM     11  C   UNL     1      10.140  17.665  24.476  0.00  0.00    +0.047 A 
ATOM     12  C   UNL     1      10.662  17.822  25.824  0.00  0.00    +0.035 A 
ATOM     32  C   UNL     1      11.793  18.668  26.017  0.00  0.00    +0.024 A 
ATOM     33  C   UNL     1      12.414  19.352  24.910  0.00  0.00    +0.007 A 
ATOM     34  C   UNL     1      11.905  19.199  23.577  0.00  0.00    -0.029 A 
ATOM     35  C   UNL     1      12.615  19.951  22.427  0.00  0.00    +0.045 C 
ENDROOT
BRANCH  10   9
ATOM      4  C   UNL     1       9.832  15.626  19.516  0.00  0.00    +0.077 A 
ATOM      5  C   UNL     1      10.520  14.497  20.072  0.00  0.00    +0.048 A 
ATOM      6  C   UNL     1      11.100  14.656  21.351  0.00  0.00    +0.116 A 
ATOM      7  N   UNL     1      10.992  15.859  22.015  0.00  0.00    -0.223 NA
ATOM      8  C   UNL     1      10.323  16.929  21.449  0.00  0.00    +0.220 A 
ATOM      9  N   UNL     1      10.196  18.145  22.102  0.00  0.00    -0.283 N 
ATOM     36  H   UNL     1       9.701  18.912  21.647  0.00  0.00    +0.155 HD
ATOM     37  N   UNL     1       9.762  16.803  20.228  0.00  0.00    -0.214 NA
BRANCH   4   3
ATOM      1  C   UNL     1       7.430  14.771  16.549  0.00  0.00    +0.020 A 
ATOM      2  C   UNL     1       8.039  14.744  17.859  0.00  0.00    +0.013 A 
ATOM      3  C   UNL     1       9.165  15.613  18.175  0.00  0.00    +0.019 A 
ATOM     38  C   UNL     1       9.655  16.506  17.135  0.00  0.00    +0.120 A 
ATOM     39  N   UNL     1       9.050  16.509  15.883  0.00  0.00    -0.263 NA
ATOM     40  C   UNL     1       7.966  15.675  15.566  0.00  0.00    +0.111 A 
ENDBRANCH   4   3
ENDBRANCH  10   9
BRANCH  12  13
ATOM     13  N   UNL     1      10.102  17.165  26.979  0.00  0.00    -0.281 N 
ATOM     14  C   UNL     1      10.681  16.181  27.763  0.00  0.00    +0.248 C 
ATOM     30  O   UNL     1      11.691  15.562  27.462  0.00  0.00    -0.270 OA
ATOM     31  H   UNL     1       9.164  17.461  27.251  0.00  0.00    +0.155 HD
BRANCH  14  15
ATOM     15  C   UNL     1      10.038  15.823  29.064  0.00  0.00    +0.037 A 
ATOM     16  C   UNL     1      10.549  16.345  30.334  0.00  0.00    +0.013 A 
ATOM     17  C   UNL     1       9.921  15.970  31.576  0.00  0.00    +0.005 A 
ATOM     18  C   UNL     1       8.772  15.069  31.553  0.00  0.00    -0.033 A 
ATOM     28  C   UNL     1       8.281  14.570  30.279  0.00  0.00    +0.005 A 
ATOM     29  C   UNL     1       8.896  14.934  29.060  0.00  0.00    +0.013 A 
BRANCH  18  19
ATOM     19  C   UNL     1       8.052  14.599  32.831  0.00  0.00    +0.119 C 
BRANCH  19  20
ATOM     20  N   UNL     1       7.537  13.197  32.850  0.00  0.00    -0.302 NA
ATOM     21  C   UNL     1       6.433  13.005  33.894  0.00  0.00    +0.066 C 
ATOM     22  C   UNL     1       5.890  11.539  33.884  0.00  0.00    -0.064 C 
ATOM     23  N   UNL     1       7.046  10.568  34.134  0.00  0.00    +0.379 N 
ATOM     24  C   UNL     1       6.530   9.193  34.183  0.00  0.00    -0.096 C 
ATOM     25  H   UNL     1       7.476  10.805  35.135  0.00  0.00    -0.082 HD
ATOM     26  C   UNL     1       8.150  10.755  33.102  0.00  0.00    -0.064 C 
ATOM     27  C   UNL     1       8.662  12.223  33.099  0.00  0.00    +0.066 C 
ENDBRANCH  19  20
ENDBRANCH  18  19
ENDBRANCH  14  15
ENDBRANCH  12  13
TORSDOF 6
ENDMDL
MODEL 4
REMARK VINA RESULT:      -7.3      3.500     12.792
REMARK  Name = C:\Users\Docking\Desktop\test protocol\1iep_ligandH.pdb
REMARK  8 active torsions:
REMARK  status: ('A' for Active; 'I' for Inactive)
REMARK    1  A    between atoms: _5  and  _11
REMARK    2  A    between atoms: _19  and  _21
REMARK    3  A    between atoms: _22  and  _66
REMARK    4  A    between atoms: _27  and  _30
REMARK    5  A    between atoms: _32  and  _33
REMARK    6  A    between atoms: _38  and  _43
REMARK    7  A    between atoms: _43  and  _46
REMARK    8  A    between atoms: _53  and  _55
REMARK                            x       y       z     vdW  Elec       q    Type
REMARK                         _______ _______ _______ _____ _____    ______ ____
ROOT
ATOM     10  C   UNL     1      10.516  17.599  24.300  0.00  0.00    +0.038 A 
ATOM     11  C   UNL     1      10.065  16.710  25.309  0.00  0.00    +0.047 A 
ATOM     12  C   UNL     1      10.730  16.638  26.601  0.00  0.00    +0.035 A 
ATOM     32  C   UNL     1      11.850  17.488  26.833  0.00  0.00    +0.024 A 
ATOM     33  C   UNL     1      12.323  18.397  25.818  0.00  0.00    +0.007 A 
ATOM     34  C   UNL     1      11.673  18.470  24.541  0.00  0.00    -0.029 A 
ATOM     35  C   UNL     1      12.227  19.459  23.488  0.00  0.00    +0.045 C 
ENDROOT
BRANCH  10   9
ATOM      4  C   UNL     1       9.578  15.823  19.941  0.00  0.00    +0.077 A 
ATOM      5  C   UNL     1      10.534  14.766  20.101  0.00  0.00    +0.048 A 
ATOM      6  C   UNL     1      11.251  14.718  21.317  0.00  0.00    +0.116 A 
ATOM      7  N   UNL     1      11.022  15.663  22.294  0.00  0.00    -0.223 NA
ATOM      8  C   UNL     1      10.094  16.671  22.107  0.00  0.00    +0.220 A 
ATOM      9  N   UNL     1       9.841  17.627  23.078  0.00  0.00    -0.283 N 
ATOM     36  H   UNL     1       9.153  18.358  22.899  0.00  0.00    +0.155 HD
ATOM     37  N   UNL     1       9.396  16.739  20.954  0.00  0.00    -0.214 NA
BRANCH   4   3
ATOM      1  C   UNL     1       7.347  15.119  16.806  0.00  0.00    +0.020 A 
ATOM      2  C   UNL     1       8.149  14.889  17.985  0.00  0.00    +0.013 A 
ATOM      3  C   UNL     1       8.739  16.005  18.714  0.00  0.00    +0.019 A 
ATOM     38  C   UNL     1       8.495  17.352  18.220  0.00  0.00    +0.120 A 
ATOM     39  N   UNL     1       7.719  17.542  17.081  0.00  0.00    -0.263 NA
ATOM     40  C   UNL     1       7.148  16.476  16.370  0.00  0.00    +0.111 A 
ENDBRANCH   4   3
ENDBRANCH  10   9
BRANCH  12  13
ATOM     13  N   UNL     1      10.322  15.749  27.660  0.00  0.00    -0.281 N 
ATOM     14  C   UNL     1       9.772  16.082  28.887  0.00  0.00    +0.248 C 
ATOM     30  O   UNL     1       9.745  17.214  29.348  0.00  0.00    -0.270 OA
ATOM     31  H   UNL     1      10.454  14.753  27.485  0.00  0.00    +0.155 HD
BRANCH  14  15
ATOM     15  C   UNL     1       9.179  15.000  29.731  0.00  0.00    +0.037 A 
ATOM     16  C   UNL     1       8.817  15.240  31.131  0.00  0.00    +0.013 A 
ATOM     17  C   UNL     1       8.263  14.174  31.927  0.00  0.00    +0.005 A 
ATOM     18  C   UNL     1       8.066  12.858  31.325  0.00  0.00    -0.033 A 
ATOM     28  C   UNL     1       8.429  12.649  29.933  0.00  0.00    +0.005 A 
ATOM     29  C   UNL     1       8.973  13.691  29.149  0.00  0.00    +0.013 A 
BRANCH  18  19
ATOM     19  C   UNL     1       7.500  11.657  32.105  0.00  0.00    +0.119 C 
BRANCH  19  20
ATOM     20  N   UNL     1       7.811  10.293  31.582  0.00  0.00    -0.302 NA
ATOM     21  C   UNL     1       6.636   9.328  31.760  0.00  0.00    +0.066 C 
ATOM     22  C   UNL     1       6.970   7.913  31.186  0.00  0.00    -0.064 C 
ATOM     23  N   UNL     1       8.225   7.370  31.873  0.00  0.00    +0.379 N 
ATOM     24  C   UNL     1       8.508   6.016  31.377  0.00  0.00    -0.096 C 
ATOM     25  H   UNL     1       8.007   7.293  32.963  0.00  0.00    -0.082 HD
ATOM     26  C   UNL     1       9.398   8.326  31.703  0.00  0.00    -0.064 C 
ATOM     27  C   UNL     1       9.045   9.737  32.249  0.00  0.00    +0.066 C 
ENDBRANCH  19  20
ENDBRANCH  18  19
ENDBRANCH  14  15
ENDBRANCH  12  13
TORSDOF 6
ENDMDL
MODEL 5
REMARK VINA RESULT:      -7.3      1.307      1.543
REMARK  Name = C:\Users\Docking\Desktop\test protocol\1iep_ligandH.pdb
REMARK  8 active torsions:
REMARK  status: ('A' for Active; 'I' for Inactive)
REMARK    1  A    between atoms: _5  and  _11
REMARK    2  A    between atoms: _19  and  _21
REMARK    3  A    between atoms: _22  and  _66
REMARK    4  A    between atoms: _27  and  _30
REMARK    5  A    between atoms: _32  and  _33
REMARK    6  A    between atoms: _38  and  _43
REMARK    7  A    between atoms: _43  and  _46
REMARK    8  A    between atoms: _53  and  _55
REMARK                            x       y       z     vdW  Elec       q    Type
REMARK                         _______ _______ _______ _____ _____    ______ ____
ROOT
ATOM     10  C   UNL     1      10.961  18.263  25.052  0.00  0.00    +0.038 A 
ATOM     11  C   UNL     1      10.384  17.805  23.841  0.00  0.00    +0.047 A 
ATOM     12  C   UNL     1      10.907  18.227  22.551  0.00  0.00    +0.035 A 
ATOM     32  C   UNL     1      12.021  19.116  22.532  0.00  0.00    +0.024 A 
ATOM     33  C   UNL     1      12.620  19.592  23.754  0.00  0.00    +0.007 A 
ATOM     34  C   UNL     1      12.107  19.181  25.029  0.00  0.00    -0.029 A 
ATOM     35  C   UNL     1      12.784  19.729  26.307  0.00  0.00    +0.045 C 
ENDROOT
BRANCH  10   9
ATOM      4  C   UNL     1      10.021  14.831  28.273  0.00  0.00    +0.077 A 
ATOM      5  C   UNL     1      10.638  13.820  27.464  0.00  0.00    +0.048 A 
ATOM      6  C   UNL     1      11.179  14.223  26.223  0.00  0.00    +0.116 A 
ATOM      7  N   UNL     1      11.103  15.542  25.830  0.00  0.00    -0.223 NA
ATOM      8  C   UNL     1      10.500  16.492  26.634  0.00  0.00    +0.220 A 
ATOM      9  N   UNL     1      10.419  17.825  26.263  0.00  0.00    -0.283 N 
ATOM     36  H   UNL     1       9.959  18.493  26.880  0.00  0.00    +0.155 HD
ATOM     37  N   UNL     1       9.974  16.132  27.823  0.00  0.00    -0.214 NA
BRANCH   4   3
ATOM      1  C   UNL     1       8.850  15.205  31.987  0.00  0.00    +0.020 A 
ATOM      2  C   UNL     1       9.460  15.514  30.714  0.00  0.00    +0.013 A 
ATOM      3  C   UNL     1       9.406  14.562  29.612  0.00  0.00    +0.019 A 
ATOM     38  C   UNL     1       8.722  13.297  29.832  0.00  0.00    +0.120 A 
ATOM     39  N   UNL     1       8.145  13.027  31.069  0.00  0.00    -0.263 NA
ATOM     40  C   UNL     1       8.192  13.935  32.137  0.00  0.00    +0.111 A 
ENDBRANCH   4   3
ENDBRANCH  10   9
BRANCH  12  13
ATOM     13  N   UNL     1      10.357  17.801  21.288  0.00  0.00    -0.281 N 
ATOM     14  C   UNL     1       9.938  16.531  20.926  0.00  0.00    +0.248 C 
ATOM     30  O   UNL     1      10.172  15.518  21.567  0.00  0.00    -0.270 OA
ATOM     31  H   UNL     1      10.265  18.524  20.573  0.00  0.00    +0.155 HD
BRANCH  14  15
ATOM     15  C   UNL     1       9.158  16.361  19.663  0.00  0.00    +0.037 A 
ATOM     16  C   UNL     1       7.714  16.604  19.622  0.00  0.00    +0.013 A 
ATOM     17  C   UNL     1       6.983  16.415  18.394  0.00  0.00    +0.005 A 
ATOM     18  C   UNL     1       7.696  15.982  17.195  0.00  0.00    -0.033 A 
ATOM     28  C   UNL     1       9.130  15.753  17.262  0.00  0.00    +0.005 A 
ATOM     29  C   UNL     1       9.850  15.936  18.464  0.00  0.00    +0.013 A 
BRANCH  18  19
ATOM     19  C   UNL     1       6.994  15.736  15.847  0.00  0.00    +0.119 C 
BRANCH  19  20
ATOM     20  N   UNL     1       7.638  16.305  14.626  0.00  0.00    -0.302 NA
ATOM     21  C   UNL     1       6.926  17.570  14.138  0.00  0.00    +0.066 C 
ATOM     22  C   UNL     1       7.627  18.165  12.873  0.00  0.00    -0.064 C 
ATOM     23  N   UNL     1       7.667  17.106  11.770  0.00  0.00    +0.379 N 
ATOM     24  C   UNL     1       8.272  17.680  10.560  0.00  0.00    -0.096 C 
ATOM     25  H   UNL     1       6.614  16.834  11.525  0.00  0.00    -0.082 HD
ATOM     26  C   UNL     1       8.370  15.843  12.248  0.00  0.00    -0.064 C 
ATOM     27  C   UNL     1       7.684  15.277  13.522  0.00  0.00    +0.066 C 
ENDBRANCH  19  20
ENDBRANCH  18  19
ENDBRANCH  14  15
ENDBRANCH  12  13
TORSDOF 6
ENDMDL
