MODEL 1
REMARK VINA RESULT:      -8.7      0.000      0.000
REMARK  Name = C:\Users\Docking\Desktop\test protocol\1iep_ligandH.pdb
REMARK  8 active torsions:
REMARK  status: ('A' for Active; 'I' for Inactive)
REMARK    1  A    between atoms: _5  and  _11
REMARK    2  A    between atoms: _19  and  _21
REMARK    3  A    between atoms: _22  and  _66
REMARK    4  A    between atoms: _27  and  _30
REMARK    5  A    between atoms: _32  and  _33
REMARK    6  A    between atoms: _38  and  _43
REMARK    7  A    between atoms: _43  and  _46
REMARK    8  A    between atoms: _53  and  _55
REMARK                            x       y       z     vdW  Elec       q    Type
REMARK                         _______ _______ _______ _____ _____    ______ ____
ROOT
ATOM     10  C   UNL     1      28.180  12.143  45.453  0.00  0.00    +0.038 A 
ATOM     11  C   UNL     1      26.970  12.867  45.603  0.00  0.00    +0.047 A 
ATOM     12  C   UNL     1      26.971  14.248  46.059  0.00  0.00    +0.035 A 
ATOM     32  C   UNL     1      28.223  14.862  46.352  0.00  0.00    +0.024 A 
ATOM     33  C   UNL     1      29.463  14.140  46.207  0.00  0.00    +0.007 A 
ATOM     34  C   UNL     1      29.468  12.777  45.760  0.00  0.00    -0.029 A 
ATOM     35  C   UNL     1      30.827  12.050  45.628  0.00  0.00    +0.045 C 
ENDROOT
BRANCH  10   9
ATOM      4  C   UNL     1      27.028   7.524  46.067  0.00  0.00    +0.077 A 
ATOM      5  C   UNL     1      26.527   7.763  47.390  0.00  0.00    +0.048 A 
ATOM      6  C   UNL     1      26.590   9.088  47.878  0.00  0.00    +0.116 A 
ATOM      7  N   UNL     1      27.117  10.090  47.093  0.00  0.00    -0.223 NA
ATOM      8  C   UNL     1      27.594   9.825  45.822  0.00  0.00    +0.220 A 
ATOM      9  N   UNL     1      28.121  10.819  45.012  0.00  0.00    -0.283 N 
ATOM     36  H   UNL     1      28.468  10.581  44.083  0.00  0.00    +0.155 HD
ATOM     37  N   UNL     1      27.546   8.568  45.333  0.00  0.00    -0.214 NA
BRANCH   4   3
ATOM      1  C   UNL     1      27.775   4.562  43.624  0.00  0.00    +0.020 A 
ATOM      2  C   UNL     1      27.811   5.878  44.219  0.00  0.00    +0.013 A 
ATOM      3  C   UNL     1      27.027   6.178  45.410  0.00  0.00    +0.019 A 
ATOM     38  C   UNL     1      26.212   5.116  45.980  0.00  0.00    +0.120 A 
ATOM     39  N   UNL     1      26.196   3.859  45.385  0.00  0.00    -0.263 NA
ATOM     40  C   UNL     1      26.944   3.559  44.237  0.00  0.00    +0.111 A 
ENDBRANCH   4   3
ENDBRANCH  10   9
BRANCH  12  13
ATOM     13  N   UNL     1      25.773  15.031  46.237  0.00  0.00    -0.281 N 
ATOM     14  C   UNL     1      25.099  15.300  47.417  0.00  0.00    +0.248 C 
ATOM     30  O   UNL     1      25.305  14.727  48.476  0.00  0.00    -0.270 OA
ATOM     31  H   UNL     1      25.374  15.437  45.390  0.00  0.00    +0.155 HD
BRANCH  14  15
ATOM     15  C   UNL     1      24.031  16.345  47.416  0.00  0.00    +0.037 A 
ATOM     16  C   UNL     1      23.705  17.099  48.630  0.00  0.00    +0.013 A 
ATOM     17  C   UNL     1      22.659  18.091  48.606  0.00  0.00    +0.005 A 
ATOM     18  C   UNL     1      21.932  18.335  47.363  0.00  0.00    -0.033 A 
ATOM     28  C   UNL     1      22.280  17.577  46.172  0.00  0.00    +0.005 A 
ATOM     29  C   UNL     1      23.303  16.604  46.192  0.00  0.00    +0.013 A 
BRANCH  18  19
ATOM     19  C   UNL     1      20.787  19.359  47.251  0.00  0.00    +0.119 C 
BRANCH  19  20
ATOM     20  N   UNL     1      19.391  18.834  47.322  0.00  0.00    -0.302 NA
ATOM     21  C   UNL     1      19.338  17.420  47.909  0.00  0.00    +0.066 C 
ATOM     22  C   UNL     1      17.868  16.895  47.996  0.00  0.00    -0.064 C 
ATOM     23  N   UNL     1      17.233  16.928  46.604  0.00  0.00    +0.379 N 
ATOM     24  C   UNL     1      15.871  16.381  46.673  0.00  0.00    -0.096 C 
ATOM     25  H   UNL     1      17.834  16.260  45.944  0.00  0.00    -0.082 HD
ATOM     26  C   UNL     1      17.284  18.330  46.013  0.00  0.00    -0.064 C 
ATOM     27  C   UNL     1      18.747  18.854  45.957  0.00  0.00    +0.066 C 
ENDBRANCH  19  20
ENDBRANCH  18  19
ENDBRANCH  14  15
ENDBRANCH  12  13
TORSDOF 6
ENDMDL
MODEL 2
REMARK VINA RESULT:      -8.6      1.561      2.433
REMARK  Name = C:\Users\Docking\Desktop\test protocol\1iep_ligandH.pdb
REMARK  8 active torsions:
REMARK  status: ('A' for Active; 'I' for Inactive)
REMARK    1  A    between atoms: _5  and  _11
REMARK    2  A    between atoms: _19  and  _21
REMARK    3  A    between atoms: _22  and  _66
REMARK    4  A    between atoms: _27  and  _30
REMARK    5  A    between atoms: _32  and  _33
REMARK    6  A    between atoms: _38  and  _43
REMARK    7  A    between atoms: _43  and  _46
REMARK    8  A    between atoms: _53  and  _55
REMARK                            x       y       z     vdW  Elec       q    Type
REMARK                         _______ _______ _______ _____ _____    ______ ____
ROOT
ATOM     10  C   UNL     1      27.917  11.984  45.397  0.00  0.00    +0.038 A 
ATOM     11  C   UNL     1      26.655  12.614  45.547  0.00  0.00    +0.047 A 
ATOM     12  C   UNL     1      26.552  13.996  45.990  0.00  0.00    +0.035 A 
ATOM     32  C   UNL     1      27.755  14.708  46.269  0.00  0.00    +0.024 A 
ATOM     33  C   UNL     1      29.046  14.083  46.123  0.00  0.00    +0.007 A 
ATOM     34  C   UNL     1      29.154  12.719  45.689  0.00  0.00    -0.029 A 
ATOM     35  C   UNL     1      30.564  12.098  45.556  0.00  0.00    +0.045 C 
ENDROOT
BRANCH  10   9
ATOM      4  C   UNL     1      27.080   7.302  46.041  0.00  0.00    +0.077 A 
ATOM      5  C   UNL     1      26.540   7.519  47.352  0.00  0.00    +0.048 A 
ATOM      6  C   UNL     1      26.503   8.849  47.827  0.00  0.00    +0.116 A 
ATOM      7  N   UNL     1      26.972   9.878  47.040  0.00  0.00    -0.223 NA
ATOM      8  C   UNL     1      27.488   9.635  45.781  0.00  0.00    +0.220 A 
ATOM      9  N   UNL     1      27.958  10.656  44.969  0.00  0.00    -0.283 N 
ATOM     36  H   UNL     1      28.337  10.434  44.049  0.00  0.00    +0.155 HD
ATOM     37  N   UNL     1      27.536   8.373  45.305  0.00  0.00    -0.214 NA
BRANCH   4   3
ATOM      1  C   UNL     1      28.135   4.357  43.693  0.00  0.00    +0.020 A 
ATOM      2  C   UNL     1      28.072   5.677  44.277  0.00  0.00    +0.013 A 
ATOM      3  C   UNL     1      27.184   5.954  45.398  0.00  0.00    +0.019 A 
ATOM     38  C   UNL     1      26.367   4.864  45.911  0.00  0.00    +0.120 A 
ATOM     39  N   UNL     1      26.448   3.604  45.327  0.00  0.00    -0.263 NA
ATOM     40  C   UNL     1      27.297   3.326  44.246  0.00  0.00    +0.111 A 
ENDBRANCH   4   3
ENDBRANCH  10   9
BRANCH  12  13
ATOM     13  N   UNL     1      25.298  14.686  46.168  0.00  0.00    -0.281 N 
ATOM     14  C   UNL     1      24.626  14.937  47.353  0.00  0.00    +0.248 C 
ATOM     30  O   UNL     1      24.896  14.417  48.425  0.00  0.00    -0.270 OA
ATOM     31  H   UNL     1      24.853  15.031  45.318  0.00  0.00    +0.155 HD
BRANCH  14  15
ATOM     15  C   UNL     1      23.477  15.894  47.342  0.00  0.00    +0.037 A 
ATOM     16  C   UNL     1      22.629  16.076  48.523  0.00  0.00    +0.013 A 
ATOM     17  C   UNL     1      21.517  16.993  48.480  0.00  0.00    +0.005 A 
ATOM     18  C   UNL     1      21.248  17.735  47.251  0.00  0.00    -0.033 A 
ATOM     28  C   UNL     1      22.109  17.539  46.096  0.00  0.00    +0.005 A 
ATOM     29  C   UNL     1      23.198  16.641  46.134  0.00  0.00    +0.013 A 
BRANCH  18  19
ATOM     19  C   UNL     1      20.071  18.718  47.109  0.00  0.00    +0.119 C 
BRANCH  19  20
ATOM     20  N   UNL     1      20.398  20.175  47.066  0.00  0.00    -0.302 NA
ATOM     21  C   UNL     1      19.658  20.961  48.152  0.00  0.00    +0.066 C 
ATOM     22  C   UNL     1      20.029  22.480  48.108  0.00  0.00    -0.064 C 
ATOM     23  N   UNL     1      19.709  23.040  46.721  0.00  0.00    +0.379 N 
ATOM     24  C   UNL     1      20.003  24.480  46.694  0.00  0.00    -0.096 C 
ATOM     25  H   UNL     1      18.615  22.914  46.549  0.00  0.00    -0.082 HD
ATOM     26  C   UNL     1      20.439  22.262  45.635  0.00  0.00    -0.064 C 
ATOM     27  C   UNL     1      20.086  20.750  45.706  0.00  0.00    +0.066 C 
ENDBRANCH  19  20
ENDBRANCH  18  19
ENDBRANCH  14  15
ENDBRANCH  12  13
TORSDOF 6
ENDMDL
MODEL 3
REMARK VINA RESULT:      -8.5      4.583     13.838
REMARK  Name = C:\Users\Docking\Desktop\test protocol\1iep_ligandH.pdb
REMARK  8 active torsions:
REMARK  status: ('A' for Active; 'I' for Inactive)
REMARK    1  A    between atoms: _5  and  _11
REMARK    2  A    between atoms: _19  and  _21
REMARK    3  A    between atoms: _22  and  _66
REMARK    4  A    between atoms: _27  and  _30
REMARK    5  A    between atoms: _32  and  _33
REMARK    6  A    between atoms: _38  and  _43
REMARK    7  A    between atoms: _43  and  _46
REMARK    8  A    between atoms: _53  and  _55
REMARK                            x       y       z     vdW  Elec       q    Type
REMARK                         _______ _______ _______ _____ _____    ______ ____
ROOT
ATOM     10  C   UNL     1      21.880  20.934  45.757  0.00  0.00    +0.038 A 
ATOM     11  C   UNL     1      22.801  19.866  45.911  0.00  0.00    +0.047 A 
ATOM     12  C   UNL     1      22.384  18.483  45.746  0.00  0.00    +0.035 A 
ATOM     32  C   UNL     1      21.021  18.222  45.420  0.00  0.00    +0.024 A 
ATOM     33  C   UNL     1      20.071  19.294  45.261  0.00  0.00    +0.007 A 
ATOM     34  C   UNL     1      20.476  20.661  45.426  0.00  0.00    -0.029 A 
ATOM     35  C   UNL     1      19.413  21.771  45.249  0.00  0.00    +0.045 C 
ENDROOT
BRANCH  10   9
ATOM      4  C   UNL     1      22.966  24.712  48.510  0.00  0.00    +0.077 A 
ATOM      5  C   UNL     1      22.570  24.029  49.707  0.00  0.00    +0.048 A 
ATOM      6  C   UNL     1      22.085  22.709  49.571  0.00  0.00    +0.116 A 
ATOM      7  N   UNL     1      22.007  22.126  48.325  0.00  0.00    -0.223 NA
ATOM      8  C   UNL     1      22.396  22.813  47.190  0.00  0.00    +0.220 A 
ATOM      9  N   UNL     1      22.334  22.243  45.927  0.00  0.00    -0.283 N 
ATOM     36  H   UNL     1      22.624  22.786  45.114  0.00  0.00    +0.155 HD
ATOM     37  N   UNL     1      22.861  24.075  47.293  0.00  0.00    -0.214 NA
BRANCH   4   3
ATOM      1  C   UNL     1      25.332  27.809  48.852  0.00  0.00    +0.020 A 
ATOM      2  C   UNL     1      24.864  26.442  48.890  0.00  0.00    +0.013 A 
ATOM      3  C   UNL     1      23.502  26.110  48.491  0.00  0.00    +0.019 A 
ATOM     38  C   UNL     1      22.632  27.193  48.056  0.00  0.00    +0.120 A 
ATOM     39  N   UNL     1      23.110  28.499  48.032  0.00  0.00    -0.263 NA
ATOM     40  C   UNL     1      24.418  28.831  48.415  0.00  0.00    +0.111 A 
ENDBRANCH   4   3
ENDBRANCH  10   9
BRANCH  12  13
ATOM     13  N   UNL     1      23.273  17.357  45.898  0.00  0.00    -0.281 N 
ATOM     14  C   UNL     1      23.302  16.428  46.925  0.00  0.00    +0.248 C 
ATOM     30  O   UNL     1      22.702  16.547  47.983  0.00  0.00    -0.270 OA
ATOM     31  H   UNL     1      23.965  17.231  45.159  0.00  0.00    +0.155 HD
BRANCH  14  15
ATOM     15  C   UNL     1      24.127  15.193  46.757  0.00  0.00    +0.037 A 
ATOM     16  C   UNL     1      24.108  14.125  47.760  0.00  0.00    +0.013 A 
ATOM     17  C   UNL     1      24.927  12.952  47.583  0.00  0.00    +0.005 A 
ATOM     18  C   UNL     1      25.771  12.840  46.396  0.00  0.00    -0.033 A 
ATOM     28  C   UNL     1      25.766  13.912  45.414  0.00  0.00    +0.005 A 
ATOM     29  C   UNL     1      24.966  15.064  45.585  0.00  0.00    +0.013 A 
BRANCH  18  19
ATOM     19  C   UNL     1      26.693  11.634  46.135  0.00  0.00    +0.119 C 
BRANCH  19  20
ATOM     20  N   UNL     1      28.154  11.826  46.376  0.00  0.00    -0.302 NA
ATOM     21  C   UNL     1      28.437  13.057  47.241  0.00  0.00    +0.066 C 
ATOM     22  C   UNL     1      29.969  13.229  47.502  0.00  0.00    -0.064 C 
ATOM     23  N   UNL     1      30.704  13.327  46.164  0.00  0.00    +0.379 N 
ATOM     24  C   UNL     1      32.137  13.548  46.406  0.00  0.00    -0.096 C 
ATOM     25  H   UNL     1      30.310  14.222  45.627  0.00  0.00    -0.082 HD
ATOM     26  C   UNL     1      30.425  12.108  45.296  0.00  0.00    -0.064 C 
ATOM     27  C   UNL     1      28.899  11.929  45.067  0.00  0.00    +0.066 C 
ENDBRANCH  19  20
ENDBRANCH  18  19
ENDBRANCH  14  15
ENDBRANCH  12  13
TORSDOF 6
ENDMDL
MODEL 4
REMARK VINA RESULT:      -8.4     35.598     39.556
REMARK  Name = C:\Users\Docking\Desktop\test protocol\1iep_ligandH.pdb
REMARK  8 active torsions:
REMARK  status: ('A' for Active; 'I' for Inactive)
REMARK    1  A    between atoms: _5  and  _11
REMARK    2  A    between atoms: _19  and  _21
REMARK    3  A    between atoms: _22  and  _66
REMARK    4  A    between atoms: _27  and  _30
REMARK    5  A    between atoms: _32  and  _33
REMARK    6  A    between atoms: _38  and  _43
REMARK    7  A    between atoms: _43  and  _46
REMARK    8  A    between atoms: _53  and  _55
REMARK                            x       y       z     vdW  Elec       q    Type
REMARK                         _______ _______ _______ _____ _____    ______ ____
ROOT
ATOM     10  C   UNL     1      18.325  35.557  14.735  0.00  0.00    +0.038 A 
ATOM     11  C   UNL     1      19.703  35.878  14.829  0.00  0.00    +0.047 A 
ATOM     12  C   UNL     1      20.671  35.319  13.899  0.00  0.00    +0.035 A 
ATOM     32  C   UNL     1      20.201  34.437  12.883  0.00  0.00    +0.024 A 
ATOM     33  C   UNL     1      18.804  34.099  12.773  0.00  0.00    +0.007 A 
ATOM     34  C   UNL     1      17.844  34.645  13.690  0.00  0.00    -0.029 A 
ATOM     35  C   UNL     1      16.360  34.242  13.529  0.00  0.00    +0.045 C 
ENDROOT
BRANCH  10   9
ATOM      4  C   UNL     1      16.952  36.561  19.223  0.00  0.00    +0.077 A 
ATOM      5  C   UNL     1      18.082  35.878  19.785  0.00  0.00    +0.048 A 
ATOM      6  C   UNL     1      18.989  35.275  18.884  0.00  0.00    +0.116 A 
ATOM      7  N   UNL     1      18.772  35.356  17.526  0.00  0.00    -0.223 NA
ATOM      8  C   UNL     1      17.672  36.021  17.018  0.00  0.00    +0.220 A 
ATOM      9  N   UNL     1      17.439  36.122  15.655  0.00  0.00    -0.283 N 
ATOM     36  H   UNL     1      16.611  36.615  15.320  0.00  0.00    +0.155 HD
ATOM     37  N   UNL     1      16.790  36.604  17.857  0.00  0.00    -0.214 NA
BRANCH   4   3
ATOM      1  C   UNL     1      15.182  38.838  21.865  0.00  0.00    +0.020 A 
ATOM      2  C   UNL     1      16.229  38.200  21.102  0.00  0.00    +0.013 A 
ATOM      3  C   UNL     1      15.907  37.250  20.045  0.00  0.00    +0.019 A 
ATOM     38  C   UNL     1      14.504  36.967  19.782  0.00  0.00    +0.120 A 
ATOM     39  N   UNL     1      13.517  37.596  20.535  0.00  0.00    -0.263 NA
ATOM     40  C   UNL     1      13.816  38.510  21.556  0.00  0.00    +0.111 A 
ENDBRANCH   4   3
ENDBRANCH  10   9
BRANCH  12  13
ATOM     13  N   UNL     1      22.084  35.603  13.951  0.00  0.00    -0.281 N 
ATOM     14  C   UNL     1      22.702  36.842  14.007  0.00  0.00    +0.248 C 
ATOM     30  O   UNL     1      22.137  37.906  13.805  0.00  0.00    -0.270 OA
ATOM     31  H   UNL     1      22.704  34.793  13.945  0.00  0.00    +0.155 HD
BRANCH  14  15
ATOM     15  C   UNL     1      24.163  36.906  14.318  0.00  0.00    +0.037 A 
ATOM     16  C   UNL     1      24.687  37.844  15.314  0.00  0.00    +0.013 A 
ATOM     17  C   UNL     1      26.102  37.898  15.583  0.00  0.00    +0.005 A 
ATOM     18  C   UNL     1      27.003  37.009  14.855  0.00  0.00    -0.033 A 
ATOM     28  C   UNL     1      26.456  36.084  13.876  0.00  0.00    +0.005 A 
ATOM     29  C   UNL     1      25.070  36.029  13.609  0.00  0.00    +0.013 A 
BRANCH  18  19
ATOM     19  C   UNL     1      28.530  37.012  15.063  0.00  0.00    +0.119 C 
BRANCH  19  20
ATOM     20  N   UNL     1      29.106  35.931  15.917  0.00  0.00    -0.302 NA
ATOM     21  C   UNL     1      28.669  36.060  17.379  0.00  0.00    +0.066 C 
ATOM     22  C   UNL     1      29.263  34.908  18.253  0.00  0.00    -0.064 C 
ATOM     23  N   UNL     1      30.789  34.921  18.141  0.00  0.00    +0.379 N 
ATOM     24  C   UNL     1      31.353  33.876  19.007  0.00  0.00    -0.096 C 
ATOM     25  H   UNL     1      31.148  35.906  18.520  0.00  0.00    -0.082 HD
ATOM     26  C   UNL     1      31.232  34.796  16.690  0.00  0.00    -0.064 C 
ATOM     27  C   UNL     1      30.612  35.928  15.824  0.00  0.00    +0.066 C 
ENDBRANCH  19  20
ENDBRANCH  18  19
ENDBRANCH  14  15
ENDBRANCH  12  13
TORSDOF 6
ENDMDL
MODEL 5
REMARK VINA RESULT:      -8.4      2.132     12.345
REMARK  Name = C:\Users\Docking\Desktop\test protocol\1iep_ligandH.pdb
REMARK  8 active torsions:
REMARK  status: ('A' for Active; 'I' for Inactive)
REMARK    1  A    between atoms: _5  and  _11
REMARK    2  A    between atoms: _19  and  _21
REMARK    3  A    between atoms: _22  and  _66
REMARK    4  A    between atoms: _27  and  _30
REMARK    5  A    between atoms: _32  and  _33
REMARK    6  A    between atoms: _38  and  _43
REMARK    7  A    between atoms: _43  and  _46
REMARK    8  A    between atoms: _53  and  _55
REMARK                            x       y       z     vdW  Elec       q    Type
REMARK                         _______ _______ _______ _____ _____    ______ ____
ROOT
ATOM     10  C   UNL     1      27.011  13.226  45.498  0.00  0.00    +0.038 A 
ATOM     11  C   UNL     1      26.772  11.829  45.440  0.00  0.00    +0.047 A 
ATOM     12  C   UNL     1      27.860  10.873  45.585  0.00  0.00    +0.035 A 
ATOM     32  C   UNL     1      29.178  11.376  45.791  0.00  0.00    +0.024 A 
ATOM     33  C   UNL     1      29.438  12.793  45.852  0.00  0.00    +0.007 A 
ATOM     34  C   UNL     1      28.370  13.740  45.707  0.00  0.00    -0.029 A 
ATOM     35  C   UNL     1      28.708  15.247  45.774  0.00  0.00    +0.045 C 
ENDROOT
BRANCH  10   9
ATOM      4  C   UNL     1      23.545  16.010  47.308  0.00  0.00    +0.077 A 
ATOM      5  C   UNL     1      23.901  15.677  48.657  0.00  0.00    +0.048 A 
ATOM      6  C   UNL     1      24.977  14.780  48.842  0.00  0.00    +0.116 A 
ATOM      7  N   UNL     1      25.641  14.262  47.752  0.00  0.00    -0.223 NA
ATOM      8  C   UNL     1      25.271  14.602  46.463  0.00  0.00    +0.220 A 
ATOM      9  N   UNL     1      25.930  14.098  45.352  0.00  0.00    -0.283 N 
ATOM     36  H   UNL     1      25.622  14.368  44.418  0.00  0.00    +0.155 HD
ATOM     37  N   UNL     1      24.245  15.455  46.260  0.00  0.00    -0.214 NA
BRANCH   4   3
ATOM      1  C   UNL     1      21.420  18.784  45.550  0.00  0.00    +0.020 A 
ATOM      2  C   UNL     1      22.524  17.903  45.855  0.00  0.00    +0.013 A 
ATOM      3  C   UNL     1      22.432  16.945  46.950  0.00  0.00    +0.019 A 
ATOM     38  C   UNL     1      21.200  16.904  47.722  0.00  0.00    +0.120 A 
ATOM     39  N   UNL     1      20.154  17.766  47.406  0.00  0.00    -0.263 NA
ATOM     40  C   UNL     1      20.232  18.693  46.356  0.00  0.00    +0.111 A 
ENDBRANCH   4   3
ENDBRANCH  10   9
BRANCH  12  13
ATOM     13  N   UNL     1      27.680   9.444  45.526  0.00  0.00    -0.281 N 
ATOM     14  C   UNL     1      27.325   8.588  46.556  0.00  0.00    +0.248 C 
ATOM     30  O   UNL     1      27.316   8.895  47.739  0.00  0.00    -0.270 OA
ATOM     31  H   UNL     1      27.833   9.011  44.616  0.00  0.00    +0.155 HD
BRANCH  14  15
ATOM     15  C   UNL     1      26.937   7.182  46.225  0.00  0.00    +0.037 A 
ATOM     16  C   UNL     1      26.001   6.434  47.067  0.00  0.00    +0.013 A 
ATOM     17  C   UNL     1      25.657   5.074  46.735  0.00  0.00    +0.005 A 
ATOM     18  C   UNL     1      26.250   4.454  45.552  0.00  0.00    -0.033 A 
ATOM     28  C   UNL     1      27.171   5.222  44.731  0.00  0.00    +0.005 A 
ATOM     29  C   UNL     1      27.512   6.554  45.054  0.00  0.00    +0.013 A 
BRANCH  18  19
ATOM     19  C   UNL     1      25.956   3.002  45.133  0.00  0.00    +0.119 C 
BRANCH  19  20
ATOM     20  N   UNL     1      26.798   2.420  44.045  0.00  0.00    -0.302 NA
ATOM     21  C   UNL     1      25.997   2.187  42.761  0.00  0.00    +0.066 C 
ATOM     22  C   UNL     1      26.898   1.600  41.626  0.00  0.00    -0.064 C 
ATOM     23  N   UNL     1      27.537   0.297  42.109  0.00  0.00    +0.379 N 
ATOM     24  C   UNL     1      28.339  -0.287  41.025  0.00  0.00    -0.096 C 
ATOM     25  H   UNL     1      26.714  -0.416  42.344  0.00  0.00    -0.082 HD
ATOM     26  C   UNL     1      28.334   0.519  43.387  0.00  0.00    -0.064 C 
ATOM     27  C   UNL     1      27.436   1.131  44.499  0.00  0.00    +0.066 C 
ENDBRANCH  19  20
ENDBRANCH  18  19
ENDBRANCH  14  15
ENDBRANCH  12  13
TORSDOF 6
ENDMDL
