MODEL 1
REMARK VINA RESULT:      -8.4      0.000      0.000
REMARK  Name = C:\Users\Docking\Desktop\test protocol\1iep_ligandH.pdb
REMARK  8 active torsions:
REMARK  status: ('A' for Active; 'I' for Inactive)
REMARK    1  A    between atoms: _5  and  _11
REMARK    2  A    between atoms: _19  and  _21
REMARK    3  A    between atoms: _22  and  _66
REMARK    4  A    between atoms: _27  and  _30
REMARK    5  A    between atoms: _32  and  _33
REMARK    6  A    between atoms: _38  and  _43
REMARK    7  A    between atoms: _43  and  _46
REMARK    8  A    between atoms: _53  and  _55
REMARK                            x       y       z     vdW  Elec       q    Type
REMARK                         _______ _______ _______ _____ _____    ______ ____
ROOT
ATOM     10  C   UNL     1       0.617   6.483  28.114  0.00  0.00    +0.038 A 
ATOM     11  C   UNL     1      -0.465   6.018  28.905  0.00  0.00    +0.047 A 
ATOM     12  C   UNL     1      -1.840   6.355  28.571  0.00  0.00    +0.035 A 
ATOM     32  C   UNL     1      -2.077   7.165  27.422  0.00  0.00    +0.024 A 
ATOM     33  C   UNL     1      -0.989   7.647  26.608  0.00  0.00    +0.007 A 
ATOM     34  C   UNL     1       0.369   7.320  26.934  0.00  0.00    -0.029 A 
ATOM     35  C   UNL     1       1.496   7.870  26.030  0.00  0.00    +0.045 C 
ENDROOT
BRANCH  10   9
ATOM      4  C   UNL     1       4.534   6.998  30.841  0.00  0.00    +0.077 A 
ATOM      5  C   UNL     1       3.950   8.081  31.579  0.00  0.00    +0.048 A 
ATOM      6  C   UNL     1       2.642   8.479  31.221  0.00  0.00    +0.116 A 
ATOM      7  N   UNL     1       1.978   7.836  30.200  0.00  0.00    -0.223 NA
ATOM      8  C   UNL     1       2.570   6.796  29.507  0.00  0.00    +0.220 A 
ATOM      9  N   UNL     1       1.917   6.130  28.481  0.00  0.00    -0.283 N 
ATOM     36  H   UNL     1       2.392   5.373  27.990  0.00  0.00    +0.155 HD
ATOM     37  N   UNL     1       3.819   6.398  29.828  0.00  0.00    -0.214 NA
BRANCH   4   3
ATOM      1  C   UNL     1       8.014   5.269  30.394  0.00  0.00    +0.020 A 
ATOM      2  C   UNL     1       6.693   5.769  30.089  0.00  0.00    +0.013 A 
ATOM      3  C   UNL     1       5.906   6.460  31.103  0.00  0.00    +0.019 A 
ATOM     38  C   UNL     1       6.490   6.631  32.425  0.00  0.00    +0.120 A 
ATOM     39  N   UNL     1       7.764   6.138  32.689  0.00  0.00    -0.263 NA
ATOM     40  C   UNL     1       8.529   5.469  31.723  0.00  0.00    +0.111 A 
ENDBRANCH   4   3
ENDBRANCH  10   9
BRANCH  12  13
ATOM     13  N   UNL     1      -2.979   5.918  29.341  0.00  0.00    -0.281 N 
ATOM     14  C   UNL     1      -4.078   5.199  28.902  0.00  0.00    +0.248 C 
ATOM     30  O   UNL     1      -4.353   5.005  27.727  0.00  0.00    -0.270 OA
ATOM     31  H   UNL     1      -2.973   6.170  30.329  0.00  0.00    +0.155 HD
BRANCH  14  15
ATOM     15  C   UNL     1      -5.016   4.625  29.914  0.00  0.00    +0.037 A 
ATOM     16  C   UNL     1      -6.310   5.253  30.194  0.00  0.00    +0.013 A 
ATOM     17  C   UNL     1      -7.188   4.689  31.188  0.00  0.00    +0.005 A 
ATOM     18  C   UNL     1      -6.776   3.487  31.908  0.00  0.00    -0.033 A 
ATOM     28  C   UNL     1      -5.489   2.881  31.607  0.00  0.00    +0.005 A 
ATOM     29  C   UNL     1      -4.625   3.432  30.634  0.00  0.00    +0.013 A 
BRANCH  18  19
ATOM     19  C   UNL     1      -7.640   2.828  32.999  0.00  0.00    +0.119 C 
BRANCH  19  20
ATOM     20  N   UNL     1      -8.742   1.926  32.548  0.00  0.00    -0.302 NA
ATOM     21  C   UNL     1      -8.388   1.191  31.252  0.00  0.00    +0.066 C 
ATOM     22  C   UNL     1      -9.542   0.235  30.806  0.00  0.00    -0.064 C 
ATOM     23  N   UNL     1     -10.831   1.042  30.636  0.00  0.00    +0.379 N 
ATOM     24  C   UNL     1     -11.904   0.157  30.161  0.00  0.00    -0.096 C 
ATOM     25  H   UNL     1     -10.648   1.807  29.846  0.00  0.00    -0.082 HD
ATOM     26  C   UNL     1     -11.189   1.779  31.919  0.00  0.00    -0.064 C 
ATOM     27  C   UNL     1     -10.023   2.703  32.369  0.00  0.00    +0.066 C 
ENDBRANCH  19  20
ENDBRANCH  18  19
ENDBRANCH  14  15
ENDBRANCH  12  13
TORSDOF 6
ENDMDL
MODEL 2
REMARK VINA RESULT:      -8.4      2.623      3.660
REMARK  Name = C:\Users\Docking\Desktop\test protocol\1iep_ligandH.pdb
REMARK  8 active torsions:
REMARK  status: ('A' for Active; 'I' for Inactive)
REMARK    1  A    between atoms: _5  and  _11
REMARK    2  A    between atoms: _19  and  _21
REMARK    3  A    between atoms: _22  and  _66
REMARK    4  A    between atoms: _27  and  _30
REMARK    5  A    between atoms: _32  and  _33
REMARK    6  A    between atoms: _38  and  _43
REMARK    7  A    between atoms: _43  and  _46
REMARK    8  A    between atoms: _53  and  _55
REMARK                            x       y       z     vdW  Elec       q    Type
REMARK                         _______ _______ _______ _____ _____    ______ ____
ROOT
ATOM     10  C   UNL     1      -1.923   7.542  29.860  0.00  0.00    +0.038 A 
ATOM     11  C   UNL     1      -2.767   6.443  30.163  0.00  0.00    +0.047 A 
ATOM     12  C   UNL     1      -4.197   6.498  29.903  0.00  0.00    +0.035 A 
ATOM     32  C   UNL     1      -4.734   7.688  29.332  0.00  0.00    +0.024 A 
ATOM     33  C   UNL     1      -3.891   8.815  29.019  0.00  0.00    +0.007 A 
ATOM     34  C   UNL     1      -2.480   8.767  29.275  0.00  0.00    -0.029 A 
ATOM     35  C   UNL     1      -1.626  10.008  28.925  0.00  0.00    +0.045 C 
ENDROOT
BRANCH  10   9
ATOM      4  C   UNL     1       2.555   6.344  28.615  0.00  0.00    +0.077 A 
ATOM      5  C   UNL     1       2.134   5.868  27.329  0.00  0.00    +0.048 A 
ATOM      6  C   UNL     1       0.755   5.943  27.029  0.00  0.00    +0.116 A 
ATOM      7  N   UNL     1      -0.128   6.457  27.955  0.00  0.00    -0.223 NA
ATOM      8  C   UNL     1       0.312   6.906  29.186  0.00  0.00    +0.220 A 
ATOM      9  N   UNL     1      -0.557   7.434  30.129  0.00  0.00    -0.283 N 
ATOM     36  H   UNL     1      -0.194   7.747  31.029  0.00  0.00    +0.155 HD
ATOM     37  N   UNL     1       1.624   6.844  29.497  0.00  0.00    -0.214 NA
BRANCH   4   3
ATOM      1  C   UNL     1       6.329   5.418  29.060  0.00  0.00    +0.020 A 
ATOM      2  C   UNL     1       4.967   5.384  28.582  0.00  0.00    +0.013 A 
ATOM      3  C   UNL     1       3.979   6.335  29.077  0.00  0.00    +0.019 A 
ATOM     38  C   UNL     1       4.407   7.316  30.063  0.00  0.00    +0.120 A 
ATOM     39  N   UNL     1       5.726   7.324  30.506  0.00  0.00    -0.263 NA
ATOM     40  C   UNL     1       6.684   6.413  30.039  0.00  0.00    +0.111 A 
ENDBRANCH   4   3
ENDBRANCH  10   9
BRANCH  12  13
ATOM     13  N   UNL     1      -5.104   5.417  30.198  0.00  0.00    -0.281 N 
ATOM     14  C   UNL     1      -5.184   4.180  29.579  0.00  0.00    +0.248 C 
ATOM     30  O   UNL     1      -4.625   3.894  28.531  0.00  0.00    -0.270 OA
ATOM     31  H   UNL     1      -5.768   5.584  30.954  0.00  0.00    +0.155 HD
BRANCH  14  15
ATOM     15  C   UNL     1      -6.017   3.110  30.209  0.00  0.00    +0.037 A 
ATOM     16  C   UNL     1      -7.220   2.597  29.549  0.00  0.00    +0.013 A 
ATOM     17  C   UNL     1      -8.015   1.577  30.185  0.00  0.00    +0.005 A 
ATOM     18  C   UNL     1      -7.608   1.063  31.491  0.00  0.00    -0.033 A 
ATOM     28  C   UNL     1      -6.407   1.586  32.121  0.00  0.00    +0.005 A 
ATOM     29  C   UNL     1      -5.626   2.586  31.500  0.00  0.00    +0.013 A 
BRANCH  18  19
ATOM     19  C   UNL     1      -8.408  -0.011  32.253  0.00  0.00    +0.119 C 
BRANCH  19  20
ATOM     20  N   UNL     1      -7.823  -1.383  32.315  0.00  0.00    -0.302 NA
ATOM     21  C   UNL     1      -6.880  -1.660  31.140  0.00  0.00    +0.066 C 
ATOM     22  C   UNL     1      -6.261  -3.092  31.233  0.00  0.00    -0.064 C 
ATOM     23  N   UNL     1      -7.385  -4.129  31.281  0.00  0.00    +0.379 N 
ATOM     24  C   UNL     1      -6.805  -5.480  31.309  0.00  0.00    -0.096 C 
ATOM     25  H   UNL     1      -7.973  -4.033  30.339  0.00  0.00    -0.082 HD
ATOM     26  C   UNL     1      -8.328  -3.860  32.444  0.00  0.00    -0.064 C 
ATOM     27  C   UNL     1      -8.916  -2.423  32.359  0.00  0.00    +0.066 C 
ENDBRANCH  19  20
ENDBRANCH  18  19
ENDBRANCH  14  15
ENDBRANCH  12  13
TORSDOF 6
ENDMDL
MODEL 3
REMARK VINA RESULT:      -8.3     12.276     15.880
REMARK  Name = C:\Users\Docking\Desktop\test protocol\1iep_ligandH.pdb
REMARK  8 active torsions:
REMARK  status: ('A' for Active; 'I' for Inactive)
REMARK    1  A    between atoms: _5  and  _11
REMARK    2  A    between atoms: _19  and  _21
REMARK    3  A    between atoms: _22  and  _66
REMARK    4  A    between atoms: _27  and  _30
REMARK    5  A    between atoms: _32  and  _33
REMARK    6  A    between atoms: _38  and  _43
REMARK    7  A    between atoms: _43  and  _46
REMARK    8  A    between atoms: _53  and  _55
REMARK                            x       y       z     vdW  Elec       q    Type
REMARK                         _______ _______ _______ _____ _____    ______ ____
ROOT
ATOM     10  C   UNL     1       5.278  -0.827  22.298  0.00  0.00    +0.038 A 
ATOM     11  C   UNL     1       4.948  -0.809  20.919  0.00  0.00    +0.047 A 
ATOM     12  C   UNL     1       5.604  -1.703  19.977  0.00  0.00    +0.035 A 
ATOM     32  C   UNL     1       6.590  -2.604  20.475  0.00  0.00    +0.024 A 
ATOM     33  C   UNL     1       6.938  -2.634  21.874  0.00  0.00    +0.007 A 
ATOM     34  C   UNL     1       6.296  -1.753  22.808  0.00  0.00    -0.029 A 
ATOM     35  C   UNL     1       6.713  -1.825  24.295  0.00  0.00    +0.045 C 
ENDROOT
BRANCH  10   9
ATOM      4  C   UNL     1       5.073   3.212  24.883  0.00  0.00    +0.077 A 
ATOM      5  C   UNL     1       6.407   3.588  24.511  0.00  0.00    +0.048 A 
ATOM      6  C   UNL     1       7.114   2.711  23.658  0.00  0.00    +0.116 A 
ATOM      7  N   UNL     1       6.522   1.548  23.217  0.00  0.00    -0.223 NA
ATOM      8  C   UNL     1       5.234   1.214  23.596  0.00  0.00    +0.220 A 
ATOM      9  N   UNL     1       4.616   0.053  23.158  0.00  0.00    -0.283 N 
ATOM     36  H   UNL     1       3.668  -0.160  23.467  0.00  0.00    +0.155 HD
ATOM     37  N   UNL     1       4.539   2.034  24.411  0.00  0.00    -0.214 NA
BRANCH   4   3
ATOM      1  C   UNL     1       3.786   5.429  27.838  0.00  0.00    +0.020 A 
ATOM      2  C   UNL     1       4.673   4.642  27.013  0.00  0.00    +0.013 A 
ATOM      3  C   UNL     1       4.197   4.036  25.775  0.00  0.00    +0.019 A 
ATOM     38  C   UNL     1       2.808   4.249  25.398  0.00  0.00    +0.120 A 
ATOM     39  N   UNL     1       1.977   5.011  26.213  0.00  0.00    -0.263 NA
ATOM     40  C   UNL     1       2.423   5.597  27.407  0.00  0.00    +0.111 A 
ENDBRANCH   4   3
ENDBRANCH  10   9
BRANCH  12  13
ATOM     13  N   UNL     1       5.317  -1.725  18.564  0.00  0.00    -0.281 N 
ATOM     14  C   UNL     1       4.835  -2.781  17.809  0.00  0.00    +0.248 C 
ATOM     30  O   UNL     1       4.778  -3.939  18.197  0.00  0.00    -0.270 OA
ATOM     31  H   UNL     1       5.490  -0.855  18.059  0.00  0.00    +0.155 HD
BRANCH  14  15
ATOM     15  C   UNL     1       4.359  -2.516  16.417  0.00  0.00    +0.037 A 
ATOM     16  C   UNL     1       4.765  -1.310  15.692  0.00  0.00    +0.013 A 
ATOM     17  C   UNL     1       4.279  -1.070  14.357  0.00  0.00    +0.005 A 
ATOM     18  C   UNL     1       3.381  -2.042  13.737  0.00  0.00    -0.033 A 
ATOM     28  C   UNL     1       2.998  -3.233  14.477  0.00  0.00    +0.005 A 
ATOM     29  C   UNL     1       3.472  -3.470  15.787  0.00  0.00    +0.013 A 
BRANCH  18  19
ATOM     19  C   UNL     1       2.796  -1.857  12.324  0.00  0.00    +0.119 C 
BRANCH  19  20
ATOM     20  N   UNL     1       2.325  -0.490  11.952  0.00  0.00    -0.302 NA
ATOM     21  C   UNL     1       1.158  -0.026  12.829  0.00  0.00    +0.066 C 
ATOM     22  C   UNL     1       0.693   1.416  12.441  0.00  0.00    -0.064 C 
ATOM     23  N   UNL     1       0.303   1.442  10.962  0.00  0.00    +0.379 N 
ATOM     24  C   UNL     1      -0.190   2.781  10.608  0.00  0.00    -0.096 C 
ATOM     25  H   UNL     1      -0.538   0.724  10.821  0.00  0.00    -0.082 HD
ATOM     26  C   UNL     1       1.457   0.979  10.083  0.00  0.00    -0.064 C 
ATOM     27  C   UNL     1       1.931  -0.442  10.496  0.00  0.00    +0.066 C 
ENDBRANCH  19  20
ENDBRANCH  18  19
ENDBRANCH  14  15
ENDBRANCH  12  13
TORSDOF 6
ENDMDL
MODEL 4
REMARK VINA RESULT:      -8.3      1.804      2.967
REMARK  Name = C:\Users\Docking\Desktop\test protocol\1iep_ligandH.pdb
REMARK  8 active torsions:
REMARK  status: ('A' for Active; 'I' for Inactive)
REMARK    1  A    between atoms: _5  and  _11
REMARK    2  A    between atoms: _19  and  _21
REMARK    3  A    between atoms: _22  and  _66
REMARK    4  A    between atoms: _27  and  _30
REMARK    5  A    between atoms: _32  and  _33
REMARK    6  A    between atoms: _38  and  _43
REMARK    7  A    between atoms: _43  and  _46
REMARK    8  A    between atoms: _53  and  _55
REMARK                            x       y       z     vdW  Elec       q    Type
REMARK                         _______ _______ _______ _____ _____    ______ ____
ROOT
ATOM     10  C   UNL     1      -1.810   7.588  29.878  0.00  0.00    +0.038 A 
ATOM     11  C   UNL     1      -2.683   6.497  30.124  0.00  0.00    +0.047 A 
ATOM     12  C   UNL     1      -4.106   6.594  29.837  0.00  0.00    +0.035 A 
ATOM     32  C   UNL     1      -4.605   7.815  29.298  0.00  0.00    +0.024 A 
ATOM     33  C   UNL     1      -3.732   8.934  29.043  0.00  0.00    +0.007 A 
ATOM     34  C   UNL     1      -2.328   8.845  29.327  0.00  0.00    -0.029 A 
ATOM     35  C   UNL     1      -1.440  10.078  29.040  0.00  0.00    +0.045 C 
ENDROOT
BRANCH  10   9
ATOM      4  C   UNL     1       2.686   6.440  28.651  0.00  0.00    +0.077 A 
ATOM      5  C   UNL     1       2.293   6.078  27.319  0.00  0.00    +0.048 A 
ATOM      6  C   UNL     1       0.923   6.195  26.993  0.00  0.00    +0.116 A 
ATOM      7  N   UNL     1       0.023   6.642  27.935  0.00  0.00    -0.223 NA
ATOM      8  C   UNL     1       0.435   6.981  29.211  0.00  0.00    +0.220 A 
ATOM      9  N   UNL     1      -0.452   7.440  30.172  0.00  0.00    -0.283 N 
ATOM     36  H   UNL     1      -0.110   7.673  31.104  0.00  0.00    +0.155 HD
ATOM     37  N   UNL     1       1.737   6.877  29.548  0.00  0.00    -0.214 NA
BRANCH   4   3
ATOM      1  C   UNL     1       6.405   5.355  29.195  0.00  0.00    +0.020 A 
ATOM      2  C   UNL     1       5.053   5.375  28.685  0.00  0.00    +0.013 A 
ATOM      3  C   UNL     1       4.097   6.374  29.146  0.00  0.00    +0.019 A 
ATOM     38  C   UNL     1       4.545   7.348  30.130  0.00  0.00    +0.120 A 
ATOM     39  N   UNL     1       5.853   7.304  30.605  0.00  0.00    -0.263 NA
ATOM     40  C   UNL     1       6.780   6.345  30.170  0.00  0.00    +0.111 A 
ENDBRANCH   4   3
ENDBRANCH  10   9
BRANCH  12  13
ATOM     13  N   UNL     1      -5.042   5.523  30.073  0.00  0.00    -0.281 N 
ATOM     14  C   UNL     1      -5.167   4.332  29.377  0.00  0.00    +0.248 C 
ATOM     30  O   UNL     1      -4.629   4.098  28.305  0.00  0.00    -0.270 OA
ATOM     31  H   UNL     1      -5.692   5.659  30.847  0.00  0.00    +0.155 HD
BRANCH  14  15
ATOM     15  C   UNL     1      -6.025   3.248  29.947  0.00  0.00    +0.037 A 
ATOM     16  C   UNL     1      -5.727   2.651  31.251  0.00  0.00    +0.013 A 
ATOM     17  C   UNL     1      -6.561   1.595  31.770  0.00  0.00    +0.005 A 
ATOM     18  C   UNL     1      -7.702   1.132  30.984  0.00  0.00    -0.033 A 
ATOM     28  C   UNL     1      -7.977   1.746  29.696  0.00  0.00    +0.005 A 
ATOM     29  C   UNL     1      -7.162   2.780  29.183  0.00  0.00    +0.013 A 
BRANCH  18  19
ATOM     19  C   UNL     1      -8.633  -0.003  31.450  0.00  0.00    +0.119 C 
BRANCH  19  20
ATOM     20  N   UNL     1     -10.029   0.369  31.826  0.00  0.00    -0.302 NA
ATOM     21  C   UNL     1     -11.011   0.157  30.671  0.00  0.00    +0.066 C 
ATOM     22  C   UNL     1     -12.471   0.529  31.089  0.00  0.00    -0.064 C 
ATOM     23  N   UNL     1     -12.506   1.981  31.570  0.00  0.00    +0.379 N 
ATOM     24  C   UNL     1     -13.888   2.352  31.908  0.00  0.00    -0.096 C 
ATOM     25  H   UNL     1     -12.181   2.626  30.721  0.00  0.00    -0.082 HD
ATOM     26  C   UNL     1     -11.530   2.201  32.717  0.00  0.00    -0.064 C 
ATOM     27  C   UNL     1     -10.088   1.800  32.300  0.00  0.00    +0.066 C 
ENDBRANCH  19  20
ENDBRANCH  18  19
ENDBRANCH  14  15
ENDBRANCH  12  13
TORSDOF 6
ENDMDL
MODEL 5
REMARK VINA RESULT:      -8.3     21.045     25.165
REMARK  Name = C:\Users\Docking\Desktop\test protocol\1iep_ligandH.pdb
REMARK  8 active torsions:
REMARK  status: ('A' for Active; 'I' for Inactive)
REMARK    1  A    between atoms: _5  and  _11
REMARK    2  A    between atoms: _19  and  _21
REMARK    3  A    between atoms: _22  and  _66
REMARK    4  A    between atoms: _27  and  _30
REMARK    5  A    between atoms: _32  and  _33
REMARK    6  A    between atoms: _38  and  _43
REMARK    7  A    between atoms: _43  and  _46
REMARK    8  A    between atoms: _53  and  _55
REMARK                            x       y       z     vdW  Elec       q    Type
REMARK                         _______ _______ _______ _____ _____    ______ ____
ROOT
ATOM     10  C   UNL     1       1.503   0.439  11.180  0.00  0.00    +0.038 A 
ATOM     11  C   UNL     1       1.670   0.999   9.888  0.00  0.00    +0.047 A 
ATOM     12  C   UNL     1       1.112   2.300   9.553  0.00  0.00    +0.035 A 
ATOM     32  C   UNL     1       0.392   3.006  10.561  0.00  0.00    +0.024 A 
ATOM     33  C   UNL     1       0.212   2.452  11.880  0.00  0.00    +0.007 A 
ATOM     34  C   UNL     1       0.758   1.167  12.215  0.00  0.00    -0.029 A 
ATOM     35  C   UNL     1       0.528   0.619  13.642  0.00  0.00    +0.045 C 
ENDROOT
BRANCH  10   9
ATOM      4  C   UNL     1       1.192  -4.334  11.569  0.00  0.00    +0.077 A 
ATOM      5  C   UNL     1      -0.204  -4.330  11.239  0.00  0.00    +0.048 A 
ATOM      6  C   UNL     1      -0.806  -3.077  10.984  0.00  0.00    +0.116 A 
ATOM      7  N   UNL     1      -0.058  -1.922  11.055  0.00  0.00    -0.223 NA
ATOM      8  C   UNL     1       1.286  -1.962  11.377  0.00  0.00    +0.220 A 
ATOM      9  N   UNL     1       2.060  -0.814  11.447  0.00  0.00    -0.283 N 
ATOM     36  H   UNL     1       3.046  -0.884  11.696  0.00  0.00    +0.155 HD
ATOM     37  N   UNL     1       1.884  -3.145  11.628  0.00  0.00    -0.214 NA
BRANCH   4   3
ATOM      1  C   UNL     1       2.607  -7.978  11.409  0.00  0.00    +0.020 A 
ATOM      2  C   UNL     1       1.830  -6.803  11.085  0.00  0.00    +0.013 A 
ATOM      3  C   UNL     1       1.971  -5.579  11.863  0.00  0.00    +0.019 A 
ATOM     38  C   UNL     1       2.913  -5.576  12.971  0.00  0.00    +0.120 A 
ATOM     39  N   UNL     1       3.646  -6.722  13.261  0.00  0.00    -0.263 NA
ATOM     40  C   UNL     1       3.518  -7.907  12.521  0.00  0.00    +0.111 A 
ENDBRANCH   4   3
ENDBRANCH  10   9
BRANCH  12  13
ATOM     13  N   UNL     1       1.242   2.915   8.255  0.00  0.00    -0.281 N 
ATOM     14  C   UNL     1       2.138   3.896   7.864  0.00  0.00    +0.248 C 
ATOM     30  O   UNL     1       2.827   4.550   8.633  0.00  0.00    -0.270 OA
ATOM     31  H   UNL     1       0.596   2.586   7.538  0.00  0.00    +0.155 HD
BRANCH  14  15
ATOM     15  C   UNL     1       2.280   4.206   6.409  0.00  0.00    +0.037 A 
ATOM     16  C   UNL     1       3.566   4.062   5.722  0.00  0.00    +0.013 A 
ATOM     17  C   UNL     1       3.679   4.383   4.322  0.00  0.00    +0.005 A 
ATOM     18  C   UNL     1       2.499   4.852   3.598  0.00  0.00    -0.033 A 
ATOM     28  C   UNL     1       1.234   4.981   4.302  0.00  0.00    +0.005 A 
ATOM     29  C   UNL     1       1.121   4.667   5.675  0.00  0.00    +0.013 A 
BRANCH  18  19
ATOM     19  C   UNL     1       2.532   5.238   2.107  0.00  0.00    +0.119 C 
BRANCH  19  20
ATOM     20  N   UNL     1       1.224   5.308   1.390  0.00  0.00    -0.302 NA
ATOM     21  C   UNL     1       1.014   4.110   0.460  0.00  0.00    +0.066 C 
ATOM     22  C   UNL     1      -0.369   4.188  -0.265  0.00  0.00    -0.064 C 
ATOM     23  N   UNL     1      -0.460   5.501  -1.045  0.00  0.00    +0.379 N 
ATOM     24  C   UNL     1      -1.735   5.551  -1.774  0.00  0.00    -0.096 C 
ATOM     25  H   UNL     1       0.362   5.503  -1.798  0.00  0.00    -0.082 HD
ATOM     26  C   UNL     1      -0.249   6.698  -0.128  0.00  0.00    -0.064 C 
ATOM     27  C   UNL     1       1.115   6.595   0.610  0.00  0.00    +0.066 C 
ENDBRANCH  19  20
ENDBRANCH  18  19
ENDBRANCH  14  15
ENDBRANCH  12  13
TORSDOF 6
ENDMDL
