MODEL 1
REMARK VINA RESULT:      -7.0      0.000      0.000
REMARK  Name = C:\Users\Docking\Desktop\test protocol\1iep_ligandH.pdb
REMARK  8 active torsions:
REMARK  status: ('A' for Active; 'I' for Inactive)
REMARK    1  A    between atoms: _5  and  _11
REMARK    2  A    between atoms: _19  and  _21
REMARK    3  A    between atoms: _22  and  _66
REMARK    4  A    between atoms: _27  and  _30
REMARK    5  A    between atoms: _32  and  _33
REMARK    6  A    between atoms: _38  and  _43
REMARK    7  A    between atoms: _43  and  _46
REMARK    8  A    between atoms: _53  and  _55
REMARK                            x       y       z     vdW  Elec       q    Type
REMARK                         _______ _______ _______ _____ _____    ______ ____
ROOT
ATOM     10  C   UNL     1      12.621  17.037  17.871  0.00  0.00    +0.038 A 
ATOM     11  C   UNL     1      11.579  16.392  18.584  0.00  0.00    +0.047 A 
ATOM     12  C   UNL     1      11.327  14.968  18.426  0.00  0.00    +0.035 A 
ATOM     32  C   UNL     1      12.159  14.230  17.535  0.00  0.00    +0.024 A 
ATOM     33  C   UNL     1      13.223  14.870  16.801  0.00  0.00    +0.007 A 
ATOM     34  C   UNL     1      13.474  16.274  16.951  0.00  0.00    -0.029 A 
ATOM     35  C   UNL     1      14.624  16.909  16.134  0.00  0.00    +0.045 C 
ENDROOT
BRANCH  10   9
ATOM      4  C   UNL     1      14.570  20.749  20.208  0.00  0.00    +0.077 A 
ATOM      5  C   UNL     1      15.230  19.887  21.146  0.00  0.00    +0.048 A 
ATOM      6  C   UNL     1      15.037  18.496  20.997  0.00  0.00    +0.116 A 
ATOM      7  N   UNL     1      14.241  18.012  19.981  0.00  0.00    -0.223 NA
ATOM      8  C   UNL     1      13.617  18.871  19.095  0.00  0.00    +0.220 A 
ATOM      9  N   UNL     1      12.818  18.406  18.061  0.00  0.00    -0.283 N 
ATOM     36  H   UNL     1      12.369  19.072  17.432  0.00  0.00    +0.155 HD
ATOM     37  N   UNL     1      13.785  20.204  19.217  0.00  0.00    -0.214 NA
BRANCH   4   3
ATOM      1  C   UNL     1      15.969  24.394  19.970  0.00  0.00    +0.020 A 
ATOM      2  C   UNL     1      15.917  22.950  19.933  0.00  0.00    +0.013 A 
ATOM      3  C   UNL     1      14.679  22.241  20.233  0.00  0.00    +0.019 A 
ATOM     38  C   UNL     1      13.503  23.029  20.569  0.00  0.00    +0.120 A 
ATOM     39  N   UNL     1      13.584  24.418  20.599  0.00  0.00    -0.263 NA
ATOM     40  C   UNL     1      14.769  25.111  20.314  0.00  0.00    +0.111 A 
ENDBRANCH   4   3
ENDBRANCH  10   9
BRANCH  12  13
ATOM     13  N   UNL     1      10.278  14.261  19.118  0.00  0.00    -0.281 N 
ATOM     14  C   UNL     1      10.312  13.722  20.394  0.00  0.00    +0.248 C 
ATOM     30  O   UNL     1      11.329  13.579  21.057  0.00  0.00    -0.270 OA
ATOM     31  H   UNL     1       9.405  14.143  18.605  0.00  0.00    +0.155 HD
BRANCH  14  15
ATOM     15  C   UNL     1       9.034  13.261  21.017  0.00  0.00    +0.037 A 
ATOM     16  C   UNL     1       8.741  13.520  22.429  0.00  0.00    +0.013 A 
ATOM     17  C   UNL     1       7.508  13.050  23.010  0.00  0.00    +0.005 A 
ATOM     18  C   UNL     1       6.558  12.317  22.177  0.00  0.00    -0.033 A 
ATOM     28  C   UNL     1       6.872  12.078  20.778  0.00  0.00    +0.005 A 
ATOM     29  C   UNL     1       8.080  12.537  20.205  0.00  0.00    +0.013 A 
BRANCH  18  19
ATOM     19  C   UNL     1       5.228  11.760  22.718  0.00  0.00    +0.119 C 
BRANCH  19  20
ATOM     20  N   UNL     1       4.024  11.897  21.845  0.00  0.00    -0.302 NA
ATOM     21  C   UNL     1       3.188  13.127  22.209  0.00  0.00    +0.066 C 
ATOM     22  C   UNL     1       1.944  13.268  21.272  0.00  0.00    -0.064 C 
ATOM     23  N   UNL     1       1.100  11.995  21.354  0.00  0.00    +0.379 N 
ATOM     24  C   UNL     1      -0.100  12.147  20.519  0.00  0.00    -0.096 C 
ATOM     25  H   UNL     1       0.764  11.880  22.411  0.00  0.00    -0.082 HD
ATOM     26  C   UNL     1       1.925  10.767  20.996  0.00  0.00    -0.064 C 
ATOM     27  C   UNL     1       3.174  10.653  21.915  0.00  0.00    +0.066 C 
ENDBRANCH  19  20
ENDBRANCH  18  19
ENDBRANCH  14  15
ENDBRANCH  12  13
TORSDOF 6
ENDMDL
MODEL 2
REMARK VINA RESULT:      -6.6      1.349      1.944
REMARK  Name = C:\Users\Docking\Desktop\test protocol\1iep_ligandH.pdb
REMARK  8 active torsions:
REMARK  status: ('A' for Active; 'I' for Inactive)
REMARK    1  A    between atoms: _5  and  _11
REMARK    2  A    between atoms: _19  and  _21
REMARK    3  A    between atoms: _22  and  _66
REMARK    4  A    between atoms: _27  and  _30
REMARK    5  A    between atoms: _32  and  _33
REMARK    6  A    between atoms: _38  and  _43
REMARK    7  A    between atoms: _43  and  _46
REMARK    8  A    between atoms: _53  and  _55
REMARK                            x       y       z     vdW  Elec       q    Type
REMARK                         _______ _______ _______ _____ _____    ______ ____
ROOT
ATOM     10  C   UNL     1      12.655  17.134  18.006  0.00  0.00    +0.038 A 
ATOM     11  C   UNL     1      11.607  16.468  18.692  0.00  0.00    +0.047 A 
ATOM     12  C   UNL     1      11.334  15.058  18.464  0.00  0.00    +0.035 A 
ATOM     32  C   UNL     1      12.151  14.354  17.531  0.00  0.00    +0.024 A 
ATOM     33  C   UNL     1      13.220  15.015  16.824  0.00  0.00    +0.007 A 
ATOM     34  C   UNL     1      13.491  16.407  17.043  0.00  0.00    -0.029 A 
ATOM     35  C   UNL     1      14.646  17.066  16.252  0.00  0.00    +0.045 C 
ENDROOT
BRANCH  10   9
ATOM      4  C   UNL     1      14.711  20.695  20.481  0.00  0.00    +0.077 A 
ATOM      5  C   UNL     1      15.389  19.778  21.351  0.00  0.00    +0.048 A 
ATOM      6  C   UNL     1      15.176  18.398  21.133  0.00  0.00    +0.116 A 
ATOM      7  N   UNL     1      14.345  17.978  20.117  0.00  0.00    -0.223 NA
ATOM      8  C   UNL     1      13.705  18.889  19.297  0.00  0.00    +0.220 A 
ATOM      9  N   UNL     1      12.872  18.489  18.264  0.00  0.00    -0.283 N 
ATOM     36  H   UNL     1      12.412  19.192  17.686  0.00  0.00    +0.155 HD
ATOM     37  N   UNL     1      13.891  20.212  19.486  0.00  0.00    -0.214 NA
BRANCH   4   3
ATOM      1  C   UNL     1      15.975  24.372  20.055  0.00  0.00    +0.020 A 
ATOM      2  C   UNL     1      15.898  22.935  19.925  0.00  0.00    +0.013 A 
ATOM      3  C   UNL     1      14.837  22.183  20.583  0.00  0.00    +0.019 A 
ATOM     38  C   UNL     1      13.862  22.921  21.372  0.00  0.00    +0.120 A 
ATOM     39  N   UNL     1      13.962  24.305  21.481  0.00  0.00    -0.263 NA
ATOM     40  C   UNL     1      14.979  25.039  20.853  0.00  0.00    +0.111 A 
ENDBRANCH   4   3
ENDBRANCH  10   9
BRANCH  12  13
ATOM     13  N   UNL     1      10.279  14.331  19.125  0.00  0.00    -0.281 N 
ATOM     14  C   UNL     1      10.296  13.769  20.392  0.00  0.00    +0.248 C 
ATOM     30  O   UNL     1      11.303  13.622  21.069  0.00  0.00    -0.270 OA
ATOM     31  H   UNL     1       9.415  14.217  18.596  0.00  0.00    +0.155 HD
BRANCH  14  15
ATOM     15  C   UNL     1       9.012  13.289  20.986  0.00  0.00    +0.037 A 
ATOM     16  C   UNL     1       8.700  13.507  22.400  0.00  0.00    +0.013 A 
ATOM     17  C   UNL     1       7.461  13.018  22.952  0.00  0.00    +0.005 A 
ATOM     18  C   UNL     1       6.523  12.307  22.087  0.00  0.00    -0.033 A 
ATOM     28  C   UNL     1       6.855  12.109  20.685  0.00  0.00    +0.005 A 
ATOM     29  C   UNL     1       8.069  12.586  20.142  0.00  0.00    +0.013 A 
BRANCH  18  19
ATOM     19  C   UNL     1       5.187  11.733  22.595  0.00  0.00    +0.119 C 
BRANCH  19  20
ATOM     20  N   UNL     1       4.919  10.288  22.328  0.00  0.00    -0.302 NA
ATOM     21  C   UNL     1       3.592  10.077  21.593  0.00  0.00    +0.066 C 
ATOM     22  C   UNL     1       3.337   8.562  21.302  0.00  0.00    -0.064 C 
ATOM     23  N   UNL     1       3.358   7.782  22.618  0.00  0.00    +0.379 N 
ATOM     24  C   UNL     1       3.062   6.367  22.353  0.00  0.00    -0.096 C 
ATOM     25  H   UNL     1       2.542   8.184  23.262  0.00  0.00    -0.082 HD
ATOM     26  C   UNL     1       4.673   7.989  23.356  0.00  0.00    -0.064 C 
ATOM     27  C   UNL     1       4.931   9.500  23.614  0.00  0.00    +0.066 C 
ENDBRANCH  19  20
ENDBRANCH  18  19
ENDBRANCH  14  15
ENDBRANCH  12  13
TORSDOF 6
ENDMDL
MODEL 3
REMARK VINA RESULT:      -6.6      6.165     10.224
REMARK  Name = C:\Users\Docking\Desktop\test protocol\1iep_ligandH.pdb
REMARK  8 active torsions:
REMARK  status: ('A' for Active; 'I' for Inactive)
REMARK    1  A    between atoms: _5  and  _11
REMARK    2  A    between atoms: _19  and  _21
REMARK    3  A    between atoms: _22  and  _66
REMARK    4  A    between atoms: _27  and  _30
REMARK    5  A    between atoms: _32  and  _33
REMARK    6  A    between atoms: _38  and  _43
REMARK    7  A    between atoms: _43  and  _46
REMARK    8  A    between atoms: _53  and  _55
REMARK                            x       y       z     vdW  Elec       q    Type
REMARK                         _______ _______ _______ _____ _____    ______ ____
ROOT
ATOM     10  C   UNL     1       5.734  12.094  22.193  0.00  0.00    +0.038 A 
ATOM     11  C   UNL     1       5.920  11.071  23.158  0.00  0.00    +0.047 A 
ATOM     12  C   UNL     1       4.860  10.121  23.461  0.00  0.00    +0.035 A 
ATOM     32  C   UNL     1       3.625  10.241  22.761  0.00  0.00    +0.024 A 
ATOM     33  C   UNL     1       3.418  11.276  21.778  0.00  0.00    +0.007 A 
ATOM     34  C   UNL     1       4.458  12.217  21.476  0.00  0.00    -0.029 A 
ATOM     35  C   UNL     1       4.179  13.309  20.418  0.00  0.00    +0.045 C 
ENDROOT
BRANCH  10   9
ATOM      4  C   UNL     1       9.811  13.298  19.965  0.00  0.00    +0.077 A 
ATOM      5  C   UNL     1       9.866  12.048  19.263  0.00  0.00    +0.048 A 
ATOM      6  C   UNL     1       8.830  11.120  19.509  0.00  0.00    +0.116 A 
ATOM      7  N   UNL     1       7.818  11.429  20.393  0.00  0.00    -0.223 NA
ATOM      8  C   UNL     1       7.796  12.643  21.054  0.00  0.00    +0.220 A 
ATOM      9  N   UNL     1       6.785  12.979  21.941  0.00  0.00    -0.283 N 
ATOM     36  H   UNL     1       6.808  13.882  22.415  0.00  0.00    +0.155 HD
ATOM     37  N   UNL     1       8.775  13.546  20.838  0.00  0.00    -0.214 NA
BRANCH   4   3
ATOM      1  C   UNL     1      11.548  16.689  19.080  0.00  0.00    +0.020 A 
ATOM      2  C   UNL     1      10.527  15.675  19.207  0.00  0.00    +0.013 A 
ATOM      3  C   UNL     1      10.830  14.383  19.808  0.00  0.00    +0.019 A 
ATOM     38  C   UNL     1      12.188  14.147  20.277  0.00  0.00    +0.120 A 
ATOM     39  N   UNL     1      13.151  15.142  20.140  0.00  0.00    -0.263 NA
ATOM     40  C   UNL     1      12.871  16.389  19.561  0.00  0.00    +0.111 A 
ENDBRANCH   4   3
ENDBRANCH  10   9
BRANCH  12  13
ATOM     13  N   UNL     1       4.988   9.067  24.436  0.00  0.00    -0.281 N 
ATOM     14  C   UNL     1       4.967   7.699  24.219  0.00  0.00    +0.248 C 
ATOM     30  O   UNL     1       4.619   7.171  23.174  0.00  0.00    -0.270 OA
ATOM     31  H   UNL     1       5.110   9.365  25.404  0.00  0.00    +0.155 HD
BRANCH  14  15
ATOM     15  C   UNL     1       5.378   6.785  25.328  0.00  0.00    +0.037 A 
ATOM     16  C   UNL     1       5.136   7.135  26.730  0.00  0.00    +0.013 A 
ATOM     17  C   UNL     1       5.558   6.243  27.781  0.00  0.00    +0.005 A 
ATOM     18  C   UNL     1       6.227   4.992  27.433  0.00  0.00    -0.033 A 
ATOM     28  C   UNL     1       6.450   4.667  26.034  0.00  0.00    +0.005 A 
ATOM     29  C   UNL     1       6.038   5.539  25.001  0.00  0.00    +0.013 A 
BRANCH  18  19
ATOM     19  C   UNL     1       6.730   3.991  28.490  0.00  0.00    +0.119 C 
BRANCH  19  20
ATOM     20  N   UNL     1       7.995   4.331  29.207  0.00  0.00    -0.302 NA
ATOM     21  C   UNL     1       7.732   5.131  30.487  0.00  0.00    +0.066 C 
ATOM     22  C   UNL     1       9.064   5.459  31.236  0.00  0.00    -0.064 C 
ATOM     23  N   UNL     1       9.997   6.228  30.299  0.00  0.00    +0.379 N 
ATOM     24  C   UNL     1      11.227   6.589  31.018  0.00  0.00    -0.096 C 
ATOM     25  H   UNL     1       9.483   7.175  30.012  0.00  0.00    -0.082 HD
ATOM     26  C   UNL     1      10.261   5.442  29.023  0.00  0.00    -0.064 C 
ATOM     27  C   UNL     1       8.929   5.095  28.301  0.00  0.00    +0.066 C 
ENDBRANCH  19  20
ENDBRANCH  18  19
ENDBRANCH  14  15
ENDBRANCH  12  13
TORSDOF 6
ENDMDL
MODEL 4
REMARK VINA RESULT:      -6.5      7.725     10.387
REMARK  Name = C:\Users\Docking\Desktop\test protocol\1iep_ligandH.pdb
REMARK  8 active torsions:
REMARK  status: ('A' for Active; 'I' for Inactive)
REMARK    1  A    between atoms: _5  and  _11
REMARK    2  A    between atoms: _19  and  _21
REMARK    3  A    between atoms: _22  and  _66
REMARK    4  A    between atoms: _27  and  _30
REMARK    5  A    between atoms: _32  and  _33
REMARK    6  A    between atoms: _38  and  _43
REMARK    7  A    between atoms: _43  and  _46
REMARK    8  A    between atoms: _53  and  _55
REMARK                            x       y       z     vdW  Elec       q    Type
REMARK                         _______ _______ _______ _____ _____    ______ ____
ROOT
ATOM     10  C   UNL     1      14.948  21.362  20.545  0.00  0.00    +0.038 A 
ATOM     11  C   UNL     1      13.584  21.751  20.506  0.00  0.00    +0.047 A 
ATOM     12  C   UNL     1      13.195  23.089  20.092  0.00  0.00    +0.035 A 
ATOM     32  C   UNL     1      14.220  24.007  19.721  0.00  0.00    +0.024 A 
ATOM     33  C   UNL     1      15.611  23.629  19.756  0.00  0.00    +0.007 A 
ATOM     34  C   UNL     1      16.002  22.311  20.166  0.00  0.00    -0.029 A 
ATOM     35  C   UNL     1      17.508  21.962  20.190  0.00  0.00    +0.045 C 
ENDROOT
BRANCH  10   9
ATOM      4  C   UNL     1      15.209  17.911  23.870  0.00  0.00    +0.077 A 
ATOM      5  C   UNL     1      14.696  18.776  24.893  0.00  0.00    +0.048 A 
ATOM      6  C   UNL     1      14.383  20.103  24.524  0.00  0.00    +0.116 A 
ATOM      7  N   UNL     1      14.574  20.524  23.226  0.00  0.00    -0.223 NA
ATOM      8  C   UNL     1      15.073  19.664  22.264  0.00  0.00    +0.220 A 
ATOM      9  N   UNL     1      15.265  20.064  20.950  0.00  0.00    -0.283 N 
ATOM     36  H   UNL     1      15.642  19.402  20.272  0.00  0.00    +0.155 HD
ATOM     37  N   UNL     1      15.380  18.392  22.592  0.00  0.00    -0.214 NA
BRANCH   4   3
ATOM      1  C   UNL     1      15.484  14.023  23.542  0.00  0.00    +0.020 A 
ATOM      2  C   UNL     1      15.093  15.388  23.273  0.00  0.00    +0.013 A 
ATOM      3  C   UNL     1      15.583  16.480  24.104  0.00  0.00    +0.019 A 
ATOM     38  C   UNL     1      16.476  16.156  25.207  0.00  0.00    +0.120 A 
ATOM     39  N   UNL     1      16.834  14.832  25.442  0.00  0.00    -0.263 NA
ATOM     40  C   UNL     1      16.368  13.772  24.650  0.00  0.00    +0.111 A 
ENDBRANCH   4   3
ENDBRANCH  10   9
BRANCH  12  13
ATOM     13  N   UNL     1      11.827  23.543  20.041  0.00  0.00    -0.281 N 
ATOM     14  C   UNL     1      11.335  24.801  20.350  0.00  0.00    +0.248 C 
ATOM     30  O   UNL     1      11.972  25.670  20.925  0.00  0.00    -0.270 OA
ATOM     31  H   UNL     1      11.138  22.854  19.741  0.00  0.00    +0.155 HD
BRANCH  14  15
ATOM     15  C   UNL     1       9.926  25.136  19.979  0.00  0.00    +0.037 A 
ATOM     16  C   UNL     1       9.494  26.526  19.816  0.00  0.00    +0.013 A 
ATOM     17  C   UNL     1       8.125  26.823  19.474  0.00  0.00    +0.005 A 
ATOM     18  C   UNL     1       7.179  25.725  19.292  0.00  0.00    -0.033 A 
ATOM     28  C   UNL     1       7.636  24.355  19.455  0.00  0.00    +0.005 A 
ATOM     29  C   UNL     1       8.976  24.061  19.791  0.00  0.00    +0.013 A 
BRANCH  18  19
ATOM     19  C   UNL     1       5.694  25.949  18.948  0.00  0.00    +0.119 C 
BRANCH  19  20
ATOM     20  N   UNL     1       4.681  25.310  19.840  0.00  0.00    -0.302 NA
ATOM     21  C   UNL     1       3.263  25.429  19.277  0.00  0.00    +0.066 C 
ATOM     22  C   UNL     1       2.219  24.736  20.211  0.00  0.00    -0.064 C 
ATOM     23  N   UNL     1       2.300  25.353  21.608  0.00  0.00    +0.379 N 
ATOM     24  C   UNL     1       1.280  24.744  22.474  0.00  0.00    -0.096 C 
ATOM     25  H   UNL     1       2.059  26.438  21.513  0.00  0.00    -0.082 HD
ATOM     26  C   UNL     1       3.708  25.242  22.175  0.00  0.00    -0.064 C 
ATOM     27  C   UNL     1       4.741  25.908  21.224  0.00  0.00    +0.066 C 
ENDBRANCH  19  20
ENDBRANCH  18  19
ENDBRANCH  14  15
ENDBRANCH  12  13
TORSDOF 6
ENDMDL
MODEL 5
REMARK VINA RESULT:      -6.5      5.403     14.784
REMARK  Name = C:\Users\Docking\Desktop\test protocol\1iep_ligandH.pdb
REMARK  8 active torsions:
REMARK  status: ('A' for Active; 'I' for Inactive)
REMARK    1  A    between atoms: _5  and  _11
REMARK    2  A    between atoms: _19  and  _21
REMARK    3  A    between atoms: _22  and  _66
REMARK    4  A    between atoms: _27  and  _30
REMARK    5  A    between atoms: _32  and  _33
REMARK    6  A    between atoms: _38  and  _43
REMARK    7  A    between atoms: _43  and  _46
REMARK    8  A    between atoms: _53  and  _55
REMARK                            x       y       z     vdW  Elec       q    Type
REMARK                         _______ _______ _______ _____ _____    ______ ____
ROOT
ATOM     10  C   UNL     1       3.834   7.762  25.356  0.00  0.00    +0.038 A 
ATOM     11  C   UNL     1       4.591   8.724  24.640  0.00  0.00    +0.047 A 
ATOM     12  C   UNL     1       5.248   8.384  23.387  0.00  0.00    +0.035 A 
ATOM     32  C   UNL     1       5.109   7.055  22.891  0.00  0.00    +0.024 A 
ATOM     33  C   UNL     1       4.344   6.064  23.607  0.00  0.00    +0.007 A 
ATOM     34  C   UNL     1       3.697   6.393  24.844  0.00  0.00    -0.029 A 
ATOM     35  C   UNL     1       2.894   5.289  25.572  0.00  0.00    +0.045 C 
ENDROOT
BRANCH  10   9
ATOM      4  C   UNL     1       0.028   9.214  27.895  0.00  0.00    +0.077 A 
ATOM      5  C   UNL     1      -0.812   9.241  26.732  0.00  0.00    +0.048 A 
ATOM      6  C   UNL     1      -0.224   8.882  25.498  0.00  0.00    +0.116 A 
ATOM      7  N   UNL     1       1.106   8.523  25.444  0.00  0.00    -0.223 NA
ATOM      8  C   UNL     1       1.888   8.508  26.584  0.00  0.00    +0.220 A 
ATOM      9  N   UNL     1       3.225   8.143  26.554  0.00  0.00    -0.283 N 
ATOM     36  H   UNL     1       3.770   8.152  27.416  0.00  0.00    +0.155 HD
ATOM     37  N   UNL     1       1.350   8.849  27.774  0.00  0.00    -0.214 NA
BRANCH   4   3
ATOM      1  C   UNL     1      -0.209  10.745  31.486  0.00  0.00    +0.020 A 
ATOM      2  C   UNL     1       0.296  10.438  30.168  0.00  0.00    +0.013 A 
ATOM      3  C   UNL     1      -0.449   9.564  29.270  0.00  0.00    +0.019 A 
ATOM     38  C   UNL     1      -1.711   9.013  29.741  0.00  0.00    +0.120 A 
ATOM     39  N   UNL     1      -2.171   9.325  31.016  0.00  0.00    -0.263 NA
ATOM     40  C   UNL     1      -1.462  10.164  31.889  0.00  0.00    +0.111 A 
ENDBRANCH   4   3
ENDBRANCH  10   9
BRANCH  12  13
ATOM     13  N   UNL     1       6.036   9.316  22.621  0.00  0.00    -0.281 N 
ATOM     14  C   UNL     1       5.792  10.662  22.404  0.00  0.00    +0.248 C 
ATOM     30  O   UNL     1       4.738  11.223  22.663  0.00  0.00    -0.270 OA
ATOM     31  H   UNL     1       6.877   8.937  22.184  0.00  0.00    +0.155 HD
BRANCH  14  15
ATOM     15  C   UNL     1       6.869  11.504  21.800  0.00  0.00    +0.037 A 
ATOM     16  C   UNL     1       7.406  11.210  20.469  0.00  0.00    +0.013 A 
ATOM     17  C   UNL     1       8.457  12.028  19.916  0.00  0.00    +0.005 A 
ATOM     18  C   UNL     1       8.977  13.149  20.696  0.00  0.00    -0.033 A 
ATOM     28  C   UNL     1       8.423  13.421  22.012  0.00  0.00    +0.005 A 
ATOM     29  C   UNL     1       7.393  12.621  22.557  0.00  0.00    +0.013 A 
BRANCH  18  19
ATOM     19  C   UNL     1      10.112  14.061  20.194  0.00  0.00    +0.119 C 
BRANCH  19  20
ATOM     20  N   UNL     1      10.310  14.157  18.717  0.00  0.00    -0.302 NA
ATOM     21  C   UNL     1      11.656  13.573  18.279  0.00  0.00    +0.066 C 
ATOM     22  C   UNL     1      11.837  13.661  16.728  0.00  0.00    -0.064 C 
ATOM     23  N   UNL     1      11.709  15.119  16.285  0.00  0.00    +0.379 N 
ATOM     24  C   UNL     1      11.936  15.213  14.835  0.00  0.00    -0.096 C 
ATOM     25  H   UNL     1      12.515  15.698  16.792  0.00  0.00    -0.082 HD
ATOM     26  C   UNL     1      10.375  15.708  16.719  0.00  0.00    -0.064 C 
ATOM     27  C   UNL     1      10.192  15.589  18.258  0.00  0.00    +0.066 C 
ENDBRANCH  19  20
ENDBRANCH  18  19
ENDBRANCH  14  15
ENDBRANCH  12  13
TORSDOF 6
ENDMDL
