MODEL 1
REMARK VINA RESULT:      -7.6      0.000      0.000
REMARK  Name = C:\Users\Docking\Desktop\test protocol\1iep_ligandH.pdb
REMARK  8 active torsions:
REMARK  status: ('A' for Active; 'I' for Inactive)
REMARK    1  A    between atoms: _5  and  _11
REMARK    2  A    between atoms: _19  and  _21
REMARK    3  A    between atoms: _22  and  _66
REMARK    4  A    between atoms: _27  and  _30
REMARK    5  A    between atoms: _32  and  _33
REMARK    6  A    between atoms: _38  and  _43
REMARK    7  A    between atoms: _43  and  _46
REMARK    8  A    between atoms: _53  and  _55
REMARK                            x       y       z     vdW  Elec       q    Type
REMARK                         _______ _______ _______ _____ _____    ______ ____
ROOT
ATOM     10  C   UNL     1      40.868  28.175  43.488  0.00  0.00    +0.038 A 
ATOM     11  C   UNL     1      41.016  27.214  42.455  0.00  0.00    +0.047 A 
ATOM     12  C   UNL     1      41.636  25.924  42.711  0.00  0.00    +0.035 A 
ATOM     32  C   UNL     1      42.092  25.643  44.032  0.00  0.00    +0.024 A 
ATOM     33  C   UNL     1      41.951  26.609  45.093  0.00  0.00    +0.007 A 
ATOM     34  C   UNL     1      41.342  27.884  44.846  0.00  0.00    -0.029 A 
ATOM     35  C   UNL     1      41.222  28.883  46.021  0.00  0.00    +0.045 C 
ENDROOT
BRANCH  10   9
ATOM      4  C   UNL     1      37.112  31.163  43.516  0.00  0.00    +0.077 A 
ATOM      5  C   UNL     1      36.272  30.196  44.162  0.00  0.00    +0.048 A 
ATOM      6  C   UNL     1      36.843  28.939  44.464  0.00  0.00    +0.116 A 
ATOM      7  N   UNL     1      38.157  28.680  44.139  0.00  0.00    -0.223 NA
ATOM      8  C   UNL     1      38.939  29.634  43.515  0.00  0.00    +0.220 A 
ATOM      9  N   UNL     1      40.265  29.398  43.186  0.00  0.00    -0.283 N 
ATOM     36  H   UNL     1      40.806  30.125  42.719  0.00  0.00    +0.155 HD
ATOM     37  N   UNL     1      38.416  30.842  43.215  0.00  0.00    -0.214 NA
BRANCH   4   3
ATOM      1  C   UNL     1      34.863  34.274  42.764  0.00  0.00    +0.020 A 
ATOM      2  C   UNL     1      35.252  32.935  43.140  0.00  0.00    +0.013 A 
ATOM      3  C   UNL     1      36.654  32.537  43.136  0.00  0.00    +0.019 A 
ATOM     38  C   UNL     1      37.646  33.527  42.745  0.00  0.00    +0.120 A 
ATOM     39  N   UNL     1      37.242  34.810  42.387  0.00  0.00    -0.263 NA
ATOM     40  C   UNL     1      35.896  35.203  42.385  0.00  0.00    +0.111 A 
ENDBRANCH   4   3
ENDBRANCH  10   9
BRANCH  12  13
ATOM     13  N   UNL     1      41.821  24.912  41.700  0.00  0.00    -0.281 N 
ATOM     14  C   UNL     1      42.804  24.851  40.726  0.00  0.00    +0.248 C 
ATOM     30  O   UNL     1      43.551  25.775  40.439  0.00  0.00    -0.270 OA
ATOM     31  H   UNL     1      41.145  24.148  41.703  0.00  0.00    +0.155 HD
BRANCH  14  15
ATOM     15  C   UNL     1      42.971  23.587  39.946  0.00  0.00    +0.037 A 
ATOM     16  C   UNL     1      43.249  22.313  40.615  0.00  0.00    +0.013 A 
ATOM     17  C   UNL     1      43.422  21.111  39.839  0.00  0.00    +0.005 A 
ATOM     18  C   UNL     1      43.317  21.177  38.383  0.00  0.00    -0.033 A 
ATOM     28  C   UNL     1      43.035  22.453  37.746  0.00  0.00    +0.005 A 
ATOM     29  C   UNL     1      42.865  23.633  38.504  0.00  0.00    +0.013 A 
BRANCH  18  19
ATOM     19  C   UNL     1      43.509  19.949  37.474  0.00  0.00    +0.119 C 
BRANCH  19  20
ATOM     20  N   UNL     1      42.457  19.689  36.446  0.00  0.00    -0.302 NA
ATOM     21  C   UNL     1      41.196  19.072  37.057  0.00  0.00    +0.066 C 
ATOM     22  C   UNL     1      40.099  18.827  35.971  0.00  0.00    -0.064 C 
ATOM     23  N   UNL     1      40.664  17.926  34.872  0.00  0.00    +0.379 N 
ATOM     24  C   UNL     1      39.617  17.646  33.879  0.00  0.00    -0.096 C 
ATOM     25  H   UNL     1      40.951  16.957  35.344  0.00  0.00    -0.082 HD
ATOM     26  C   UNL     1      41.920  18.531  34.261  0.00  0.00    -0.064 C 
ATOM     27  C   UNL     1      42.994  18.797  35.353  0.00  0.00    +0.066 C 
ENDBRANCH  19  20
ENDBRANCH  18  19
ENDBRANCH  14  15
ENDBRANCH  12  13
TORSDOF 6
ENDMDL
MODEL 2
REMARK VINA RESULT:      -7.6      1.831      2.618
REMARK  Name = C:\Users\Docking\Desktop\test protocol\1iep_ligandH.pdb
REMARK  8 active torsions:
REMARK  status: ('A' for Active; 'I' for Inactive)
REMARK    1  A    between atoms: _5  and  _11
REMARK    2  A    between atoms: _19  and  _21
REMARK    3  A    between atoms: _22  and  _66
REMARK    4  A    between atoms: _27  and  _30
REMARK    5  A    between atoms: _32  and  _33
REMARK    6  A    between atoms: _38  and  _43
REMARK    7  A    between atoms: _43  and  _46
REMARK    8  A    between atoms: _53  and  _55
REMARK                            x       y       z     vdW  Elec       q    Type
REMARK                         _______ _______ _______ _____ _____    ______ ____
ROOT
ATOM     10  C   UNL     1      40.793  28.234  43.631  0.00  0.00    +0.038 A 
ATOM     11  C   UNL     1      40.968  27.264  42.611  0.00  0.00    +0.047 A 
ATOM     12  C   UNL     1      41.564  25.968  42.899  0.00  0.00    +0.035 A 
ATOM     32  C   UNL     1      41.967  25.693  44.238  0.00  0.00    +0.024 A 
ATOM     33  C   UNL     1      41.797  26.667  45.287  0.00  0.00    +0.007 A 
ATOM     34  C   UNL     1      41.212  27.948  45.008  0.00  0.00    -0.029 A 
ATOM     35  C   UNL     1      41.060  28.956  46.171  0.00  0.00    +0.045 C 
ENDROOT
BRANCH  10   9
ATOM      4  C   UNL     1      37.068  31.257  43.480  0.00  0.00    +0.077 A 
ATOM      5  C   UNL     1      36.190  30.300  44.091  0.00  0.00    +0.048 A 
ATOM      6  C   UNL     1      36.735  29.039  44.422  0.00  0.00    +0.116 A 
ATOM      7  N   UNL     1      38.060  28.766  44.158  0.00  0.00    -0.223 NA
ATOM      8  C   UNL     1      38.878  29.711  43.566  0.00  0.00    +0.220 A 
ATOM      9  N   UNL     1      40.215  29.461  43.299  0.00  0.00    -0.283 N 
ATOM     36  H   UNL     1      40.784  30.182  42.855  0.00  0.00    +0.155 HD
ATOM     37  N   UNL     1      38.382  30.922  43.239  0.00  0.00    -0.214 NA
BRANCH   4   3
ATOM      1  C   UNL     1      34.912  34.452  42.812  0.00  0.00    +0.020 A 
ATOM      2  C   UNL     1      35.272  33.113  43.218  0.00  0.00    +0.013 A 
ATOM      3  C   UNL     1      36.641  32.633  43.075  0.00  0.00    +0.019 A 
ATOM     38  C   UNL     1      37.630  33.542  42.514  0.00  0.00    +0.120 A 
ATOM     39  N   UNL     1      37.254  34.825  42.131  0.00  0.00    -0.263 NA
ATOM     40  C   UNL     1      35.939  35.297  42.262  0.00  0.00    +0.111 A 
ENDBRANCH   4   3
ENDBRANCH  10   9
BRANCH  12  13
ATOM     13  N   UNL     1      41.775  24.947  41.903  0.00  0.00    -0.281 N 
ATOM     14  C   UNL     1      42.641  24.978  40.822  0.00  0.00    +0.248 C 
ATOM     30  O   UNL     1      43.215  25.981  40.425  0.00  0.00    -0.270 OA
ATOM     31  H   UNL     1      41.217  24.099  42.007  0.00  0.00    +0.155 HD
BRANCH  14  15
ATOM     15  C   UNL     1      42.896  23.714  40.066  0.00  0.00    +0.037 A 
ATOM     16  C   UNL     1      43.220  22.465  40.759  0.00  0.00    +0.013 A 
ATOM     17  C   UNL     1      43.478  21.265  40.004  0.00  0.00    +0.005 A 
ATOM     18  C   UNL     1      43.412  21.308  38.545  0.00  0.00    -0.033 A 
ATOM     28  C   UNL     1      43.083  22.559  37.883  0.00  0.00    +0.005 A 
ATOM     29  C   UNL     1      42.831  23.738  38.620  0.00  0.00    +0.013 A 
BRANCH  18  19
ATOM     19  C   UNL     1      43.693  20.081  37.659  0.00  0.00    +0.119 C 
BRANCH  19  20
ATOM     20  N   UNL     1      44.658  19.067  38.180  0.00  0.00    -0.302 NA
ATOM     21  C   UNL     1      45.934  19.002  37.336  0.00  0.00    +0.066 C 
ATOM     22  C   UNL     1      46.942  17.953  37.909  0.00  0.00    -0.064 C 
ATOM     23  N   UNL     1      46.266  16.583  37.974  0.00  0.00    +0.379 N 
ATOM     24  C   UNL     1      47.229  15.583  38.457  0.00  0.00    -0.096 C 
ATOM     25  H   UNL     1      45.976  16.299  36.935  0.00  0.00    -0.082 HD
ATOM     26  C   UNL     1      44.994  16.639  38.809  0.00  0.00    -0.064 C 
ATOM     27  C   UNL     1      44.012  17.705  38.249  0.00  0.00    +0.066 C 
ENDBRANCH  19  20
ENDBRANCH  18  19
ENDBRANCH  14  15
ENDBRANCH  12  13
TORSDOF 6
ENDMDL
MODEL 3
REMARK VINA RESULT:      -7.5      1.924      2.532
REMARK  Name = C:\Users\Docking\Desktop\test protocol\1iep_ligandH.pdb
REMARK  8 active torsions:
REMARK  status: ('A' for Active; 'I' for Inactive)
REMARK    1  A    between atoms: _5  and  _11
REMARK    2  A    between atoms: _19  and  _21
REMARK    3  A    between atoms: _22  and  _66
REMARK    4  A    between atoms: _27  and  _30
REMARK    5  A    between atoms: _32  and  _33
REMARK    6  A    between atoms: _38  and  _43
REMARK    7  A    between atoms: _43  and  _46
REMARK    8  A    between atoms: _53  and  _55
REMARK                            x       y       z     vdW  Elec       q    Type
REMARK                         _______ _______ _______ _____ _____    ______ ____
ROOT
ATOM     10  C   UNL     1      42.481  28.903  41.080  0.00  0.00    +0.038 A 
ATOM     11  C   UNL     1      42.221  27.634  40.502  0.00  0.00    +0.047 A 
ATOM     12  C   UNL     1      43.279  26.648  40.344  0.00  0.00    +0.035 A 
ATOM     32  C   UNL     1      44.590  26.987  40.788  0.00  0.00    +0.024 A 
ATOM     33  C   UNL     1      44.873  28.272  41.377  0.00  0.00    +0.007 A 
ATOM     34  C   UNL     1      43.834  29.250  41.533  0.00  0.00    -0.029 A 
ATOM     35  C   UNL     1      44.195  30.614  42.165  0.00  0.00    +0.045 C 
ENDROOT
BRANCH  10   9
ATOM      4  C   UNL     1      38.579  30.571  43.322  0.00  0.00    +0.077 A 
ATOM      5  C   UNL     1      38.627  29.528  44.307  0.00  0.00    +0.048 A 
ATOM      6  C   UNL     1      39.667  28.579  44.197  0.00  0.00    +0.116 A 
ATOM      7  N   UNL     1      40.586  28.674  43.174  0.00  0.00    -0.223 NA
ATOM      8  C   UNL     1      40.510  29.691  42.240  0.00  0.00    +0.220 A 
ATOM      9  N   UNL     1      41.428  29.811  41.208  0.00  0.00    -0.283 N 
ATOM     36  H   UNL     1      41.334  30.571  40.535  0.00  0.00    +0.155 HD
ATOM     37  N   UNL     1      39.525  30.609  42.323  0.00  0.00    -0.214 NA
BRANCH   4   3
ATOM      1  C   UNL     1      35.224  32.517  42.817  0.00  0.00    +0.020 A 
ATOM      2  C   UNL     1      36.188  31.441  42.809  0.00  0.00    +0.013 A 
ATOM      3  C   UNL     1      37.542  31.650  43.307  0.00  0.00    +0.019 A 
ATOM     38  C   UNL     1      37.891  32.970  43.809  0.00  0.00    +0.120 A 
ATOM     39  N   UNL     1      36.942  33.988  43.802  0.00  0.00    -0.263 NA
ATOM     40  C   UNL     1      35.636  33.799  43.325  0.00  0.00    +0.111 A 
ENDBRANCH   4   3
ENDBRANCH  10   9
BRANCH  12  13
ATOM     13  N   UNL     1      43.077  25.347  39.757  0.00  0.00    -0.281 N 
ATOM     14  C   UNL     1      43.111  24.113  40.387  0.00  0.00    +0.248 C 
ATOM     30  O   UNL     1      43.536  23.927  41.517  0.00  0.00    -0.270 OA
ATOM     31  H   UNL     1      42.884  25.333  38.755  0.00  0.00    +0.155 HD
BRANCH  14  15
ATOM     15  C   UNL     1      42.617  22.912  39.649  0.00  0.00    +0.037 A 
ATOM     16  C   UNL     1      42.042  21.767  40.360  0.00  0.00    +0.013 A 
ATOM     17  C   UNL     1      41.588  20.613  39.625  0.00  0.00    +0.005 A 
ATOM     18  C   UNL     1      41.706  20.599  38.169  0.00  0.00    -0.033 A 
ATOM     28  C   UNL     1      42.275  21.750  37.488  0.00  0.00    +0.005 A 
ATOM     29  C   UNL     1      42.722  22.883  38.205  0.00  0.00    +0.013 A 
BRANCH  18  19
ATOM     19  C   UNL     1      41.267  19.402  37.305  0.00  0.00    +0.119 C 
BRANCH  19  20
ATOM     20  N   UNL     1      41.947  19.222  35.988  0.00  0.00    -0.302 NA
ATOM     21  C   UNL     1      41.105  18.393  35.014  0.00  0.00    +0.066 C 
ATOM     22  C   UNL     1      41.823  18.234  33.634  0.00  0.00    -0.064 C 
ATOM     23  N   UNL     1      43.195  17.592  33.846  0.00  0.00    +0.379 N 
ATOM     24  C   UNL     1      43.847  17.388  32.545  0.00  0.00    -0.096 C 
ATOM     25  H   UNL     1      43.031  16.589  34.304  0.00  0.00    -0.082 HD
ATOM     26  C   UNL     1      44.037  18.409  34.815  0.00  0.00    -0.064 C 
ATOM     27  C   UNL     1      43.303  18.586  36.174  0.00  0.00    +0.066 C 
ENDBRANCH  19  20
ENDBRANCH  18  19
ENDBRANCH  14  15
ENDBRANCH  12  13
TORSDOF 6
ENDMDL
MODEL 4
REMARK VINA RESULT:      -7.5      2.103      2.631
REMARK  Name = C:\Users\Docking\Desktop\test protocol\1iep_ligandH.pdb
REMARK  8 active torsions:
REMARK  status: ('A' for Active; 'I' for Inactive)
REMARK    1  A    between atoms: _5  and  _11
REMARK    2  A    between atoms: _19  and  _21
REMARK    3  A    between atoms: _22  and  _66
REMARK    4  A    between atoms: _27  and  _30
REMARK    5  A    between atoms: _32  and  _33
REMARK    6  A    between atoms: _38  and  _43
REMARK    7  A    between atoms: _43  and  _46
REMARK    8  A    between atoms: _53  and  _55
REMARK                            x       y       z     vdW  Elec       q    Type
REMARK                         _______ _______ _______ _____ _____    ______ ____
ROOT
ATOM     10  C   UNL     1      42.514  29.246  41.194  0.00  0.00    +0.038 A 
ATOM     11  C   UNL     1      42.334  27.970  40.600  0.00  0.00    +0.047 A 
ATOM     12  C   UNL     1      43.440  27.033  40.481  0.00  0.00    +0.035 A 
ATOM     32  C   UNL     1      44.716  27.426  40.980  0.00  0.00    +0.024 A 
ATOM     33  C   UNL     1      44.917  28.719  41.586  0.00  0.00    +0.007 A 
ATOM     34  C   UNL     1      43.830  29.649  41.704  0.00  0.00    -0.029 A 
ATOM     35  C   UNL     1      44.105  31.024  42.357  0.00  0.00    +0.045 C 
ENDROOT
BRANCH  10   9
ATOM      4  C   UNL     1      38.609  30.909  43.435  0.00  0.00    +0.077 A 
ATOM      5  C   UNL     1      38.750  29.965  44.507  0.00  0.00    +0.048 A 
ATOM      6  C   UNL     1      39.836  29.065  44.440  0.00  0.00    +0.116 A 
ATOM      7  N   UNL     1      40.711  29.113  43.376  0.00  0.00    -0.223 NA
ATOM      8  C   UNL     1      40.546  30.034  42.358  0.00  0.00    +0.220 A 
ATOM      9  N   UNL     1      41.418  30.106  41.283  0.00  0.00    -0.283 N 
ATOM     36  H   UNL     1      41.257  30.795  40.548  0.00  0.00    +0.155 HD
ATOM     37  N   UNL     1      39.515  30.904  42.398  0.00  0.00    -0.214 NA
BRANCH   4   3
ATOM      1  C   UNL     1      35.172  32.655  42.772  0.00  0.00    +0.020 A 
ATOM      2  C   UNL     1      36.195  31.636  42.817  0.00  0.00    +0.013 A 
ATOM      3  C   UNL     1      37.514  31.927  43.365  0.00  0.00    +0.019 A 
ATOM     38  C   UNL     1      37.767  33.270  43.865  0.00  0.00    +0.120 A 
ATOM     39  N   UNL     1      36.763  34.232  43.808  0.00  0.00    -0.263 NA
ATOM     40  C   UNL     1      35.490  33.963  43.281  0.00  0.00    +0.111 A 
ENDBRANCH   4   3
ENDBRANCH  10   9
BRANCH  12  13
ATOM     13  N   UNL     1      43.319  25.728  39.880  0.00  0.00    -0.281 N 
ATOM     14  C   UNL     1      43.123  24.513  40.516  0.00  0.00    +0.248 C 
ATOM     30  O   UNL     1      43.236  24.336  41.720  0.00  0.00    -0.270 OA
ATOM     31  H   UNL     1      43.386  25.696  38.863  0.00  0.00    +0.155 HD
BRANCH  14  15
ATOM     15  C   UNL     1      42.764  23.317  39.693  0.00  0.00    +0.037 A 
ATOM     16  C   UNL     1      42.149  22.134  40.301  0.00  0.00    +0.013 A 
ATOM     17  C   UNL     1      41.828  20.988  39.487  0.00  0.00    +0.005 A 
ATOM     18  C   UNL     1      42.120  21.021  38.056  0.00  0.00    -0.033 A 
ATOM     28  C   UNL     1      42.725  22.210  37.479  0.00  0.00    +0.005 A 
ATOM     29  C   UNL     1      43.042  23.334  38.273  0.00  0.00    +0.013 A 
BRANCH  18  19
ATOM     19  C   UNL     1      41.831  19.835  37.116  0.00  0.00    +0.119 C 
BRANCH  19  20
ATOM     20  N   UNL     1      40.399  19.515  36.840  0.00  0.00    -0.302 NA
ATOM     21  C   UNL     1      40.240  18.584  35.635  0.00  0.00    +0.066 C 
ATOM     22  C   UNL     1      38.737  18.241  35.374  0.00  0.00    -0.064 C 
ATOM     23  N   UNL     1      37.951  19.536  35.164  0.00  0.00    +0.379 N 
ATOM     24  C   UNL     1      36.549  19.215  34.861  0.00  0.00    -0.096 C 
ATOM     25  H   UNL     1      38.380  20.052  34.274  0.00  0.00    -0.082 HD
ATOM     26  C   UNL     1      38.105  20.470  36.357  0.00  0.00    -0.064 C 
ATOM     27  C   UNL     1      39.605  20.780  36.625  0.00  0.00    +0.066 C 
ENDBRANCH  19  20
ENDBRANCH  18  19
ENDBRANCH  14  15
ENDBRANCH  12  13
TORSDOF 6
ENDMDL
MODEL 5
REMARK VINA RESULT:      -7.5      2.307      3.133
REMARK  Name = C:\Users\Docking\Desktop\test protocol\1iep_ligandH.pdb
REMARK  8 active torsions:
REMARK  status: ('A' for Active; 'I' for Inactive)
REMARK    1  A    between atoms: _5  and  _11
REMARK    2  A    between atoms: _19  and  _21
REMARK    3  A    between atoms: _22  and  _66
REMARK    4  A    between atoms: _27  and  _30
REMARK    5  A    between atoms: _32  and  _33
REMARK    6  A    between atoms: _38  and  _43
REMARK    7  A    between atoms: _43  and  _46
REMARK    8  A    between atoms: _53  and  _55
REMARK                            x       y       z     vdW  Elec       q    Type
REMARK                         _______ _______ _______ _____ _____    ______ ____
ROOT
ATOM     10  C   UNL     1      42.582  29.626  41.294  0.00  0.00    +0.038 A 
ATOM     11  C   UNL     1      42.447  28.323  40.751  0.00  0.00    +0.047 A 
ATOM     12  C   UNL     1      43.588  27.426  40.656  0.00  0.00    +0.035 A 
ATOM     32  C   UNL     1      44.852  27.887  41.128  0.00  0.00    +0.024 A 
ATOM     33  C   UNL     1      45.007  29.209  41.682  0.00  0.00    +0.007 A 
ATOM     34  C   UNL     1      43.885  30.100  41.776  0.00  0.00    -0.029 A 
ATOM     35  C   UNL     1      44.111  31.508  42.373  0.00  0.00    +0.045 C 
ENDROOT
BRANCH  10   9
ATOM      4  C   UNL     1      38.635  31.222  43.510  0.00  0.00    +0.077 A 
ATOM      5  C   UNL     1      38.822  30.328  44.616  0.00  0.00    +0.048 A 
ATOM      6  C   UNL     1      39.943  29.469  44.573  0.00  0.00    +0.116 A 
ATOM      7  N   UNL     1      40.805  29.509  43.499  0.00  0.00    -0.223 NA
ATOM      8  C   UNL     1      40.594  30.382  42.447  0.00  0.00    +0.220 A 
ATOM      9  N   UNL     1      41.453  30.446  41.361  0.00  0.00    -0.283 N 
ATOM     36  H   UNL     1      41.259  31.098  40.602  0.00  0.00    +0.155 HD
ATOM     37  N   UNL     1      39.530  31.212  42.464  0.00  0.00    -0.214 NA
BRANCH   4   3
ATOM      1  C   UNL     1      35.125  32.804  42.818  0.00  0.00    +0.020 A 
ATOM      2  C   UNL     1      36.187  31.828  42.891  0.00  0.00    +0.013 A 
ATOM      3  C   UNL     1      37.499  32.193  43.411  0.00  0.00    +0.019 A 
ATOM     38  C   UNL     1      37.704  33.564  43.853  0.00  0.00    +0.120 A 
ATOM     39  N   UNL     1      36.662  34.483  43.769  0.00  0.00    -0.263 NA
ATOM     40  C   UNL     1      35.396  34.144  43.269  0.00  0.00    +0.111 A 
ENDBRANCH   4   3
ENDBRANCH  10   9
BRANCH  12  13
ATOM     13  N   UNL     1      43.514  26.095  40.106  0.00  0.00    -0.281 N 
ATOM     14  C   UNL     1      43.146  24.926  40.752  0.00  0.00    +0.248 C 
ATOM     30  O   UNL     1      43.029  24.813  41.963  0.00  0.00    -0.270 OA
ATOM     31  H   UNL     1      43.763  26.003  39.121  0.00  0.00    +0.155 HD
BRANCH  14  15
ATOM     15  C   UNL     1      42.883  23.702  39.936  0.00  0.00    +0.037 A 
ATOM     16  C   UNL     1      42.651  22.401  40.569  0.00  0.00    +0.013 A 
ATOM     17  C   UNL     1      42.417  21.233  39.757  0.00  0.00    +0.005 A 
ATOM     18  C   UNL     1      42.413  21.361  38.302  0.00  0.00    -0.033 A 
ATOM     28  C   UNL     1      42.641  22.664  37.700  0.00  0.00    +0.005 A 
ATOM     29  C   UNL     1      42.872  23.811  38.492  0.00  0.00    +0.013 A 
BRANCH  18  19
ATOM     19  C   UNL     1      42.193  20.164  37.358  0.00  0.00    +0.119 C 
BRANCH  19  20
ATOM     20  N   UNL     1      43.316  19.191  37.214  0.00  0.00    -0.302 NA
ATOM     21  C   UNL     1      43.305  18.133  38.321  0.00  0.00    +0.066 C 
ATOM     22  C   UNL     1      44.474  17.110  38.143  0.00  0.00    -0.064 C 
ATOM     23  N   UNL     1      45.806  17.860  38.124  0.00  0.00    +0.379 N 
ATOM     24  C   UNL     1      46.911  16.896  38.015  0.00  0.00    -0.096 C 
ATOM     25  H   UNL     1      45.912  18.386  39.102  0.00  0.00    -0.082 HD
ATOM     26  C   UNL     1      45.825  18.916  37.028  0.00  0.00    -0.064 C 
ATOM     27  C   UNL     1      44.643  19.910  37.198  0.00  0.00    +0.066 C 
ENDBRANCH  19  20
ENDBRANCH  18  19
ENDBRANCH  14  15
ENDBRANCH  12  13
TORSDOF 6
ENDMDL
