MODEL 1
REMARK VINA RESULT:      -7.0      0.000      0.000
REMARK  Name = C:\Users\Docking\Desktop\test protocol\1iep_ligandH.pdb
REMARK  8 active torsions:
REMARK  status: ('A' for Active; 'I' for Inactive)
REMARK    1  A    between atoms: _5  and  _11
REMARK    2  A    between atoms: _19  and  _21
REMARK    3  A    between atoms: _22  and  _66
REMARK    4  A    between atoms: _27  and  _30
REMARK    5  A    between atoms: _32  and  _33
REMARK    6  A    between atoms: _38  and  _43
REMARK    7  A    between atoms: _43  and  _46
REMARK    8  A    between atoms: _53  and  _55
REMARK                            x       y       z     vdW  Elec       q    Type
REMARK                         _______ _______ _______ _____ _____    ______ ____
ROOT
ATOM     10  C   UNL     1       6.169  -7.568   6.823  0.00  0.00    +0.038 A 
ATOM     11  C   UNL     1       7.095  -6.632   6.296  0.00  0.00    +0.047 A 
ATOM     12  C   UNL     1       7.804  -5.704   7.163  0.00  0.00    +0.035 A 
ATOM     32  C   UNL     1       7.547  -5.758   8.564  0.00  0.00    +0.024 A 
ATOM     33  C   UNL     1       6.609  -6.702   9.117  0.00  0.00    +0.007 A 
ATOM     34  C   UNL     1       5.905  -7.619   8.266  0.00  0.00    -0.029 A 
ATOM     35  C   UNL     1       4.905  -8.606   8.914  0.00  0.00    +0.045 C 
ENDROOT
BRANCH  10   9
ATOM      4  C   UNL     1       5.890 -11.682   4.366  0.00  0.00    +0.077 A 
ATOM      5  C   UNL     1       7.164 -12.127   4.852  0.00  0.00    +0.048 A 
ATOM      6  C   UNL     1       7.863 -11.265   5.727  0.00  0.00    +0.116 A 
ATOM      7  N   UNL     1       7.318 -10.050   6.083  0.00  0.00    -0.223 NA
ATOM      8  C   UNL     1       6.088  -9.650   5.594  0.00  0.00    +0.220 A 
ATOM      9  N   UNL     1       5.517  -8.436   5.945  0.00  0.00    -0.283 N 
ATOM     36  H   UNL     1       4.611  -8.174   5.557  0.00  0.00    +0.155 HD
ATOM     37  N   UNL     1       5.402 -10.455   4.756  0.00  0.00    -0.214 NA
BRANCH   4   3
ATOM      1  C   UNL     1       4.673 -13.879   1.367  0.00  0.00    +0.020 A 
ATOM      2  C   UNL     1       5.546 -13.116   2.230  0.00  0.00    +0.013 A 
ATOM      3  C   UNL     1       5.031 -12.481   3.437  0.00  0.00    +0.019 A 
ATOM     38  C   UNL     1       3.617 -12.639   3.744  0.00  0.00    +0.120 A 
ATOM     39  N   UNL     1       2.801 -13.377   2.893  0.00  0.00    -0.263 NA
ATOM     40  C   UNL     1       3.285 -13.991   1.729  0.00  0.00    +0.111 A 
ENDBRANCH   4   3
ENDBRANCH  10   9
BRANCH  12  13
ATOM     13  N   UNL     1       8.748  -4.726   6.683  0.00  0.00    -0.281 N 
ATOM     14  C   UNL     1       8.489  -3.577   5.953  0.00  0.00    +0.248 C 
ATOM     30  O   UNL     1       7.420  -3.326   5.416  0.00  0.00    -0.270 OA
ATOM     31  H   UNL     1       9.728  -4.902   6.909  0.00  0.00    +0.155 HD
BRANCH  14  15
ATOM     15  C   UNL     1       9.579  -2.568   5.784  0.00  0.00    +0.037 A 
ATOM     16  C   UNL     1       9.790  -1.886   4.504  0.00  0.00    +0.013 A 
ATOM     17  C   UNL     1      10.859  -0.929   4.363  0.00  0.00    +0.005 A 
ATOM     18  C   UNL     1      11.724  -0.648   5.506  0.00  0.00    -0.033 A 
ATOM     28  C   UNL     1      11.489  -1.335   6.765  0.00  0.00    +0.005 A 
ATOM     29  C   UNL     1      10.443  -2.274   6.907  0.00  0.00    +0.013 A 
BRANCH  18  19
ATOM     19  C   UNL     1      12.902   0.342   5.440  0.00  0.00    +0.119 C 
BRANCH  19  20
ATOM     20  N   UNL     1      12.705   1.683   6.067  0.00  0.00    -0.302 NA
ATOM     21  C   UNL     1      11.275   2.198   5.883  0.00  0.00    +0.066 C 
ATOM     22  C   UNL     1      11.080   3.591   6.564  0.00  0.00    -0.064 C 
ATOM     23  N   UNL     1      12.091   4.584   5.989  0.00  0.00    +0.379 N 
ATOM     24  C   UNL     1      11.872   5.910   6.585  0.00  0.00    -0.096 C 
ATOM     25  H   UNL     1      11.896   4.669   4.894  0.00  0.00    -0.082 HD
ATOM     26  C   UNL     1      13.516   4.078   6.165  0.00  0.00    -0.064 C 
ATOM     27  C   UNL     1      13.691   2.680   5.510  0.00  0.00    +0.066 C 
ENDBRANCH  19  20
ENDBRANCH  18  19
ENDBRANCH  14  15
ENDBRANCH  12  13
TORSDOF 6
ENDMDL
MODEL 2
REMARK VINA RESULT:      -6.5      5.193     12.666
REMARK  Name = C:\Users\Docking\Desktop\test protocol\1iep_ligandH.pdb
REMARK  8 active torsions:
REMARK  status: ('A' for Active; 'I' for Inactive)
REMARK    1  A    between atoms: _5  and  _11
REMARK    2  A    between atoms: _19  and  _21
REMARK    3  A    between atoms: _22  and  _66
REMARK    4  A    between atoms: _27  and  _30
REMARK    5  A    between atoms: _32  and  _33
REMARK    6  A    between atoms: _38  and  _43
REMARK    7  A    between atoms: _43  and  _46
REMARK    8  A    between atoms: _53  and  _55
REMARK                            x       y       z     vdW  Elec       q    Type
REMARK                         _______ _______ _______ _____ _____    ______ ____
ROOT
ATOM     10  C   UNL     1       7.210  -7.993   6.164  0.00  0.00    +0.038 A 
ATOM     11  C   UNL     1       5.883  -8.092   6.654  0.00  0.00    +0.047 A 
ATOM     12  C   UNL     1       5.365  -9.348   7.174  0.00  0.00    +0.035 A 
ATOM     32  C   UNL     1       6.227 -10.483   7.183  0.00  0.00    +0.024 A 
ATOM     33  C   UNL     1       7.579 -10.400   6.688  0.00  0.00    +0.007 A 
ATOM     34  C   UNL     1       8.095  -9.165   6.171  0.00  0.00    -0.029 A 
ATOM     35  C   UNL     1       9.550  -9.136   5.648  0.00  0.00    +0.045 C 
ENDROOT
BRANCH  10   9
ATOM      4  C   UNL     1       8.682  -3.469   6.801  0.00  0.00    +0.077 A 
ATOM      5  C   UNL     1       8.523  -3.556   8.224  0.00  0.00    +0.048 A 
ATOM      6  C   UNL     1       8.054  -4.779   8.752  0.00  0.00    +0.116 A 
ATOM      7  N   UNL     1       7.768  -5.832   7.909  0.00  0.00    -0.223 NA
ATOM      8  C   UNL     1       7.930  -5.715   6.541  0.00  0.00    +0.220 A 
ATOM      9  N   UNL     1       7.656  -6.763   5.676  0.00  0.00    -0.283 N 
ATOM     36  H   UNL     1       7.782  -6.634   4.672  0.00  0.00    +0.155 HD
ATOM     37  N   UNL     1       8.375  -4.556   6.013  0.00  0.00    -0.214 NA
BRANCH   4   3
ATOM      1  C   UNL     1       9.348  -0.753   4.066  0.00  0.00    +0.020 A 
ATOM      2  C   UNL     1       8.850  -1.951   4.702  0.00  0.00    +0.013 A 
ATOM      3  C   UNL     1       9.171  -2.244   6.093  0.00  0.00    +0.019 A 
ATOM     38  C   UNL     1      10.004  -1.296   6.819  0.00  0.00    +0.120 A 
ATOM     39  N   UNL     1      10.470  -0.152   6.180  0.00  0.00    -0.263 NA
ATOM     40  C   UNL     1      10.169   0.140   4.841  0.00  0.00    +0.111 A 
ENDBRANCH   4   3
ENDBRANCH  10   9
BRANCH  12  13
ATOM     13  N   UNL     1       4.023  -9.511   7.677  0.00  0.00    -0.281 N 
ATOM     14  C   UNL     1       3.542  -9.195   8.936  0.00  0.00    +0.248 C 
ATOM     30  O   UNL     1       4.246  -8.919   9.896  0.00  0.00    -0.270 OA
ATOM     31  H   UNL     1       3.346  -9.908   7.025  0.00  0.00    +0.155 HD
BRANCH  14  15
ATOM     15  C   UNL     1       2.065  -9.198   9.167  0.00  0.00    +0.037 A 
ATOM     16  C   UNL     1       1.198 -10.192   8.528  0.00  0.00    +0.013 A 
ATOM     17  C   UNL     1      -0.225 -10.162   8.753  0.00  0.00    +0.005 A 
ATOM     18  C   UNL     1      -0.791  -9.135   9.625  0.00  0.00    -0.033 A 
ATOM     28  C   UNL     1       0.093  -8.165  10.250  0.00  0.00    +0.005 A 
ATOM     29  C   UNL     1       1.488  -8.190  10.030  0.00  0.00    +0.013 A 
BRANCH  18  19
ATOM     19  C   UNL     1      -2.300  -9.015   9.905  0.00  0.00    +0.119 C 
BRANCH  19  20
ATOM     20  N   UNL     1      -3.068  -8.016   9.103  0.00  0.00    -0.302 NA
ATOM     21  C   UNL     1      -3.063  -6.630   9.755  0.00  0.00    +0.066 C 
ATOM     22  C   UNL     1      -3.851  -5.592   8.891  0.00  0.00    -0.064 C 
ATOM     23  N   UNL     1      -5.283  -6.088   8.684  0.00  0.00    +0.379 N 
ATOM     24  C   UNL     1      -6.043  -5.087   7.922  0.00  0.00    -0.096 C 
ATOM     25  H   UNL     1      -5.757  -6.180   9.689  0.00  0.00    -0.082 HD
ATOM     26  C   UNL     1      -5.297  -7.467   8.039  0.00  0.00    -0.064 C 
ATOM     27  C   UNL     1      -4.486  -8.484   8.890  0.00  0.00    +0.066 C 
ENDBRANCH  19  20
ENDBRANCH  18  19
ENDBRANCH  14  15
ENDBRANCH  12  13
TORSDOF 6
ENDMDL
MODEL 3
REMARK VINA RESULT:      -6.3      4.987     13.438
REMARK  Name = C:\Users\Docking\Desktop\test protocol\1iep_ligandH.pdb
REMARK  8 active torsions:
REMARK  status: ('A' for Active; 'I' for Inactive)
REMARK    1  A    between atoms: _5  and  _11
REMARK    2  A    between atoms: _19  and  _21
REMARK    3  A    between atoms: _22  and  _66
REMARK    4  A    between atoms: _27  and  _30
REMARK    5  A    between atoms: _32  and  _33
REMARK    6  A    between atoms: _38  and  _43
REMARK    7  A    between atoms: _43  and  _46
REMARK    8  A    between atoms: _53  and  _55
REMARK                            x       y       z     vdW  Elec       q    Type
REMARK                         _______ _______ _______ _____ _____    ______ ____
ROOT
ATOM     10  C   UNL     1       7.168  -8.049   6.336  0.00  0.00    +0.038 A 
ATOM     11  C   UNL     1       5.814  -8.182   6.735  0.00  0.00    +0.047 A 
ATOM     12  C   UNL     1       5.315  -9.423   7.307  0.00  0.00    +0.035 A 
ATOM     32  C   UNL     1       6.226 -10.510   7.460  0.00  0.00    +0.024 A 
ATOM     33  C   UNL     1       7.606 -10.393   7.058  0.00  0.00    +0.007 A 
ATOM     34  C   UNL     1       8.102  -9.171   6.492  0.00  0.00    -0.029 A 
ATOM     35  C   UNL     1       9.589  -9.104   6.073  0.00  0.00    +0.045 C 
ENDROOT
BRANCH  10   9
ATOM      4  C   UNL     1       8.636  -3.501   6.774  0.00  0.00    +0.077 A 
ATOM      5  C   UNL     1       8.523  -3.539   8.203  0.00  0.00    +0.048 A 
ATOM      6  C   UNL     1       8.076  -4.747   8.786  0.00  0.00    +0.116 A 
ATOM      7  N   UNL     1       7.769  -5.828   7.989  0.00  0.00    -0.223 NA
ATOM      8  C   UNL     1       7.888  -5.757   6.613  0.00  0.00    +0.220 A 
ATOM      9  N   UNL     1       7.593  -6.834   5.793  0.00  0.00    -0.283 N 
ATOM     36  H   UNL     1       7.686  -6.739   4.782  0.00  0.00    +0.155 HD
ATOM     37  N   UNL     1       8.311  -4.615   6.032  0.00  0.00    -0.214 NA
BRANCH   4   3
ATOM      1  C   UNL     1       9.255  -0.907   3.912  0.00  0.00    +0.020 A 
ATOM      2  C   UNL     1       8.785  -2.085   4.603  0.00  0.00    +0.013 A 
ATOM      3  C   UNL     1       9.098  -2.298   6.010  0.00  0.00    +0.019 A 
ATOM     38  C   UNL     1       9.893  -1.291   6.696  0.00  0.00    +0.120 A 
ATOM     39  N   UNL     1      10.333  -0.166   6.004  0.00  0.00    -0.263 NA
ATOM     40  C   UNL     1      10.040   0.048   4.649  0.00  0.00    +0.111 A 
ENDBRANCH   4   3
ENDBRANCH  10   9
BRANCH  12  13
ATOM     13  N   UNL     1       3.949  -9.619   7.723  0.00  0.00    -0.281 N 
ATOM     14  C   UNL     1       3.346  -9.192   8.894  0.00  0.00    +0.248 C 
ATOM     30  O   UNL     1       3.950  -8.758   9.864  0.00  0.00    -0.270 OA
ATOM     31  H   UNL     1       3.354 -10.136   7.075  0.00  0.00    +0.155 HD
BRANCH  14  15
ATOM     15  C   UNL     1       1.858  -9.271   9.011  0.00  0.00    +0.037 A 
ATOM     16  C   UNL     1       1.112  -8.346   9.868  0.00  0.00    +0.013 A 
ATOM     17  C   UNL     1      -0.321  -8.455   9.976  0.00  0.00    +0.005 A 
ATOM     18  C   UNL     1      -1.019  -9.494   9.222  0.00  0.00    -0.033 A 
ATOM     28  C   UNL     1      -0.255 -10.395   8.375  0.00  0.00    +0.005 A 
ATOM     29  C   UNL     1       1.150 -10.292   8.268  0.00  0.00    +0.013 A 
BRANCH  18  19
ATOM     19  C   UNL     1      -2.544  -9.697   9.293  0.00  0.00    +0.119 C 
BRANCH  19  20
ATOM     20  N   UNL     1      -3.231 -10.158   8.050  0.00  0.00    -0.302 NA
ATOM     21  C   UNL     1      -4.261  -9.141   7.552  0.00  0.00    +0.066 C 
ATOM     22  C   UNL     1      -4.954  -9.629   6.238  0.00  0.00    -0.064 C 
ATOM     23  N   UNL     1      -5.611 -10.989   6.486  0.00  0.00    +0.379 N 
ATOM     24  C   UNL     1      -6.312 -11.424   5.269  0.00  0.00    -0.096 C 
ATOM     25  H   UNL     1      -6.374 -10.854   7.287  0.00  0.00    -0.082 HD
ATOM     26  C   UNL     1      -4.593 -12.005   6.984  0.00  0.00    -0.064 C 
ATOM     27  C   UNL     1      -3.890 -11.497   8.273  0.00  0.00    +0.066 C 
ENDBRANCH  19  20
ENDBRANCH  18  19
ENDBRANCH  14  15
ENDBRANCH  12  13
TORSDOF 6
ENDMDL
MODEL 4
REMARK VINA RESULT:      -6.1      7.752      9.585
REMARK  Name = C:\Users\Docking\Desktop\test protocol\1iep_ligandH.pdb
REMARK  8 active torsions:
REMARK  status: ('A' for Active; 'I' for Inactive)
REMARK    1  A    between atoms: _5  and  _11
REMARK    2  A    between atoms: _19  and  _21
REMARK    3  A    between atoms: _22  and  _66
REMARK    4  A    between atoms: _27  and  _30
REMARK    5  A    between atoms: _32  and  _33
REMARK    6  A    between atoms: _38  and  _43
REMARK    7  A    between atoms: _43  and  _46
REMARK    8  A    between atoms: _53  and  _55
REMARK                            x       y       z     vdW  Elec       q    Type
REMARK                         _______ _______ _______ _____ _____    ______ ____
ROOT
ATOM     10  C   UNL     1      -2.340  -2.816  10.010  0.00  0.00    +0.038 A 
ATOM     11  C   UNL     1      -0.922  -2.858  10.006  0.00  0.00    +0.047 A 
ATOM     12  C   UNL     1      -0.138  -1.881  10.746  0.00  0.00    +0.035 A 
ATOM     32  C   UNL     1      -0.831  -0.876  11.481  0.00  0.00    +0.024 A 
ATOM     33  C   UNL     1      -2.272  -0.817  11.496  0.00  0.00    +0.007 A 
ATOM     34  C   UNL     1      -3.050  -1.777  10.766  0.00  0.00    -0.029 A 
ATOM     35  C   UNL     1      -4.592  -1.662  10.812  0.00  0.00    +0.045 C 
ENDROOT
BRANCH  10   9
ATOM      4  C   UNL     1      -3.640  -7.355   9.150  0.00  0.00    +0.077 A 
ATOM      5  C   UNL     1      -2.830  -7.853  10.224  0.00  0.00    +0.048 A 
ATOM      6  C   UNL     1      -2.088  -6.909  10.969  0.00  0.00    +0.116 A 
ATOM      7  N   UNL     1      -2.160  -5.569  10.655  0.00  0.00    -0.223 NA
ATOM      8  C   UNL     1      -2.950  -5.122   9.612  0.00  0.00    +0.220 A 
ATOM      9  N   UNL     1      -3.043  -3.779   9.283  0.00  0.00    -0.283 N 
ATOM     36  H   UNL     1      -3.631  -3.490   8.502  0.00  0.00    +0.155 HD
ATOM     37  N   UNL     1      -3.666  -6.004   8.884  0.00  0.00    -0.214 NA
BRANCH   4   3
ATOM      1  C   UNL     1      -6.682  -8.886   7.225  0.00  0.00    +0.020 A 
ATOM      2  C   UNL     1      -5.913  -8.014   8.083  0.00  0.00    +0.013 A 
ATOM      3  C   UNL     1      -4.484  -8.228   8.274  0.00  0.00    +0.019 A 
ATOM     38  C   UNL     1      -3.858  -9.341   7.576  0.00  0.00    +0.120 A 
ATOM     39  N   UNL     1      -4.625 -10.165   6.757  0.00  0.00    -0.263 NA
ATOM     40  C   UNL     1      -6.001  -9.970   6.568  0.00  0.00    +0.111 A 
ENDBRANCH   4   3
ENDBRANCH  10   9
BRANCH  12  13
ATOM     13  N   UNL     1       1.303  -1.869  10.772  0.00  0.00    -0.281 N 
ATOM     14  C   UNL     1       2.158  -2.908  11.101  0.00  0.00    +0.248 C 
ATOM     30  O   UNL     1       1.805  -3.951  11.631  0.00  0.00    -0.270 OA
ATOM     31  H   UNL     1       1.748  -0.987  10.518  0.00  0.00    +0.155 HD
BRANCH  14  15
ATOM     15  C   UNL     1       3.617  -2.763  10.811  0.00  0.00    +0.037 A 
ATOM     16  C   UNL     1       4.235  -1.442  10.666  0.00  0.00    +0.013 A 
ATOM     17  C   UNL     1       5.641  -1.331  10.369  0.00  0.00    +0.005 A 
ATOM     18  C   UNL     1       6.440  -2.544  10.218  0.00  0.00    -0.033 A 
ATOM     28  C   UNL     1       5.802  -3.842  10.373  0.00  0.00    +0.005 A 
ATOM     29  C   UNL     1       4.424  -3.955  10.662  0.00  0.00    +0.013 A 
BRANCH  18  19
ATOM     19  C   UNL     1       7.942  -2.520   9.881  0.00  0.00    +0.119 C 
BRANCH  19  20
ATOM     20  N   UNL     1       8.331  -2.028   8.526  0.00  0.00    -0.302 NA
ATOM     21  C   UNL     1       8.381  -3.161   7.496  0.00  0.00    +0.066 C 
ATOM     22  C   UNL     1       8.768  -2.625   6.079  0.00  0.00    -0.064 C 
ATOM     23  N   UNL     1      10.115  -1.906   6.159  0.00  0.00    +0.379 N 
ATOM     24  C   UNL     1      10.509  -1.451   4.817  0.00  0.00    -0.096 C 
ATOM     25  H   UNL     1      10.874  -2.647   6.501  0.00  0.00    -0.082 HD
ATOM     26  C   UNL     1      10.075  -0.780   7.182  0.00  0.00    -0.064 C 
ATOM     27  C   UNL     1       9.662  -1.318   8.580  0.00  0.00    +0.066 C 
ENDBRANCH  19  20
ENDBRANCH  18  19
ENDBRANCH  14  15
ENDBRANCH  12  13
TORSDOF 6
ENDMDL
MODEL 5
REMARK VINA RESULT:      -6.0      5.101      9.769
REMARK  Name = C:\Users\Docking\Desktop\test protocol\1iep_ligandH.pdb
REMARK  8 active torsions:
REMARK  status: ('A' for Active; 'I' for Inactive)
REMARK    1  A    between atoms: _5  and  _11
REMARK    2  A    between atoms: _19  and  _21
REMARK    3  A    between atoms: _22  and  _66
REMARK    4  A    between atoms: _27  and  _30
REMARK    5  A    between atoms: _32  and  _33
REMARK    6  A    between atoms: _38  and  _43
REMARK    7  A    between atoms: _43  and  _46
REMARK    8  A    between atoms: _53  and  _55
REMARK                            x       y       z     vdW  Elec       q    Type
REMARK                         _______ _______ _______ _____ _____    ______ ____
ROOT
ATOM     10  C   UNL     1      11.299   0.250   5.596  0.00  0.00    +0.038 A 
ATOM     11  C   UNL     1      10.359   1.305   5.461  0.00  0.00    +0.047 A 
ATOM     12  C   UNL     1      10.753   2.692   5.649  0.00  0.00    +0.035 A 
ATOM     32  C   UNL     1      12.113   2.971   5.971  0.00  0.00    +0.024 A 
ATOM     33  C   UNL     1      13.081   1.911   6.113  0.00  0.00    +0.007 A 
ATOM     34  C   UNL     1      12.698   0.540   5.931  0.00  0.00    -0.029 A 
ATOM     35  C   UNL     1      13.776  -0.555   6.102  0.00  0.00    +0.045 C 
ENDROOT
BRANCH  10   9
ATOM      4  C   UNL     1       8.885  -3.656   6.991  0.00  0.00    +0.077 A 
ATOM      5  C   UNL     1       8.473  -3.037   8.217  0.00  0.00    +0.048 A 
ATOM      6  C   UNL     1       8.910  -1.714   8.455  0.00  0.00    +0.116 A 
ATOM      7  N   UNL     1       9.699  -1.069   7.527  0.00  0.00    -0.223 NA
ATOM      8  C   UNL     1      10.079  -1.696   6.355  0.00  0.00    +0.220 A 
ATOM      9  N   UNL     1      10.866  -1.064   5.404  0.00  0.00    -0.283 N 
ATOM     36  H   UNL     1      11.131  -1.563   4.556  0.00  0.00    +0.155 HD
ATOM     37  N   UNL     1       9.676  -2.960   6.106  0.00  0.00    -0.214 NA
BRANCH   4   3
ATOM      1  C   UNL     1       9.023  -7.485   6.203  0.00  0.00    +0.020 A 
ATOM      2  C   UNL     1       9.445  -6.160   6.593  0.00  0.00    +0.013 A 
ATOM      3  C   UNL     1       8.501  -5.049   6.595  0.00  0.00    +0.019 A 
ATOM     38  C   UNL     1       7.128  -5.315   6.195  0.00  0.00    +0.120 A 
ATOM     39  N   UNL     1       6.751  -6.602   5.823  0.00  0.00    -0.263 NA
ATOM     40  C   UNL     1       7.651  -7.678   5.815  0.00  0.00    +0.111 A 
ENDBRANCH   4   3
ENDBRANCH  10   9
BRANCH  12  13
ATOM     13  N   UNL     1       9.842   3.804   5.533  0.00  0.00    -0.281 N 
ATOM     14  C   UNL     1       9.493   4.724   6.508  0.00  0.00    +0.248 C 
ATOM     30  O   UNL     1       9.751   4.604   7.696  0.00  0.00    -0.270 OA
ATOM     31  H   UNL     1       9.400   3.927   4.622  0.00  0.00    +0.155 HD
BRANCH  14  15
ATOM     15  C   UNL     1       8.736   5.949   6.107  0.00  0.00    +0.037 A 
ATOM     16  C   UNL     1       8.164   6.851   7.109  0.00  0.00    +0.013 A 
ATOM     17  C   UNL     1       7.423   8.016   6.695  0.00  0.00    +0.005 A 
ATOM     18  C   UNL     1       7.252   8.286   5.270  0.00  0.00    -0.033 A 
ATOM     28  C   UNL     1       7.834   7.377   4.296  0.00  0.00    +0.005 A 
ATOM     29  C   UNL     1       8.560   6.234   4.699  0.00  0.00    +0.013 A 
BRANCH  18  19
ATOM     19  C   UNL     1       6.459   9.494   4.737  0.00  0.00    +0.119 C 
BRANCH  19  20
ATOM     20  N   UNL     1       5.896   9.388   3.357  0.00  0.00    -0.302 NA
ATOM     21  C   UNL     1       6.521  10.409   2.402  0.00  0.00    +0.066 C 
ATOM     22  C   UNL     1       5.937  10.269   0.958  0.00  0.00    -0.064 C 
ATOM     23  N   UNL     1       4.417  10.433   1.008  0.00  0.00    +0.379 N 
ATOM     24  C   UNL     1       3.871  10.360  -0.355  0.00  0.00    -0.096 C 
ATOM     25  H   UNL     1       4.201  11.452   1.405  0.00  0.00    -0.082 HD
ATOM     26  C   UNL     1       3.788   9.424   1.958  0.00  0.00    -0.064 C 
ATOM     27  C   UNL     1       4.396   9.552   3.382  0.00  0.00    +0.066 C 
ENDBRANCH  19  20
ENDBRANCH  18  19
ENDBRANCH  14  15
ENDBRANCH  12  13
TORSDOF 6
ENDMDL
