MODEL 1
REMARK VINA RESULT:      -8.1      0.000      0.000
REMARK  Name = C:\Users\Docking\Desktop\test protocol\1iep_ligandH.pdb
REMARK  8 active torsions:
REMARK  status: ('A' for Active; 'I' for Inactive)
REMARK    1  A    between atoms: _5  and  _11
REMARK    2  A    between atoms: _19  and  _21
REMARK    3  A    between atoms: _22  and  _66
REMARK    4  A    between atoms: _27  and  _30
REMARK    5  A    between atoms: _32  and  _33
REMARK    6  A    between atoms: _38  and  _43
REMARK    7  A    between atoms: _43  and  _46
REMARK    8  A    between atoms: _53  and  _55
REMARK                            x       y       z     vdW  Elec       q    Type
REMARK                         _______ _______ _______ _____ _____    ______ ____
ROOT
ATOM     10  C   UNL     1      -3.872  13.601   3.093  0.00  0.00    +0.038 A 
ATOM     11  C   UNL     1      -4.842  13.862   2.092  0.00  0.00    +0.047 A 
ATOM     12  C   UNL     1      -6.178  14.322   2.439  0.00  0.00    +0.035 A 
ATOM     32  C   UNL     1      -6.491  14.509   3.817  0.00  0.00    +0.024 A 
ATOM     33  C   UNL     1      -5.517  14.248   4.848  0.00  0.00    +0.007 A 
ATOM     34  C   UNL     1      -4.199  13.791   4.512  0.00  0.00    -0.029 A 
ATOM     35  C   UNL     1      -3.198  13.521   5.659  0.00  0.00    +0.045 C 
ENDROOT
BRANCH  10   9
ATOM      4  C   UNL     1       0.360  14.270   0.931  0.00  0.00    +0.077 A 
ATOM      5  C   UNL     1       0.007  15.598   0.520  0.00  0.00    +0.048 A 
ATOM      6  C   UNL     1      -1.275  16.069   0.879  0.00  0.00    +0.116 A 
ATOM      7  N   UNL     1      -2.133  15.263   1.596  0.00  0.00    -0.223 NA
ATOM      8  C   UNL     1      -1.762  13.986   1.975  0.00  0.00    +0.220 A 
ATOM      9  N   UNL     1      -2.606  13.161   2.703  0.00  0.00    -0.283 N 
ATOM     36  H   UNL     1      -2.298  12.223   2.957  0.00  0.00    +0.155 HD
ATOM     37  N   UNL     1      -0.543  13.512   1.643  0.00  0.00    -0.214 NA
BRANCH   4   3
ATOM      1  C   UNL     1       3.302  12.469  -0.915  0.00  0.00    +0.020 A 
ATOM      2  C   UNL     1       2.012  13.075  -0.676  0.00  0.00    +0.013 A 
ATOM      3  C   UNL     1       1.680  13.631   0.630  0.00  0.00    +0.019 A 
ATOM     38  C   UNL     1       2.685  13.559   1.680  0.00  0.00    +0.120 A 
ATOM     39  N   UNL     1       3.918  12.969   1.422  0.00  0.00    -0.263 NA
ATOM     40  C   UNL     1       4.248  12.429   0.170  0.00  0.00    +0.111 A 
ENDBRANCH   4   3
ENDBRANCH  10   9
BRANCH  12  13
ATOM     13  N   UNL     1      -7.206  14.596   1.466  0.00  0.00    -0.281 N 
ATOM     14  C   UNL     1      -7.270  15.647   0.567  0.00  0.00    +0.248 C 
ATOM     30  O   UNL     1      -6.554  16.636   0.608  0.00  0.00    -0.270 OA
ATOM     31  H   UNL     1      -7.982  13.933   1.438  0.00  0.00    +0.155 HD
BRANCH  14  15
ATOM     15  C   UNL     1      -8.286  15.600  -0.529  0.00  0.00    +0.037 A 
ATOM     16  C   UNL     1      -8.577  14.353  -1.242  0.00  0.00    +0.013 A 
ATOM     17  C   UNL     1      -9.549  14.339  -2.306  0.00  0.00    +0.005 A 
ATOM     18  C   UNL     1     -10.240  15.576  -2.662  0.00  0.00    -0.033 A 
ATOM     28  C   UNL     1      -9.936  16.797  -1.934  0.00  0.00    +0.005 A 
ATOM     29  C   UNL     1      -8.982  16.815  -0.892  0.00  0.00    +0.013 A 
BRANCH  18  19
ATOM     19  C   UNL     1     -11.277  15.658  -3.798  0.00  0.00    +0.119 C 
BRANCH  19  20
ATOM     20  N   UNL     1     -11.114  14.712  -4.942  0.00  0.00    -0.302 NA
ATOM     21  C   UNL     1      -9.907  15.068  -5.815  0.00  0.00    +0.066 C 
ATOM     22  C   UNL     1      -9.739  14.055  -6.993  0.00  0.00    -0.064 C 
ATOM     23  N   UNL     1     -11.021  14.030  -7.827  0.00  0.00    +0.379 N 
ATOM     24  C   UNL     1     -10.845  13.121  -8.970  0.00  0.00    -0.096 C 
ATOM     25  H   UNL     1     -11.182  15.056  -8.232  0.00  0.00    -0.082 HD
ATOM     26  C   UNL     1     -12.226  13.679  -6.966  0.00  0.00    -0.064 C 
ATOM     27  C   UNL     1     -12.367  14.674  -5.781  0.00  0.00    +0.066 C 
ENDBRANCH  19  20
ENDBRANCH  18  19
ENDBRANCH  14  15
ENDBRANCH  12  13
TORSDOF 6
ENDMDL
MODEL 2
REMARK VINA RESULT:      -8.1      2.500     12.287
REMARK  Name = C:\Users\Docking\Desktop\test protocol\1iep_ligandH.pdb
REMARK  8 active torsions:
REMARK  status: ('A' for Active; 'I' for Inactive)
REMARK    1  A    between atoms: _5  and  _11
REMARK    2  A    between atoms: _19  and  _21
REMARK    3  A    between atoms: _22  and  _66
REMARK    4  A    between atoms: _27  and  _30
REMARK    5  A    between atoms: _32  and  _33
REMARK    6  A    between atoms: _38  and  _43
REMARK    7  A    between atoms: _43  and  _46
REMARK    8  A    between atoms: _53  and  _55
REMARK                            x       y       z     vdW  Elec       q    Type
REMARK                         _______ _______ _______ _____ _____    ______ ____
ROOT
ATOM     10  C   UNL     1      -4.437  13.675   2.383  0.00  0.00    +0.038 A 
ATOM     11  C   UNL     1      -3.181  13.434   1.770  0.00  0.00    +0.047 A 
ATOM     12  C   UNL     1      -1.952  13.428   2.549  0.00  0.00    +0.035 A 
ATOM     32  C   UNL     1      -2.040  13.668   3.951  0.00  0.00    +0.024 A 
ATOM     33  C   UNL     1      -3.308  13.915   4.590  0.00  0.00    +0.007 A 
ATOM     34  C   UNL     1      -4.523  13.925   3.827  0.00  0.00    -0.029 A 
ATOM     35  C   UNL     1      -5.854  14.203   4.564  0.00  0.00    +0.045 C 
ENDROOT
BRANCH  10   9
ATOM      4  C   UNL     1      -7.561  15.831  -0.554  0.00  0.00    +0.077 A 
ATOM      5  C   UNL     1      -6.863  17.081  -0.476  0.00  0.00    +0.048 A 
ATOM      6  C   UNL     1      -5.708  17.129   0.337  0.00  0.00    +0.116 A 
ATOM      7  N   UNL     1      -5.292  16.005   1.016  0.00  0.00    -0.223 NA
ATOM      8  C   UNL     1      -5.990  14.815   0.920  0.00  0.00    +0.220 A 
ATOM      9  N   UNL     1      -5.585  13.669   1.588  0.00  0.00    -0.283 N 
ATOM     36  H   UNL     1      -6.131  12.813   1.497  0.00  0.00    +0.155 HD
ATOM     37  N   UNL     1      -7.097  14.743   0.152  0.00  0.00    -0.214 NA
BRANCH   4   3
ATOM      1  C   UNL     1     -10.974  16.405  -2.378  0.00  0.00    +0.020 A 
ATOM      2  C   UNL     1      -9.798  16.659  -1.577  0.00  0.00    +0.013 A 
ATOM      3  C   UNL     1      -8.797  15.620  -1.373  0.00  0.00    +0.019 A 
ATOM     38  C   UNL     1      -9.015  14.325  -2.000  0.00  0.00    +0.120 A 
ATOM     39  N   UNL     1     -10.157  14.109  -2.764  0.00  0.00    -0.263 NA
ATOM     40  C   UNL     1     -11.129  15.100  -2.966  0.00  0.00    +0.111 A 
ENDBRANCH   4   3
ENDBRANCH  10   9
BRANCH  12  13
ATOM     13  N   UNL     1      -0.648  13.197   1.980  0.00  0.00    -0.281 N 
ATOM     14  C   UNL     1       0.095  14.050   1.179  0.00  0.00    +0.248 C 
ATOM     30  O   UNL     1      -0.344  15.061   0.653  0.00  0.00    -0.270 OA
ATOM     31  H   UNL     1      -0.220  12.296   2.193  0.00  0.00    +0.155 HD
BRANCH  14  15
ATOM     15  C   UNL     1       1.530  13.724   0.914  0.00  0.00    +0.037 A 
ATOM     16  C   UNL     1       1.971  13.255  -0.402  0.00  0.00    +0.013 A 
ATOM     17  C   UNL     1       3.358  12.932  -0.627  0.00  0.00    +0.005 A 
ATOM     18  C   UNL     1       4.314  13.077   0.468  0.00  0.00    -0.033 A 
ATOM     28  C   UNL     1       3.849  13.549   1.762  0.00  0.00    +0.005 A 
ATOM     29  C   UNL     1       2.491  13.866   1.986  0.00  0.00    +0.013 A 
BRANCH  18  19
ATOM     19  C   UNL     1       5.809  12.735   0.325  0.00  0.00    +0.119 C 
BRANCH  19  20
ATOM     20  N   UNL     1       6.152  11.410  -0.271  0.00  0.00    -0.302 NA
ATOM     21  C   UNL     1       5.933  10.261   0.717  0.00  0.00    +0.066 C 
ATOM     22  C   UNL     1       6.276   8.880   0.069  0.00  0.00    -0.064 C 
ATOM     23  N   UNL     1       7.723   8.898  -0.427  0.00  0.00    +0.379 N 
ATOM     24  C   UNL     1       8.067   7.582  -0.985  0.00  0.00    -0.096 C 
ATOM     25  H   UNL     1       8.381   9.074   0.455  0.00  0.00    -0.082 HD
ATOM     26  C   UNL     1       7.950  10.039  -1.409  0.00  0.00    -0.064 C 
ATOM     27  C   UNL     1       7.578  11.404  -0.765  0.00  0.00    +0.066 C 
ENDBRANCH  19  20
ENDBRANCH  18  19
ENDBRANCH  14  15
ENDBRANCH  12  13
TORSDOF 6
ENDMDL
MODEL 3
REMARK VINA RESULT:      -8.0      2.714      6.108
REMARK  Name = C:\Users\Docking\Desktop\test protocol\1iep_ligandH.pdb
REMARK  8 active torsions:
REMARK  status: ('A' for Active; 'I' for Inactive)
REMARK    1  A    between atoms: _5  and  _11
REMARK    2  A    between atoms: _19  and  _21
REMARK    3  A    between atoms: _22  and  _66
REMARK    4  A    between atoms: _27  and  _30
REMARK    5  A    between atoms: _32  and  _33
REMARK    6  A    between atoms: _38  and  _43
REMARK    7  A    between atoms: _43  and  _46
REMARK    8  A    between atoms: _53  and  _55
REMARK                            x       y       z     vdW  Elec       q    Type
REMARK                         _______ _______ _______ _____ _____    ______ ____
ROOT
ATOM     10  C   UNL     1       2.482  14.126   2.085  0.00  0.00    +0.038 A 
ATOM     11  C   UNL     1       1.148  13.741   1.798  0.00  0.00    +0.047 A 
ATOM     12  C   UNL     1       0.076  14.723   1.744  0.00  0.00    +0.035 A 
ATOM     32  C   UNL     1       0.400  16.090   1.986  0.00  0.00    +0.024 A 
ATOM     33  C   UNL     1       1.751  16.499   2.280  0.00  0.00    +0.007 A 
ATOM     34  C   UNL     1       2.812  15.534   2.337  0.00  0.00    -0.029 A 
ATOM     35  C   UNL     1       4.240  16.028   2.663  0.00  0.00    +0.045 C 
ENDROOT
BRANCH  10   9
ATOM      4  C   UNL     1       5.712  11.284  -0.044  0.00  0.00    +0.077 A 
ATOM      5  C   UNL     1       5.380  11.785  -1.347  0.00  0.00    +0.048 A 
ATOM      6  C   UNL     1       4.369  12.768  -1.427  0.00  0.00    +0.116 A 
ATOM      7  N   UNL     1       3.742  13.210  -0.282  0.00  0.00    -0.223 NA
ATOM      8  C   UNL     1       4.084  12.705   0.959  0.00  0.00    +0.220 A 
ATOM      9  N   UNL     1       3.472  13.141   2.124  0.00  0.00    -0.283 N 
ATOM     36  H   UNL     1       3.747  12.738   3.019  0.00  0.00    +0.155 HD
ATOM     37  N   UNL     1       5.046  11.765   1.061  0.00  0.00    -0.214 NA
BRANCH   4   3
ATOM      1  C   UNL     1       9.131   9.388   0.082  0.00  0.00    +0.020 A 
ATOM      2  C   UNL     1       8.156  10.422  -0.181  0.00  0.00    +0.013 A 
ATOM      3  C   UNL     1       6.761  10.246   0.204  0.00  0.00    +0.019 A 
ATOM     38  C   UNL     1       6.383   9.003   0.859  0.00  0.00    +0.120 A 
ATOM     39  N   UNL     1       7.343   8.025   1.097  0.00  0.00    -0.263 NA
ATOM     40  C   UNL     1       8.688   8.182   0.730  0.00  0.00    +0.111 A 
ENDBRANCH   4   3
ENDBRANCH  10   9
BRANCH  12  13
ATOM     13  N   UNL     1      -1.299  14.390   1.466  0.00  0.00    -0.281 N 
ATOM     14  C   UNL     1      -2.337  14.234   2.369  0.00  0.00    +0.248 C 
ATOM     30  O   UNL     1      -2.193  14.147   3.579  0.00  0.00    -0.270 OA
ATOM     31  H   UNL     1      -1.535  14.253   0.483  0.00  0.00    +0.155 HD
BRANCH  14  15
ATOM     15  C   UNL     1      -3.737  14.148   1.852  0.00  0.00    +0.037 A 
ATOM     16  C   UNL     1      -4.548  12.944   2.053  0.00  0.00    +0.013 A 
ATOM     17  C   UNL     1      -5.890  12.881   1.529  0.00  0.00    +0.005 A 
ATOM     18  C   UNL     1      -6.429  14.026   0.800  0.00  0.00    -0.033 A 
ATOM     28  C   UNL     1      -5.604  15.210   0.620  0.00  0.00    +0.005 A 
ATOM     29  C   UNL     1      -4.289  15.275   1.131  0.00  0.00    +0.013 A 
BRANCH  18  19
ATOM     19  C   UNL     1      -7.843  14.038   0.189  0.00  0.00    +0.119 C 
BRANCH  19  20
ATOM     20  N   UNL     1      -8.018  14.748  -1.114  0.00  0.00    -0.302 NA
ATOM     21  C   UNL     1      -8.550  16.171  -0.925  0.00  0.00    +0.066 C 
ATOM     22  C   UNL     1      -8.706  16.906  -2.296  0.00  0.00    -0.064 C 
ATOM     23  N   UNL     1      -9.635  16.097  -3.203  0.00  0.00    +0.379 N 
ATOM     24  C   UNL     1      -9.830  16.814  -4.471  0.00  0.00    -0.096 C 
ATOM     25  H   UNL     1     -10.626  16.029  -2.697  0.00  0.00    -0.082 HD
ATOM     26  C   UNL     1      -9.115  14.679  -3.393  0.00  0.00    -0.064 C 
ATOM     27  C   UNL     1      -8.935  13.968  -2.023  0.00  0.00    +0.066 C 
ENDBRANCH  19  20
ENDBRANCH  18  19
ENDBRANCH  14  15
ENDBRANCH  12  13
TORSDOF 6
ENDMDL
MODEL 4
REMARK VINA RESULT:      -8.0      1.498      2.322
REMARK  Name = C:\Users\Docking\Desktop\test protocol\1iep_ligandH.pdb
REMARK  8 active torsions:
REMARK  status: ('A' for Active; 'I' for Inactive)
REMARK    1  A    between atoms: _5  and  _11
REMARK    2  A    between atoms: _19  and  _21
REMARK    3  A    between atoms: _22  and  _66
REMARK    4  A    between atoms: _27  and  _30
REMARK    5  A    between atoms: _32  and  _33
REMARK    6  A    between atoms: _38  and  _43
REMARK    7  A    between atoms: _43  and  _46
REMARK    8  A    between atoms: _53  and  _55
REMARK                            x       y       z     vdW  Elec       q    Type
REMARK                         _______ _______ _______ _____ _____    ______ ____
ROOT
ATOM     10  C   UNL     1      -4.052  13.553   2.549  0.00  0.00    +0.038 A 
ATOM     11  C   UNL     1      -4.990  13.757   1.505  0.00  0.00    +0.047 A 
ATOM     12  C   UNL     1      -6.342  14.213   1.787  0.00  0.00    +0.035 A 
ATOM     32  C   UNL     1      -6.705  14.454   3.144  0.00  0.00    +0.024 A 
ATOM     33  C   UNL     1      -5.764  14.250   4.218  0.00  0.00    +0.007 A 
ATOM     34  C   UNL     1      -4.430  13.799   3.946  0.00  0.00    -0.029 A 
ATOM     35  C   UNL     1      -3.465  13.592   5.137  0.00  0.00    +0.045 C 
ENDROOT
BRANCH  10   9
ATOM      4  C   UNL     1       0.461  14.359   1.128  0.00  0.00    +0.077 A 
ATOM      5  C   UNL     1       0.233  15.769   1.003  0.00  0.00    +0.048 A 
ATOM      6  C   UNL     1      -1.062  16.246   1.306  0.00  0.00    +0.116 A 
ATOM      7  N   UNL     1      -2.047  15.369   1.705  0.00  0.00    -0.223 NA
ATOM      8  C   UNL     1      -1.794  14.014   1.814  0.00  0.00    +0.220 A 
ATOM      9  N   UNL     1      -2.767  13.114   2.221  0.00  0.00    -0.283 N 
ATOM     36  H   UNL     1      -2.542  12.122   2.282  0.00  0.00    +0.155 HD
ATOM     37  N   UNL     1      -0.566  13.533   1.528  0.00  0.00    -0.214 NA
BRANCH   4   3
ATOM      1  C   UNL     1       3.411  12.531  -0.678  0.00  0.00    +0.020 A 
ATOM      2  C   UNL     1       2.126  13.154  -0.458  0.00  0.00    +0.013 A 
ATOM      3  C   UNL     1       1.777  13.703   0.846  0.00  0.00    +0.019 A 
ATOM     38  C   UNL     1       2.760  13.607   1.915  0.00  0.00    +0.120 A 
ATOM     39  N   UNL     1       3.989  13.001   1.674  0.00  0.00    -0.263 NA
ATOM     40  C   UNL     1       4.335  12.467   0.423  0.00  0.00    +0.111 A 
ENDBRANCH   4   3
ENDBRANCH  10   9
BRANCH  12  13
ATOM     13  N   UNL     1      -7.341  14.429   0.769  0.00  0.00    -0.281 N 
ATOM     14  C   UNL     1      -7.789  15.637   0.259  0.00  0.00    +0.248 C 
ATOM     30  O   UNL     1      -7.551  16.728   0.756  0.00  0.00    -0.270 OA
ATOM     31  H   UNL     1      -7.768  13.591   0.376  0.00  0.00    +0.155 HD
BRANCH  14  15
ATOM     15  C   UNL     1      -8.636  15.631  -0.972  0.00  0.00    +0.037 A 
ATOM     16  C   UNL     1      -9.338  16.838  -1.417  0.00  0.00    +0.013 A 
ATOM     17  C   UNL     1     -10.163  16.800  -2.599  0.00  0.00    +0.005 A 
ATOM     18  C   UNL     1     -10.288  15.551  -3.345  0.00  0.00    -0.033 A 
ATOM     28  C   UNL     1      -9.576  14.370  -2.885  0.00  0.00    +0.005 A 
ATOM     29  C   UNL     1      -8.768  14.403  -1.726  0.00  0.00    +0.013 A 
BRANCH  18  19
ATOM     19  C   UNL     1     -11.162  15.413  -4.606  0.00  0.00    +0.119 C 
BRANCH  19  20
ATOM     20  N   UNL     1     -12.629  15.651  -4.450  0.00  0.00    -0.302 NA
ATOM     21  C   UNL     1     -13.460  14.488  -4.998  0.00  0.00    +0.066 C 
ATOM     22  C   UNL     1     -14.991  14.742  -4.806  0.00  0.00    -0.064 C 
ATOM     23  N   UNL     1     -15.377  16.054  -5.492  0.00  0.00    +0.379 N 
ATOM     24  C   UNL     1     -16.825  16.267  -5.363  0.00  0.00    -0.096 C 
ATOM     25  H   UNL     1     -15.145  15.949  -6.577  0.00  0.00    -0.082 HD
ATOM     26  C   UNL     1     -14.552  17.216  -4.955  0.00  0.00    -0.064 C 
ATOM     27  C   UNL     1     -13.032  16.939  -5.123  0.00  0.00    +0.066 C 
ENDBRANCH  19  20
ENDBRANCH  18  19
ENDBRANCH  14  15
ENDBRANCH  12  13
TORSDOF 6
ENDMDL
MODEL 5
REMARK VINA RESULT:      -7.7      3.968     11.556
REMARK  Name = C:\Users\Docking\Desktop\test protocol\1iep_ligandH.pdb
REMARK  8 active torsions:
REMARK  status: ('A' for Active; 'I' for Inactive)
REMARK    1  A    between atoms: _5  and  _11
REMARK    2  A    between atoms: _19  and  _21
REMARK    3  A    between atoms: _22  and  _66
REMARK    4  A    between atoms: _27  and  _30
REMARK    5  A    between atoms: _32  and  _33
REMARK    6  A    between atoms: _38  and  _43
REMARK    7  A    between atoms: _43  and  _46
REMARK    8  A    between atoms: _53  and  _55
REMARK                            x       y       z     vdW  Elec       q    Type
REMARK                         _______ _______ _______ _____ _____    ______ ____
ROOT
ATOM     10  C   UNL     1      -9.422  14.276  -6.560  0.00  0.00    +0.038 A 
ATOM     11  C   UNL     1      -8.962  14.480  -5.234  0.00  0.00    +0.047 A 
ATOM     12  C   UNL     1      -9.786  15.160  -4.247  0.00  0.00    +0.035 A 
ATOM     32  C   UNL     1     -11.076  15.619  -4.645  0.00  0.00    +0.024 A 
ATOM     33  C   UNL     1     -11.559  15.421  -5.989  0.00  0.00    +0.007 A 
ATOM     34  C   UNL     1     -10.750  14.753  -6.967  0.00  0.00    -0.029 A 
ATOM     35  C   UNL     1     -11.316  14.575  -8.395  0.00  0.00    +0.045 C 
ENDROOT
BRANCH  10   9
ATOM      4  C   UNL     1      -7.795  10.294  -8.687  0.00  0.00    +0.077 A 
ATOM      5  C   UNL     1      -8.658   9.454  -7.908  0.00  0.00    +0.048 A 
ATOM      6  C   UNL     1      -9.501  10.085  -6.966  0.00  0.00    +0.116 A 
ATOM      7  N   UNL     1      -9.473  11.456  -6.822  0.00  0.00    -0.223 NA
ATOM      8  C   UNL     1      -8.628  12.236  -7.588  0.00  0.00    +0.220 A 
ATOM      9  N   UNL     1      -8.589  13.617  -7.466  0.00  0.00    -0.283 N 
ATOM     36  H   UNL     1      -7.946  14.156  -8.045  0.00  0.00    +0.155 HD
ATOM     37  N   UNL     1      -7.812  11.657  -8.494  0.00  0.00    -0.214 NA
BRANCH   4   3
ATOM      1  C   UNL     1      -4.559   9.578 -10.766  0.00  0.00    +0.020 A 
ATOM      2  C   UNL     1      -5.430  10.105  -9.740  0.00  0.00    +0.013 A 
ATOM      3  C   UNL     1      -6.849   9.775  -9.726  0.00  0.00    +0.019 A 
ATOM     38  C   UNL     1      -7.360   8.902 -10.772  0.00  0.00    +0.120 A 
ATOM     39  N   UNL     1      -6.499   8.410 -11.747  0.00  0.00    -0.263 NA
ATOM     40  C   UNL     1      -5.131   8.722 -11.772  0.00  0.00    +0.111 A 
ENDBRANCH   4   3
ENDBRANCH  10   9
BRANCH  12  13
ATOM     13  N   UNL     1      -9.369  15.403  -2.888  0.00  0.00    -0.281 N 
ATOM     14  C   UNL     1      -8.928  14.479  -1.955  0.00  0.00    +0.248 C 
ATOM     30  O   UNL     1      -9.029  13.267  -2.081  0.00  0.00    -0.270 OA
ATOM     31  H   UNL     1      -9.403  16.373  -2.577  0.00  0.00    +0.155 HD
BRANCH  14  15
ATOM     15  C   UNL     1      -8.297  14.972  -0.693  0.00  0.00    +0.037 A 
ATOM     16  C   UNL     1      -8.092  16.403  -0.455  0.00  0.00    +0.013 A 
ATOM     17  C   UNL     1      -7.466  16.850   0.764  0.00  0.00    +0.005 A 
ATOM     18  C   UNL     1      -7.040  15.864   1.754  0.00  0.00    -0.033 A 
ATOM     28  C   UNL     1      -7.261  14.451   1.495  0.00  0.00    +0.005 A 
ATOM     29  C   UNL     1      -7.874  14.009   0.301  0.00  0.00    +0.013 A 
BRANCH  18  19
ATOM     19  C   UNL     1      -6.345  16.250   3.073  0.00  0.00    +0.119 C 
BRANCH  19  20
ATOM     20  N   UNL     1      -5.625  15.168   3.809  0.00  0.00    -0.302 NA
ATOM     21  C   UNL     1      -5.885  15.227   5.317  0.00  0.00    +0.066 C 
ATOM     22  C   UNL     1      -5.142  14.075   6.068  0.00  0.00    -0.064 C 
ATOM     23  N   UNL     1      -3.644  14.159   5.773  0.00  0.00    +0.379 N 
ATOM     24  C   UNL     1      -2.936  13.112   6.524  0.00  0.00    -0.096 C 
ATOM     25  H   UNL     1      -3.282  15.146   6.144  0.00  0.00    -0.082 HD
ATOM     26  C   UNL     1      -3.377  14.103   4.275  0.00  0.00    -0.064 C 
ATOM     27  C   UNL     1      -4.143  15.235   3.535  0.00  0.00    +0.066 C 
ENDBRANCH  19  20
ENDBRANCH  18  19
ENDBRANCH  14  15
ENDBRANCH  12  13
TORSDOF 6
ENDMDL
