MODEL 1
REMARK VINA RESULT:      -8.1      0.000      0.000
REMARK  Name = C:\Users\Docking\Desktop\test protocol\1iep_ligandH.pdb
REMARK  8 active torsions:
REMARK  status: ('A' for Active; 'I' for Inactive)
REMARK    1  A    between atoms: _5  and  _11
REMARK    2  A    between atoms: _19  and  _21
REMARK    3  A    between atoms: _22  and  _66
REMARK    4  A    between atoms: _27  and  _30
REMARK    5  A    between atoms: _32  and  _33
REMARK    6  A    between atoms: _38  and  _43
REMARK    7  A    between atoms: _43  and  _46
REMARK    8  A    between atoms: _53  and  _55
REMARK                            x       y       z     vdW  Elec       q    Type
REMARK                         _______ _______ _______ _____ _____    ______ ____
ROOT
ATOM     10  C   UNL     1      10.700  34.250   4.927  0.00  0.00    +0.038 A 
ATOM     11  C   UNL     1      11.070  33.397   5.998  0.00  0.00    +0.047 A 
ATOM     12  C   UNL     1      12.420  33.413   6.541  0.00  0.00    +0.035 A 
ATOM     32  C   UNL     1      13.367  34.312   5.970  0.00  0.00    +0.024 A 
ATOM     33  C   UNL     1      13.008  35.185   4.879  0.00  0.00    +0.007 A 
ATOM     34  C   UNL     1      11.679  35.172   4.338  0.00  0.00    -0.029 A 
ATOM     35  C   UNL     1      11.352  36.124   3.165  0.00  0.00    +0.045 C 
ENDROOT
BRANCH  10   9
ATOM      4  C   UNL     1       6.151  35.778   4.842  0.00  0.00    +0.077 A 
ATOM      5  C   UNL     1       6.398  36.754   5.864  0.00  0.00    +0.048 A 
ATOM      6  C   UNL     1       7.707  36.826   6.390  0.00  0.00    +0.116 A 
ATOM      7  N   UNL     1       8.689  35.980   5.921  0.00  0.00    -0.223 NA
ATOM      8  C   UNL     1       8.417  35.048   4.936  0.00  0.00    +0.220 A 
ATOM      9  N   UNL     1       9.391  34.193   4.445  0.00  0.00    -0.283 N 
ATOM     36  H   UNL     1       9.148  33.514   3.723  0.00  0.00    +0.155 HD
ATOM     37  N   UNL     1       7.174  34.959   4.419  0.00  0.00    -0.214 NA
BRANCH   4   3
ATOM      1  C   UNL     1       2.300  35.701   4.160  0.00  0.00    +0.020 A 
ATOM      2  C   UNL     1       3.559  35.909   4.839  0.00  0.00    +0.013 A 
ATOM      3  C   UNL     1       4.820  35.582   4.185  0.00  0.00    +0.019 A 
ATOM     38  C   UNL     1       4.773  35.045   2.834  0.00  0.00    +0.120 A 
ATOM     39  N   UNL     1       3.546  34.855   2.206  0.00  0.00    -0.263 NA
ATOM     40  C   UNL     1       2.326  35.163   2.825  0.00  0.00    +0.111 A 
ENDBRANCH   4   3
ENDBRANCH  10   9
BRANCH  12  13
ATOM     13  N   UNL     1      12.855  32.566   7.623  0.00  0.00    -0.281 N 
ATOM     14  C   UNL     1      12.262  31.403   8.086  0.00  0.00    +0.248 C 
ATOM     30  O   UNL     1      11.140  31.029   7.776  0.00  0.00    -0.270 OA
ATOM     31  H   UNL     1      13.705  32.858   8.106  0.00  0.00    +0.155 HD
BRANCH  14  15
ATOM     15  C   UNL     1      13.017  30.538   9.043  0.00  0.00    +0.037 A 
ATOM     16  C   UNL     1      12.610  30.422  10.446  0.00  0.00    +0.013 A 
ATOM     17  C   UNL     1      13.366  29.594  11.352  0.00  0.00    +0.005 A 
ATOM     18  C   UNL     1      14.537  28.874  10.856  0.00  0.00    -0.033 A 
ATOM     28  C   UNL     1      14.915  29.003   9.459  0.00  0.00    +0.005 A 
ATOM     29  C   UNL     1      14.177  29.815   8.568  0.00  0.00    +0.013 A 
BRANCH  18  19
ATOM     19  C   UNL     1      15.415  27.985  11.757  0.00  0.00    +0.119 C 
BRANCH  19  20
ATOM     20  N   UNL     1      15.436  28.300  13.216  0.00  0.00    -0.302 NA
ATOM     21  C   UNL     1      16.436  29.410  13.550  0.00  0.00    +0.066 C 
ATOM     22  C   UNL     1      16.429  29.742  15.078  0.00  0.00    -0.064 C 
ATOM     23  N   UNL     1      16.742  28.474  15.874  0.00  0.00    +0.379 N 
ATOM     24  C   UNL     1      16.793  28.795  17.308  0.00  0.00    -0.096 C 
ATOM     25  H   UNL     1      17.756  28.125  15.569  0.00  0.00    -0.082 HD
ATOM     26  C   UNL     1      15.753  27.364  15.546  0.00  0.00    -0.064 C 
ATOM     27  C   UNL     1      15.747  27.062  14.022  0.00  0.00    +0.066 C 
ENDBRANCH  19  20
ENDBRANCH  18  19
ENDBRANCH  14  15
ENDBRANCH  12  13
TORSDOF 6
ENDMDL
MODEL 2
REMARK VINA RESULT:      -7.6      6.375      9.611
REMARK  Name = C:\Users\Docking\Desktop\test protocol\1iep_ligandH.pdb
REMARK  8 active torsions:
REMARK  status: ('A' for Active; 'I' for Inactive)
REMARK    1  A    between atoms: _5  and  _11
REMARK    2  A    between atoms: _19  and  _21
REMARK    3  A    between atoms: _22  and  _66
REMARK    4  A    between atoms: _27  and  _30
REMARK    5  A    between atoms: _32  and  _33
REMARK    6  A    between atoms: _38  and  _43
REMARK    7  A    between atoms: _43  and  _46
REMARK    8  A    between atoms: _53  and  _55
REMARK                            x       y       z     vdW  Elec       q    Type
REMARK                         _______ _______ _______ _____ _____    ______ ____
ROOT
ATOM     10  C   UNL     1      14.214  29.455   8.791  0.00  0.00    +0.038 A 
ATOM     11  C   UNL     1      14.844  28.922   9.944  0.00  0.00    +0.047 A 
ATOM     12  C   UNL     1      14.242  29.057  11.261  0.00  0.00    +0.035 A 
ATOM     32  C   UNL     1      12.995  29.739  11.367  0.00  0.00    +0.024 A 
ATOM     33  C   UNL     1      12.341  30.288  10.205  0.00  0.00    +0.007 A 
ATOM     34  C   UNL     1      12.932  30.159   8.903  0.00  0.00    -0.029 A 
ATOM     35  C   UNL     1      12.189  30.773   7.693  0.00  0.00    +0.045 C 
ENDROOT
BRANCH  10   9
ATOM      4  C   UNL     1      17.398  30.781   5.453  0.00  0.00    +0.077 A 
ATOM      5  C   UNL     1      17.838  31.901   6.233  0.00  0.00    +0.048 A 
ATOM      6  C   UNL     1      17.215  32.105   7.485  0.00  0.00    +0.116 A 
ATOM      7  N   UNL     1      16.227  31.246   7.914  0.00  0.00    -0.223 NA
ATOM      8  C   UNL     1      15.824  30.176   7.136  0.00  0.00    +0.220 A 
ATOM      9  N   UNL     1      14.838  29.295   7.551  0.00  0.00    -0.283 N 
ATOM     36  H   UNL     1      14.564  28.523   6.945  0.00  0.00    +0.155 HD
ATOM     37  N   UNL     1      16.403  29.961   5.936  0.00  0.00    -0.214 NA
BRANCH   4   3
ATOM      1  C   UNL     1      19.135  31.020   1.956  0.00  0.00    +0.020 A 
ATOM      2  C   UNL     1      18.606  31.409   3.243  0.00  0.00    +0.013 A 
ATOM      3  C   UNL     1      17.963  30.431   4.111  0.00  0.00    +0.019 A 
ATOM     38  C   UNL     1      17.870  29.056   3.644  0.00  0.00    +0.120 A 
ATOM     39  N   UNL     1      18.388  28.711   2.399  0.00  0.00    -0.263 NA
ATOM     40  C   UNL     1      19.008  29.644   1.555  0.00  0.00    +0.111 A 
ENDBRANCH   4   3
ENDBRANCH  10   9
BRANCH  12  13
ATOM     13  N   UNL     1      14.839  28.545  12.469  0.00  0.00    -0.281 N 
ATOM     14  C   UNL     1      15.662  29.211  13.362  0.00  0.00    +0.248 C 
ATOM     30  O   UNL     1      16.184  30.294  13.144  0.00  0.00    -0.270 OA
ATOM     31  H   UNL     1      14.630  27.572  12.693  0.00  0.00    +0.155 HD
BRANCH  14  15
ATOM     15  C   UNL     1      15.958  28.577  14.683  0.00  0.00    +0.037 A 
ATOM     16  C   UNL     1      16.663  29.311  15.737  0.00  0.00    +0.013 A 
ATOM     17  C   UNL     1      16.951  28.670  16.996  0.00  0.00    +0.005 A 
ATOM     18  C   UNL     1      16.532  27.287  17.207  0.00  0.00    -0.033 A 
ATOM     28  C   UNL     1      15.830  26.584  16.147  0.00  0.00    +0.005 A 
ATOM     29  C   UNL     1      15.546  27.209  14.911  0.00  0.00    +0.013 A 
BRANCH  18  19
ATOM     19  C   UNL     1      16.816  26.517  18.511  0.00  0.00    +0.119 C 
BRANCH  19  20
ATOM     20  N   UNL     1      15.681  26.349  19.467  0.00  0.00    -0.302 NA
ATOM     21  C   UNL     1      14.873  25.080  19.182  0.00  0.00    +0.066 C 
ATOM     22  C   UNL     1      13.703  24.908  20.205  0.00  0.00    -0.064 C 
ATOM     23  N   UNL     1      12.804  26.145  20.160  0.00  0.00    +0.379 N 
ATOM     24  C   UNL     1      11.671  25.961  21.078  0.00  0.00    -0.096 C 
ATOM     25  H   UNL     1      12.392  26.226  19.127  0.00  0.00    -0.082 HD
ATOM     26  C   UNL     1      13.600  27.411  20.440  0.00  0.00    -0.064 C 
ATOM     27  C   UNL     1      14.778  27.557  19.436  0.00  0.00    +0.066 C 
ENDBRANCH  19  20
ENDBRANCH  18  19
ENDBRANCH  14  15
ENDBRANCH  12  13
TORSDOF 6
ENDMDL
MODEL 3
REMARK VINA RESULT:      -7.5      1.196      1.839
REMARK  Name = C:\Users\Docking\Desktop\test protocol\1iep_ligandH.pdb
REMARK  8 active torsions:
REMARK  status: ('A' for Active; 'I' for Inactive)
REMARK    1  A    between atoms: _5  and  _11
REMARK    2  A    between atoms: _19  and  _21
REMARK    3  A    between atoms: _22  and  _66
REMARK    4  A    between atoms: _27  and  _30
REMARK    5  A    between atoms: _32  and  _33
REMARK    6  A    between atoms: _38  and  _43
REMARK    7  A    between atoms: _43  and  _46
REMARK    8  A    between atoms: _53  and  _55
REMARK                            x       y       z     vdW  Elec       q    Type
REMARK                         _______ _______ _______ _____ _____    ______ ____
ROOT
ATOM     10  C   UNL     1      10.623  34.307   5.018  0.00  0.00    +0.038 A 
ATOM     11  C   UNL     1      10.975  33.611   6.203  0.00  0.00    +0.047 A 
ATOM     12  C   UNL     1      12.319  33.693   6.751  0.00  0.00    +0.035 A 
ATOM     32  C   UNL     1      13.280  34.494   6.069  0.00  0.00    +0.024 A 
ATOM     33  C   UNL     1      12.940  35.207   4.862  0.00  0.00    +0.007 A 
ATOM     34  C   UNL     1      11.616  35.128   4.315  0.00  0.00    -0.029 A 
ATOM     35  C   UNL     1      11.309  35.908   3.015  0.00  0.00    +0.045 C 
ENDROOT
BRANCH  10   9
ATOM      4  C   UNL     1       6.071  35.802   4.732  0.00  0.00    +0.077 A 
ATOM      5  C   UNL     1       6.307  36.885   5.642  0.00  0.00    +0.048 A 
ATOM      6  C   UNL     1       7.612  37.019   6.167  0.00  0.00    +0.116 A 
ATOM      7  N   UNL     1       8.600  36.129   5.801  0.00  0.00    -0.223 NA
ATOM      8  C   UNL     1       8.337  35.094   4.923  0.00  0.00    +0.220 A 
ATOM      9  N   UNL     1       9.317  34.193   4.535  0.00  0.00    -0.283 N 
ATOM     36  H   UNL     1       9.082  33.439   3.890  0.00  0.00    +0.155 HD
ATOM     37  N   UNL     1       7.099  34.945   4.409  0.00  0.00    -0.214 NA
BRANCH   4   3
ATOM      1  C   UNL     1       3.308  34.783   2.157  0.00  0.00    +0.020 A 
ATOM      2  C   UNL     1       4.612  35.028   2.730  0.00  0.00    +0.013 A 
ATOM      3  C   UNL     1       4.745  35.532   4.091  0.00  0.00    +0.019 A 
ATOM     38  C   UNL     1       3.530  35.778   4.852  0.00  0.00    +0.120 A 
ATOM     39  N   UNL     1       2.288  35.535   4.275  0.00  0.00    -0.263 NA
ATOM     40  C   UNL     1       2.147  35.052   2.965  0.00  0.00    +0.111 A 
ENDBRANCH   4   3
ENDBRANCH  10   9
BRANCH  12  13
ATOM     13  N   UNL     1      12.737  33.003   7.947  0.00  0.00    -0.281 N 
ATOM     14  C   UNL     1      12.388  31.727   8.360  0.00  0.00    +0.248 C 
ATOM     30  O   UNL     1      11.488  31.063   7.867  0.00  0.00    -0.270 OA
ATOM     31  H   UNL     1      13.367  33.517   8.563  0.00  0.00    +0.155 HD
BRANCH  14  15
ATOM     15  C   UNL     1      13.136  31.105   9.494  0.00  0.00    +0.037 A 
ATOM     16  C   UNL     1      12.493  30.143  10.392  0.00  0.00    +0.013 A 
ATOM     17  C   UNL     1      13.234  29.571  11.489  0.00  0.00    +0.005 A 
ATOM     18  C   UNL     1      14.627  29.959  11.692  0.00  0.00    -0.033 A 
ATOM     28  C   UNL     1      15.242  30.912  10.783  0.00  0.00    +0.005 A 
ATOM     29  C   UNL     1      14.519  31.476   9.708  0.00  0.00    +0.013 A 
BRANCH  18  19
ATOM     19  C   UNL     1      15.487  29.415  12.849  0.00  0.00    +0.119 C 
BRANCH  19  20
ATOM     20  N   UNL     1      15.507  27.935  13.048  0.00  0.00    -0.302 NA
ATOM     21  C   UNL     1      15.602  27.556  14.528  0.00  0.00    +0.066 C 
ATOM     22  C   UNL     1      15.600  26.005  14.720  0.00  0.00    -0.064 C 
ATOM     23  N   UNL     1      16.759  25.395  13.930  0.00  0.00    +0.379 N 
ATOM     24  C   UNL     1      16.795  23.942  14.154  0.00  0.00    -0.096 C 
ATOM     25  H   UNL     1      17.705  25.823  14.334  0.00  0.00    -0.082 HD
ATOM     26  C   UNL     1      16.674  25.769  12.457  0.00  0.00    -0.064 C 
ATOM     27  C   UNL     1      16.647  27.313  12.280  0.00  0.00    +0.066 C 
ENDBRANCH  19  20
ENDBRANCH  18  19
ENDBRANCH  14  15
ENDBRANCH  12  13
TORSDOF 6
ENDMDL
MODEL 4
REMARK VINA RESULT:      -7.4      1.747      2.404
REMARK  Name = C:\Users\Docking\Desktop\test protocol\1iep_ligandH.pdb
REMARK  8 active torsions:
REMARK  status: ('A' for Active; 'I' for Inactive)
REMARK    1  A    between atoms: _5  and  _11
REMARK    2  A    between atoms: _19  and  _21
REMARK    3  A    between atoms: _22  and  _66
REMARK    4  A    between atoms: _27  and  _30
REMARK    5  A    between atoms: _32  and  _33
REMARK    6  A    between atoms: _38  and  _43
REMARK    7  A    between atoms: _43  and  _46
REMARK    8  A    between atoms: _53  and  _55
REMARK                            x       y       z     vdW  Elec       q    Type
REMARK                         _______ _______ _______ _____ _____    ______ ____
ROOT
ATOM     10  C   UNL     1       9.667  35.383   4.139  0.00  0.00    +0.038 A 
ATOM     11  C   UNL     1      10.140  34.452   5.099  0.00  0.00    +0.047 A 
ATOM     12  C   UNL     1      11.498  34.527   5.616  0.00  0.00    +0.035 A 
ATOM     32  C   UNL     1      12.347  35.566   5.135  0.00  0.00    +0.024 A 
ATOM     33  C   UNL     1      11.883  36.521   4.159  0.00  0.00    +0.007 A 
ATOM     34  C   UNL     1      10.546  36.449   3.643  0.00  0.00    -0.029 A 
ATOM     35  C   UNL     1      10.104  37.495   2.593  0.00  0.00    +0.045 C 
ENDROOT
BRANCH  10   9
ATOM      4  C   UNL     1       4.919  35.727   4.746  0.00  0.00    +0.077 A 
ATOM      5  C   UNL     1       5.064  36.155   6.107  0.00  0.00    +0.048 A 
ATOM      6  C   UNL     1       6.378  36.267   6.615  0.00  0.00    +0.116 A 
ATOM      7  N   UNL     1       7.458  35.971   5.813  0.00  0.00    -0.223 NA
ATOM      8  C   UNL     1       7.283  35.559   4.504  0.00  0.00    +0.220 A 
ATOM      9  N   UNL     1       8.355  35.263   3.677  0.00  0.00    -0.283 N 
ATOM     36  H   UNL     1       8.183  34.956   2.720  0.00  0.00    +0.155 HD
ATOM     37  N   UNL     1       6.038  35.443   3.996  0.00  0.00    -0.214 NA
BRANCH   4   3
ATOM      1  C   UNL     1       1.079  35.727   3.998  0.00  0.00    +0.020 A 
ATOM      2  C   UNL     1       2.329  35.903   4.701  0.00  0.00    +0.013 A 
ATOM      3  C   UNL     1       3.596  35.564   4.064  0.00  0.00    +0.019 A 
ATOM     38  C   UNL     1       3.562  35.045   2.705  0.00  0.00    +0.120 A 
ATOM     39  N   UNL     1       2.343  34.884   2.054  0.00  0.00    -0.263 NA
ATOM     40  C   UNL     1       1.118  35.206   2.657  0.00  0.00    +0.111 A 
ENDBRANCH   4   3
ENDBRANCH  10   9
BRANCH  12  13
ATOM     13  N   UNL     1      12.035  33.605   6.585  0.00  0.00    -0.281 N 
ATOM     14  C   UNL     1      12.252  33.820   7.936  0.00  0.00    +0.248 C 
ATOM     30  O   UNL     1      12.215  34.915   8.476  0.00  0.00    -0.270 OA
ATOM     31  H   UNL     1      12.287  32.682   6.232  0.00  0.00    +0.155 HD
BRANCH  14  15
ATOM     15  C   UNL     1      12.570  32.651   8.811  0.00  0.00    +0.037 A 
ATOM     16  C   UNL     1      12.048  31.315   8.514  0.00  0.00    +0.013 A 
ATOM     17  C   UNL     1      12.357  30.207   9.384  0.00  0.00    +0.005 A 
ATOM     18  C   UNL     1      13.194  30.433  10.560  0.00  0.00    -0.033 A 
ATOM     28  C   UNL     1      13.703  31.767  10.828  0.00  0.00    +0.005 A 
ATOM     29  C   UNL     1      13.402  32.855   9.978  0.00  0.00    +0.013 A 
BRANCH  18  19
ATOM     19  C   UNL     1      13.557  29.314  11.555  0.00  0.00    +0.119 C 
BRANCH  19  20
ATOM     20  N   UNL     1      15.005  28.991  11.723  0.00  0.00    -0.302 NA
ATOM     21  C   UNL     1      15.534  28.116  10.583  0.00  0.00    +0.066 C 
ATOM     22  C   UNL     1      17.056  27.807  10.763  0.00  0.00    -0.064 C 
ATOM     23  N   UNL     1      17.280  27.128  12.115  0.00  0.00    +0.379 N 
ATOM     24  C   UNL     1      18.701  26.784  12.262  0.00  0.00    -0.096 C 
ATOM     25  H   UNL     1      16.699  26.177  12.116  0.00  0.00    -0.082 HD
ATOM     26  C   UNL     1      16.754  27.991  13.254  0.00  0.00    -0.064 C 
ATOM     27  C   UNL     1      15.248  28.317  13.050  0.00  0.00    +0.066 C 
ENDBRANCH  19  20
ENDBRANCH  18  19
ENDBRANCH  14  15
ENDBRANCH  12  13
TORSDOF 6
ENDMDL
MODEL 5
REMARK VINA RESULT:      -7.3      4.464     14.724
REMARK  Name = C:\Users\Docking\Desktop\test protocol\1iep_ligandH.pdb
REMARK  8 active torsions:
REMARK  status: ('A' for Active; 'I' for Inactive)
REMARK    1  A    between atoms: _5  and  _11
REMARK    2  A    between atoms: _19  and  _21
REMARK    3  A    between atoms: _22  and  _66
REMARK    4  A    between atoms: _27  and  _30
REMARK    5  A    between atoms: _32  and  _33
REMARK    6  A    between atoms: _38  and  _43
REMARK    7  A    between atoms: _43  and  _46
REMARK    8  A    between atoms: _53  and  _55
REMARK                            x       y       z     vdW  Elec       q    Type
REMARK                         _______ _______ _______ _____ _____    ______ ____
ROOT
ATOM     10  C   UNL     1      15.772  26.441  16.153  0.00  0.00    +0.038 A 
ATOM     11  C   UNL     1      15.157  27.047  15.028  0.00  0.00    +0.047 A 
ATOM     12  C   UNL     1      15.865  28.029  14.221  0.00  0.00    +0.035 A 
ATOM     32  C   UNL     1      17.199  28.369  14.588  0.00  0.00    +0.024 A 
ATOM     33  C   UNL     1      17.839  27.765  15.730  0.00  0.00    +0.007 A 
ATOM     34  C   UNL     1      17.145  26.797  16.531  0.00  0.00    -0.029 A 
ATOM     35  C   UNL     1      17.879  26.186  17.747  0.00  0.00    +0.045 C 
ENDROOT
BRANCH  10   9
ATOM      4  C   UNL     1      14.105  22.000  16.885  0.00  0.00    +0.077 A 
ATOM      5  C   UNL     1      14.709  21.511  15.679  0.00  0.00    +0.048 A 
ATOM      6  C   UNL     1      15.433  22.437  14.894  0.00  0.00    +0.116 A 
ATOM      7  N   UNL     1      15.541  23.750  15.297  0.00  0.00    -0.223 NA
ATOM      8  C   UNL     1      14.945  24.190  16.465  0.00  0.00    +0.220 A 
ATOM      9  N   UNL     1      15.047  25.504  16.892  0.00  0.00    -0.283 N 
ATOM     36  H   UNL     1      14.587  25.791  17.756  0.00  0.00    +0.155 HD
ATOM     37  N   UNL     1      14.246  23.326  17.230  0.00  0.00    -0.214 NA
BRANCH   4   3
ATOM      1  C   UNL     1      11.715  20.823  19.748  0.00  0.00    +0.020 A 
ATOM      2  C   UNL     1      12.462  21.694  18.871  0.00  0.00    +0.013 A 
ATOM      3  C   UNL     1      13.310  21.144  17.821  0.00  0.00    +0.019 A 
ATOM     38  C   UNL     1      13.380  19.697  17.684  0.00  0.00    +0.120 A 
ATOM     39  N   UNL     1      12.650  18.883  18.544  0.00  0.00    -0.263 NA
ATOM     40  C   UNL     1      11.832  19.401  19.560  0.00  0.00    +0.111 A 
ENDBRANCH   4   3
ENDBRANCH  10   9
BRANCH  12  13
ATOM     13  N   UNL     1      15.289  28.682  13.072  0.00  0.00    -0.281 N 
ATOM     14  C   UNL     1      15.302  28.256  11.754  0.00  0.00    +0.248 C 
ATOM     30  O   UNL     1      16.000  27.348  11.328  0.00  0.00    -0.270 OA
ATOM     31  H   UNL     1      14.814  29.567  13.252  0.00  0.00    +0.155 HD
BRANCH  14  15
ATOM     15  C   UNL     1      14.423  28.948  10.763  0.00  0.00    +0.037 A 
ATOM     16  C   UNL     1      14.717  28.907   9.328  0.00  0.00    +0.013 A 
ATOM     17  C   UNL     1      13.863  29.597   8.394  0.00  0.00    +0.005 A 
ATOM     18  C   UNL     1      12.704  30.334   8.894  0.00  0.00    -0.033 A 
ATOM     28  C   UNL     1      12.433  30.353  10.322  0.00  0.00    +0.005 A 
ATOM     29  C   UNL     1      13.269  29.679  11.240  0.00  0.00    +0.013 A 
BRANCH  18  19
ATOM     19  C   UNL     1      11.750  31.116   7.972  0.00  0.00    +0.119 C 
BRANCH  19  20
ATOM     20  N   UNL     1      12.308  32.306   7.262  0.00  0.00    -0.302 NA
ATOM     21  C   UNL     1      12.622  33.455   8.224  0.00  0.00    +0.066 C 
ATOM     22  C   UNL     1      13.226  34.682   7.467  0.00  0.00    -0.064 C 
ATOM     23  N   UNL     1      12.251  35.137   6.380  0.00  0.00    +0.379 N 
ATOM     24  C   UNL     1      12.790  36.327   5.705  0.00  0.00    -0.096 C 
ATOM     25  H   UNL     1      11.300  35.434   6.880  0.00  0.00    -0.082 HD
ATOM     26  C   UNL     1      11.932  34.000   5.420  0.00  0.00    -0.064 C 
ATOM     27  C   UNL     1      11.360  32.774   6.186  0.00  0.00    +0.066 C 
ENDBRANCH  19  20
ENDBRANCH  18  19
ENDBRANCH  14  15
ENDBRANCH  12  13
TORSDOF 6
ENDMDL
