MODEL 1
REMARK VINA RESULT:      -8.7      0.000      0.000
REMARK  Name = C:\Users\Docking\Desktop\test protocol\1iep_ligandH.pdb
REMARK  8 active torsions:
REMARK  status: ('A' for Active; 'I' for Inactive)
REMARK    1  A    between atoms: _5  and  _11
REMARK    2  A    between atoms: _19  and  _21
REMARK    3  A    between atoms: _22  and  _66
REMARK    4  A    between atoms: _27  and  _30
REMARK    5  A    between atoms: _32  and  _33
REMARK    6  A    between atoms: _38  and  _43
REMARK    7  A    between atoms: _43  and  _46
REMARK    8  A    between atoms: _53  and  _55
REMARK                            x       y       z     vdW  Elec       q    Type
REMARK                         _______ _______ _______ _____ _____    ______ ____
ROOT
ATOM     10  C   UNL     1     -11.670  22.793  25.463  0.00  0.00    +0.038 A 
ATOM     11  C   UNL     1     -11.783  24.089  26.026  0.00  0.00    +0.047 A 
ATOM     12  C   UNL     1     -12.664  25.089  25.442  0.00  0.00    +0.035 A 
ATOM     32  C   UNL     1     -13.418  24.733  24.286  0.00  0.00    +0.024 A 
ATOM     33  C   UNL     1     -13.314  23.420  23.700  0.00  0.00    +0.007 A 
ATOM     34  C   UNL     1     -12.445  22.430  24.269  0.00  0.00    -0.029 A 
ATOM     35  C   UNL     1     -12.368  21.041  23.595  0.00  0.00    +0.045 C 
ENDROOT
BRANCH  10   9
ATOM      4  C   UNL     1      -7.448  20.534  25.788  0.00  0.00    +0.077 A 
ATOM      5  C   UNL     1      -6.922  21.227  24.648  0.00  0.00    +0.048 A 
ATOM      6  C   UNL     1      -7.773  22.151  24.001  0.00  0.00    +0.116 A 
ATOM      7  N   UNL     1      -9.052  22.359  24.469  0.00  0.00    -0.223 NA
ATOM      8  C   UNL     1      -9.528  21.673  25.571  0.00  0.00    +0.220 A 
ATOM      9  N   UNL     1     -10.809  21.872  26.064  0.00  0.00    -0.283 N 
ATOM     36  H   UNL     1     -11.125  21.341  26.874  0.00  0.00    +0.155 HD
ATOM     37  N   UNL     1      -8.736  20.784  26.205  0.00  0.00    -0.214 NA
BRANCH   4   3
ATOM      1  C   UNL     1      -4.525  18.622  27.550  0.00  0.00    +0.020 A 
ATOM      2  C   UNL     1      -5.228  19.619  26.777  0.00  0.00    +0.013 A 
ATOM      3  C   UNL     1      -6.670  19.529  26.580  0.00  0.00    +0.019 A 
ATOM     38  C   UNL     1      -7.375  18.409  27.184  0.00  0.00    +0.120 A 
ATOM     39  N   UNL     1      -6.670  17.463  27.923  0.00  0.00    -0.263 NA
ATOM     40  C   UNL     1      -5.283  17.539  28.118  0.00  0.00    +0.111 A 
ENDBRANCH   4   3
ENDBRANCH  10   9
BRANCH  12  13
ATOM     13  N   UNL     1     -12.815  26.424  25.966  0.00  0.00    -0.281 N 
ATOM     14  C   UNL     1     -13.990  27.101  26.247  0.00  0.00    +0.248 C 
ATOM     30  O   UNL     1     -15.100  26.737  25.888  0.00  0.00    -0.270 OA
ATOM     31  H   UNL     1     -11.949  26.932  26.152  0.00  0.00    +0.155 HD
BRANCH  14  15
ATOM     15  C   UNL     1     -13.921  28.374  27.027  0.00  0.00    +0.037 A 
ATOM     16  C   UNL     1     -13.054  28.499  28.202  0.00  0.00    +0.013 A 
ATOM     17  C   UNL     1     -13.019  29.733  28.947  0.00  0.00    +0.005 A 
ATOM     18  C   UNL     1     -13.853  30.853  28.517  0.00  0.00    -0.033 A 
ATOM     28  C   UNL     1     -14.700  30.703  27.345  0.00  0.00    +0.005 A 
ATOM     29  C   UNL     1     -14.737  29.495  26.613  0.00  0.00    +0.013 A 
BRANCH  18  19
ATOM     19  C   UNL     1     -13.895  32.199  29.264  0.00  0.00    +0.119 C 
BRANCH  19  20
ATOM     20  N   UNL     1     -15.162  32.986  29.184  0.00  0.00    -0.302 NA
ATOM     21  C   UNL     1     -15.117  34.034  28.068  0.00  0.00    +0.066 C 
ATOM     22  C   UNL     1     -16.458  34.833  27.983  0.00  0.00    -0.064 C 
ATOM     23  N   UNL     1     -16.742  35.493  29.334  0.00  0.00    +0.379 N 
ATOM     24  C   UNL     1     -17.972  36.292  29.241  0.00  0.00    -0.096 C 
ATOM     25  H   UNL     1     -15.900  36.190  29.552  0.00  0.00    -0.082 HD
ATOM     26  C   UNL     1     -16.785  34.458  30.450  0.00  0.00    -0.064 C 
ATOM     27  C   UNL     1     -15.459  33.650  30.506  0.00  0.00    +0.066 C 
ENDBRANCH  19  20
ENDBRANCH  18  19
ENDBRANCH  14  15
ENDBRANCH  12  13
TORSDOF 6
ENDMDL
MODEL 2
REMARK VINA RESULT:      -8.5      4.536     15.120
REMARK  Name = C:\Users\Docking\Desktop\test protocol\1iep_ligandH.pdb
REMARK  8 active torsions:
REMARK  status: ('A' for Active; 'I' for Inactive)
REMARK    1  A    between atoms: _5  and  _11
REMARK    2  A    between atoms: _19  and  _21
REMARK    3  A    between atoms: _22  and  _66
REMARK    4  A    between atoms: _27  and  _30
REMARK    5  A    between atoms: _32  and  _33
REMARK    6  A    between atoms: _38  and  _43
REMARK    7  A    between atoms: _43  and  _46
REMARK    8  A    between atoms: _53  and  _55
REMARK                            x       y       z     vdW  Elec       q    Type
REMARK                         _______ _______ _______ _____ _____    ______ ____
ROOT
ATOM     10  C   UNL     1     -12.289  34.568  32.751  0.00  0.00    +0.038 A 
ATOM     11  C   UNL     1     -12.792  33.428  32.074  0.00  0.00    +0.047 A 
ATOM     12  C   UNL     1     -12.156  32.928  30.866  0.00  0.00    +0.035 A 
ATOM     32  C   UNL     1     -11.006  33.613  30.375  0.00  0.00    +0.024 A 
ATOM     33  C   UNL     1     -10.481  34.774  31.050  0.00  0.00    +0.007 A 
ATOM     34  C   UNL     1     -11.106  35.273  32.241  0.00  0.00    -0.029 A 
ATOM     35  C   UNL     1     -10.504  36.526  32.920  0.00  0.00    +0.045 C 
ENDROOT
BRANCH  10   9
ATOM      4  C   UNL     1     -15.715  37.076  34.989  0.00  0.00    +0.077 A 
ATOM      5  C   UNL     1     -16.237  37.580  33.752  0.00  0.00    +0.048 A 
ATOM      6  C   UNL     1     -15.591  37.175  32.562  0.00  0.00    +0.116 A 
ATOM      7  N   UNL     1     -14.504  36.329  32.618  0.00  0.00    -0.223 NA
ATOM      8  C   UNL     1     -14.025  35.863  33.828  0.00  0.00    +0.220 A 
ATOM      9  N   UNL     1     -12.939  35.005  33.907  0.00  0.00    -0.283 N 
ATOM     36  H   UNL     1     -12.611  34.689  34.820  0.00  0.00    +0.155 HD
ATOM     37  N   UNL     1     -14.624  36.236  34.978  0.00  0.00    -0.214 NA
BRANCH   4   3
ATOM      1  C   UNL     1     -16.147  38.418  38.638  0.00  0.00    +0.020 A 
ATOM      2  C   UNL     1     -15.543  38.120  37.359  0.00  0.00    +0.013 A 
ATOM      3  C   UNL     1     -16.292  37.409  36.330  0.00  0.00    +0.019 A 
ATOM     38  C   UNL     1     -17.660  37.012  36.628  0.00  0.00    +0.120 A 
ATOM     39  N   UNL     1     -18.214  37.312  37.868  0.00  0.00    -0.263 NA
ATOM     40  C   UNL     1     -17.503  37.994  38.867  0.00  0.00    +0.111 A 
ENDBRANCH   4   3
ENDBRANCH  10   9
BRANCH  12  13
ATOM     13  N   UNL     1     -12.627  31.781  30.131  0.00  0.00    -0.281 N 
ATOM     14  C   UNL     1     -13.619  31.736  29.165  0.00  0.00    +0.248 C 
ATOM     30  O   UNL     1     -14.403  32.645  28.937  0.00  0.00    -0.270 OA
ATOM     31  H   UNL     1     -12.175  30.893  30.350  0.00  0.00    +0.155 HD
BRANCH  14  15
ATOM     15  C   UNL     1     -13.770  30.497  28.343  0.00  0.00    +0.037 A 
ATOM     16  C   UNL     1     -14.649  30.466  27.171  0.00  0.00    +0.013 A 
ATOM     17  C   UNL     1     -14.791  29.253  26.405  0.00  0.00    +0.005 A 
ATOM     18  C   UNL     1     -14.050  28.061  26.809  0.00  0.00    -0.033 A 
ATOM     28  C   UNL     1     -13.181  28.121  27.973  0.00  0.00    +0.005 A 
ATOM     29  C   UNL     1     -13.040  29.308  28.726  0.00  0.00    +0.013 A 
BRANCH  18  19
ATOM     19  C   UNL     1     -14.156  26.717  26.063  0.00  0.00    +0.119 C 
BRANCH  19  20
ATOM     20  N   UNL     1     -12.879  26.049  25.673  0.00  0.00    -0.302 NA
ATOM     21  C   UNL     1     -12.883  25.616  24.204  0.00  0.00    +0.066 C 
ATOM     22  C   UNL     1     -11.531  24.939  23.806  0.00  0.00    -0.064 C 
ATOM     23  N   UNL     1     -11.275  23.741  24.723  0.00  0.00    +0.379 N 
ATOM     24  C   UNL     1     -10.033  23.068  24.314  0.00  0.00    -0.096 C 
ATOM     25  H   UNL     1     -12.114  23.021  24.580  0.00  0.00    -0.082 HD
ATOM     26  C   UNL     1     -11.272  24.162  26.185  0.00  0.00    -0.064 C 
ATOM     27  C   UNL     1     -12.608  24.861  26.562  0.00  0.00    +0.066 C 
ENDBRANCH  19  20
ENDBRANCH  18  19
ENDBRANCH  14  15
ENDBRANCH  12  13
TORSDOF 6
ENDMDL
MODEL 3
REMARK VINA RESULT:      -8.3     13.155     16.419
REMARK  Name = C:\Users\Docking\Desktop\test protocol\1iep_ligandH.pdb
REMARK  8 active torsions:
REMARK  status: ('A' for Active; 'I' for Inactive)
REMARK    1  A    between atoms: _5  and  _11
REMARK    2  A    between atoms: _19  and  _21
REMARK    3  A    between atoms: _22  and  _66
REMARK    4  A    between atoms: _27  and  _30
REMARK    5  A    between atoms: _32  and  _33
REMARK    6  A    between atoms: _38  and  _43
REMARK    7  A    between atoms: _43  and  _46
REMARK    8  A    between atoms: _53  and  _55
REMARK                            x       y       z     vdW  Elec       q    Type
REMARK                         _______ _______ _______ _____ _____    ______ ____
ROOT
ATOM     10  C   UNL     1      -5.361  15.174  30.527  0.00  0.00    +0.038 A 
ATOM     11  C   UNL     1      -6.207  14.820  31.609  0.00  0.00    +0.047 A 
ATOM     12  C   UNL     1      -7.594  15.254  31.653  0.00  0.00    +0.035 A 
ATOM     32  C   UNL     1      -8.089  16.045  30.576  0.00  0.00    +0.024 A 
ATOM     33  C   UNL     1      -7.243  16.414  29.468  0.00  0.00    +0.007 A 
ATOM     34  C   UNL     1      -5.873  15.992  29.421  0.00  0.00    -0.029 A 
ATOM     35  C   UNL     1      -5.010  16.423  28.212  0.00  0.00    +0.045 C 
ENDROOT
BRANCH  10   9
ATOM      4  C   UNL     1      -2.055  11.711  30.181  0.00  0.00    +0.077 A 
ATOM      5  C   UNL     1      -3.052  10.697  29.993  0.00  0.00    +0.048 A 
ATOM      6  C   UNL     1      -4.404  11.106  29.999  0.00  0.00    +0.116 A 
ATOM      7  N   UNL     1      -4.724  12.435  30.180  0.00  0.00    -0.223 NA
ATOM      8  C   UNL     1      -3.738  13.387  30.360  0.00  0.00    +0.220 A 
ATOM      9  N   UNL     1      -4.037  14.730  30.536  0.00  0.00    -0.283 N 
ATOM     36  H   UNL     1      -3.281  15.401  30.674  0.00  0.00    +0.155 HD
ATOM     37  N   UNL     1      -2.439  13.021  30.360  0.00  0.00    -0.214 NA
BRANCH   4   3
ATOM      1  C   UNL     1       1.480  10.359  31.169  0.00  0.00    +0.020 A 
ATOM      2  C   UNL     1       0.055  10.593  31.200  0.00  0.00    +0.013 A 
ATOM      3  C   UNL     1      -0.583  11.436  30.196  0.00  0.00    +0.019 A 
ATOM     38  C   UNL     1       0.256  12.031  29.167  0.00  0.00    +0.120 A 
ATOM     39  N   UNL     1       1.626  11.788  29.164  0.00  0.00    -0.263 NA
ATOM     40  C   UNL     1       2.251  10.981  30.125  0.00  0.00    +0.111 A 
ENDBRANCH   4   3
ENDBRANCH  10   9
BRANCH  12  13
ATOM     13  N   UNL     1      -8.498  14.932  32.730  0.00  0.00    -0.281 N 
ATOM     14  C   UNL     1      -9.244  15.805  33.505  0.00  0.00    +0.248 C 
ATOM     30  O   UNL     1      -9.083  17.016  33.531  0.00  0.00    -0.270 OA
ATOM     31  H   UNL     1      -8.600  13.941  32.947  0.00  0.00    +0.155 HD
BRANCH  14  15
ATOM     15  C   UNL     1     -10.313  15.251  34.391  0.00  0.00    +0.037 A 
ATOM     16  C   UNL     1     -11.707  15.179  33.946  0.00  0.00    +0.013 A 
ATOM     17  C   UNL     1     -12.721  14.656  34.826  0.00  0.00    +0.005 A 
ATOM     18  C   UNL     1     -12.343  14.199  36.162  0.00  0.00    -0.033 A 
ATOM     28  C   UNL     1     -10.952  14.277  36.576  0.00  0.00    +0.005 A 
ATOM     29  C   UNL     1      -9.956  14.790  35.716  0.00  0.00    +0.013 A 
BRANCH  18  19
ATOM     19  C   UNL     1     -13.363  13.646  37.176  0.00  0.00    +0.119 C 
BRANCH  19  20
ATOM     20  N   UNL     1     -13.339  12.176  37.437  0.00  0.00    -0.302 NA
ATOM     21  C   UNL     1     -12.231  11.785  38.420  0.00  0.00    +0.066 C 
ATOM     22  C   UNL     1     -12.235  10.247  38.699  0.00  0.00    -0.064 C 
ATOM     23  N   UNL     1     -12.078   9.491  37.378  0.00  0.00    +0.379 N 
ATOM     24  C   UNL     1     -12.023   8.046  37.644  0.00  0.00    -0.096 C 
ATOM     25  H   UNL     1     -11.101   9.791  36.932  0.00  0.00    -0.082 HD
ATOM     26  C   UNL     1     -13.173   9.876  36.394  0.00  0.00    -0.064 C 
ATOM     27  C   UNL     1     -13.180  11.410  36.146  0.00  0.00    +0.066 C 
ENDBRANCH  19  20
ENDBRANCH  18  19
ENDBRANCH  14  15
ENDBRANCH  12  13
TORSDOF 6
ENDMDL
MODEL 4
REMARK VINA RESULT:      -8.2      8.609     13.443
REMARK  Name = C:\Users\Docking\Desktop\test protocol\1iep_ligandH.pdb
REMARK  8 active torsions:
REMARK  status: ('A' for Active; 'I' for Inactive)
REMARK    1  A    between atoms: _5  and  _11
REMARK    2  A    between atoms: _19  and  _21
REMARK    3  A    between atoms: _22  and  _66
REMARK    4  A    between atoms: _27  and  _30
REMARK    5  A    between atoms: _32  and  _33
REMARK    6  A    between atoms: _38  and  _43
REMARK    7  A    between atoms: _43  and  _46
REMARK    8  A    between atoms: _53  and  _55
REMARK                            x       y       z     vdW  Elec       q    Type
REMARK                         _______ _______ _______ _____ _____    ______ ____
ROOT
ATOM     10  C   UNL     1     -17.165  35.132  26.780  0.00  0.00    +0.038 A 
ATOM     11  C   UNL     1     -16.755  34.328  25.686  0.00  0.00    +0.047 A 
ATOM     12  C   UNL     1     -17.607  34.152  24.520  0.00  0.00    +0.035 A 
ATOM     32  C   UNL     1     -18.870  34.812  24.501  0.00  0.00    +0.024 A 
ATOM     33  C   UNL     1     -19.304  35.632  25.604  0.00  0.00    +0.007 A 
ATOM     34  C   UNL     1     -18.469  35.808  26.758  0.00  0.00    -0.029 A 
ATOM     35  C   UNL     1     -18.987  36.693  27.915  0.00  0.00    +0.045 C 
ENDROOT
BRANCH  10   9
ATOM      4  C   UNL     1     -13.954  33.372  29.882  0.00  0.00    +0.077 A 
ATOM      5  C   UNL     1     -14.009  32.066  29.290  0.00  0.00    +0.048 A 
ATOM      6  C   UNL     1     -14.882  31.888  28.193  0.00  0.00    +0.116 A 
ATOM      7  N   UNL     1     -15.639  32.943  27.732  0.00  0.00    -0.223 NA
ATOM      8  C   UNL     1     -15.562  34.189  28.327  0.00  0.00    +0.220 A 
ATOM      9  N   UNL     1     -16.308  35.267  27.874  0.00  0.00    -0.283 N 
ATOM     36  H   UNL     1     -16.229  36.168  28.345  0.00  0.00    +0.155 HD
ATOM     37  N   UNL     1     -14.737  34.385  29.376  0.00  0.00    -0.214 NA
BRANCH   4   3
ATOM      1  C   UNL     1     -10.982  33.450  32.424  0.00  0.00    +0.020 A 
ATOM      2  C   UNL     1     -11.790  33.078  31.286  0.00  0.00    +0.013 A 
ATOM      3  C   UNL     1     -13.077  33.718  31.045  0.00  0.00    +0.019 A 
ATOM     38  C   UNL     1     -13.520  34.740  31.982  0.00  0.00    +0.120 A 
ATOM     39  N   UNL     1     -12.721  35.076  33.070  0.00  0.00    -0.263 NA
ATOM     40  C   UNL     1     -11.482  34.466  33.313  0.00  0.00    +0.111 A 
ENDBRANCH   4   3
ENDBRANCH  10   9
BRANCH  12  13
ATOM     13  N   UNL     1     -17.247  33.341  23.384  0.00  0.00    -0.281 N 
ATOM     14  C   UNL     1     -17.381  31.970  23.239  0.00  0.00    +0.248 C 
ATOM     30  O   UNL     1     -17.635  31.200  24.153  0.00  0.00    -0.270 OA
ATOM     31  H   UNL     1     -16.844  33.839  22.589  0.00  0.00    +0.155 HD
BRANCH  14  15
ATOM     15  C   UNL     1     -17.190  31.365  21.886  0.00  0.00    +0.037 A 
ATOM     16  C   UNL     1     -17.938  30.174  21.474  0.00  0.00    +0.013 A 
ATOM     17  C   UNL     1     -17.723  29.601  20.169  0.00  0.00    +0.005 A 
ATOM     18  C   UNL     1     -16.756  30.219  19.265  0.00  0.00    -0.033 A 
ATOM     28  C   UNL     1     -16.031  31.402  19.698  0.00  0.00    +0.005 A 
ATOM     29  C   UNL     1     -16.238  31.967  20.976  0.00  0.00    +0.013 A 
BRANCH  18  19
ATOM     19  C   UNL     1     -16.447  29.662  17.863  0.00  0.00    +0.119 C 
BRANCH  19  20
ATOM     20  N   UNL     1     -15.196  28.860  17.706  0.00  0.00    -0.302 NA
ATOM     21  C   UNL     1     -14.685  28.870  16.263  0.00  0.00    +0.066 C 
ATOM     22  C   UNL     1     -13.364  28.046  16.121  0.00  0.00    -0.064 C 
ATOM     23  N   UNL     1     -13.607  26.613  16.599  0.00  0.00    +0.379 N 
ATOM     24  C   UNL     1     -12.384  25.820  16.413  0.00  0.00    -0.096 C 
ATOM     25  H   UNL     1     -14.400  26.171  15.952  0.00  0.00    -0.082 HD
ATOM     26  C   UNL     1     -14.118  26.594  18.033  0.00  0.00    -0.064 C 
ATOM     27  C   UNL     1     -15.415  27.441  18.169  0.00  0.00    +0.066 C 
ENDBRANCH  19  20
ENDBRANCH  18  19
ENDBRANCH  14  15
ENDBRANCH  12  13
TORSDOF 6
ENDMDL
MODEL 5
REMARK VINA RESULT:      -8.1      2.047      2.743
REMARK  Name = C:\Users\Docking\Desktop\test protocol\1iep_ligandH.pdb
REMARK  8 active torsions:
REMARK  status: ('A' for Active; 'I' for Inactive)
REMARK    1  A    between atoms: _5  and  _11
REMARK    2  A    between atoms: _19  and  _21
REMARK    3  A    between atoms: _22  and  _66
REMARK    4  A    between atoms: _27  and  _30
REMARK    5  A    between atoms: _32  and  _33
REMARK    6  A    between atoms: _38  and  _43
REMARK    7  A    between atoms: _43  and  _46
REMARK    8  A    between atoms: _53  and  _55
REMARK                            x       y       z     vdW  Elec       q    Type
REMARK                         _______ _______ _______ _____ _____    ______ ____
ROOT
ATOM     10  C   UNL     1     -11.630  23.080  25.911  0.00  0.00    +0.038 A 
ATOM     11  C   UNL     1     -11.662  24.401  26.426  0.00  0.00    +0.047 A 
ATOM     12  C   UNL     1     -12.746  25.312  26.094  0.00  0.00    +0.035 A 
ATOM     32  C   UNL     1     -13.784  24.844  25.236  0.00  0.00    +0.024 A 
ATOM     33  C   UNL     1     -13.767  23.504  24.703  0.00  0.00    +0.007 A 
ATOM     34  C   UNL     1     -12.698  22.602  25.025  0.00  0.00    -0.029 A 
ATOM     35  C   UNL     1     -12.728  21.179  24.419  0.00  0.00    +0.045 C 
ENDROOT
BRANCH  10   9
ATOM      4  C   UNL     1      -7.312  21.154  25.086  0.00  0.00    +0.077 A 
ATOM      5  C   UNL     1      -7.177  21.845  23.836  0.00  0.00    +0.048 A 
ATOM      6  C   UNL     1      -8.245  22.680  23.438  0.00  0.00    +0.116 A 
ATOM      7  N   UNL     1      -9.359  22.808  24.239  0.00  0.00    -0.223 NA
ATOM      8  C   UNL     1      -9.458  22.127  25.438  0.00  0.00    +0.220 A 
ATOM      9  N   UNL     1     -10.566  22.247  26.263  0.00  0.00    -0.283 N 
ATOM     36  H   UNL     1     -10.603  21.722  27.136  0.00  0.00    +0.155 HD
ATOM     37  N   UNL     1      -8.452  21.322  25.840  0.00  0.00    -0.214 NA
BRANCH   4   3
ATOM      1  C   UNL     1      -5.142  19.029  27.551  0.00  0.00    +0.020 A 
ATOM      2  C   UNL     1      -6.169  19.920  27.064  0.00  0.00    +0.013 A 
ATOM      3  C   UNL     1      -6.268  20.238  25.645  0.00  0.00    +0.019 A 
ATOM     38  C   UNL     1      -5.304  19.632  24.738  0.00  0.00    +0.120 A 
ATOM     39  N   UNL     1      -4.325  18.778  25.237  0.00  0.00    -0.263 NA
ATOM     40  C   UNL     1      -4.220  18.466  26.601  0.00  0.00    +0.111 A 
ENDBRANCH   4   3
ENDBRANCH  10   9
BRANCH  12  13
ATOM     13  N   UNL     1     -12.828  26.667  26.581  0.00  0.00    -0.281 N 
ATOM     14  C   UNL     1     -13.891  27.548  26.473  0.00  0.00    +0.248 C 
ATOM     30  O   UNL     1     -14.861  27.376  25.750  0.00  0.00    -0.270 OA
ATOM     31  H   UNL     1     -12.001  27.020  27.063  0.00  0.00    +0.155 HD
BRANCH  14  15
ATOM     15  C   UNL     1     -13.867  28.811  27.272  0.00  0.00    +0.037 A 
ATOM     16  C   UNL     1     -12.946  28.979  28.400  0.00  0.00    +0.013 A 
ATOM     17  C   UNL     1     -12.955  30.200  29.165  0.00  0.00    +0.005 A 
ATOM     18  C   UNL     1     -13.888  31.265  28.804  0.00  0.00    -0.033 A 
ATOM     28  C   UNL     1     -14.787  31.074  27.678  0.00  0.00    +0.005 A 
ATOM     29  C   UNL     1     -14.782  29.877  26.926  0.00  0.00    +0.013 A 
BRANCH  18  19
ATOM     19  C   UNL     1     -13.982  32.593  29.578  0.00  0.00    +0.119 C 
BRANCH  19  20
ATOM     20  N   UNL     1     -12.736  33.093  30.232  0.00  0.00    -0.302 NA
ATOM     21  C   UNL     1     -12.619  32.619  31.684  0.00  0.00    +0.066 C 
ATOM     22  C   UNL     1     -11.299  33.133  32.345  0.00  0.00    -0.064 C 
ATOM     23  N   UNL     1     -11.253  34.660  32.268  0.00  0.00    +0.379 N 
ATOM     24  C   UNL     1     -10.040  35.149  32.940  0.00  0.00    -0.096 C 
ATOM     25  H   UNL     1     -12.133  35.053  32.828  0.00  0.00    -0.082 HD
ATOM     26  C   UNL     1     -11.371  35.139  30.828  0.00  0.00    -0.064 C 
ATOM     27  C   UNL     1     -12.672  34.599  30.171  0.00  0.00    +0.066 C 
ENDBRANCH  19  20
ENDBRANCH  18  19
ENDBRANCH  14  15
ENDBRANCH  12  13
TORSDOF 6
ENDMDL
