MODEL 1
REMARK VINA RESULT:      -8.4      0.000      0.000
REMARK  Name = C:\Users\Docking\Desktop\test protocol\1iep_ligandH.pdb
REMARK  8 active torsions:
REMARK  status: ('A' for Active; 'I' for Inactive)
REMARK    1  A    between atoms: _5  and  _11
REMARK    2  A    between atoms: _19  and  _21
REMARK    3  A    between atoms: _22  and  _66
REMARK    4  A    between atoms: _27  and  _30
REMARK    5  A    between atoms: _32  and  _33
REMARK    6  A    between atoms: _38  and  _43
REMARK    7  A    between atoms: _43  and  _46
REMARK    8  A    between atoms: _53  and  _55
REMARK                            x       y       z     vdW  Elec       q    Type
REMARK                         _______ _______ _______ _____ _____    ______ ____
ROOT
ATOM     10  C   UNL     1      -9.927  23.523  25.279  0.00  0.00    +0.038 A 
ATOM     11  C   UNL     1      -9.930  22.329  26.044  0.00  0.00    +0.047 A 
ATOM     12  C   UNL     1      -9.469  21.071  25.477  0.00  0.00    +0.035 A 
ATOM     32  C   UNL     1      -9.009  21.066  24.129  0.00  0.00    +0.024 A 
ATOM     33  C   UNL     1      -8.999  22.271  23.336  0.00  0.00    +0.007 A 
ATOM     34  C   UNL     1      -9.455  23.514  23.889  0.00  0.00    -0.029 A 
ATOM     35  C   UNL     1      -9.429  24.773  22.992  0.00  0.00    +0.045 C 
ENDROOT
BRANCH  10   9
ATOM      4  C   UNL     1     -13.376  26.713  26.263  0.00  0.00    +0.077 A 
ATOM      5  C   UNL     1     -14.350  25.981  25.506  0.00  0.00    +0.048 A 
ATOM      6  C   UNL     1     -13.922  24.792  24.874  0.00  0.00    +0.116 A 
ATOM      7  N   UNL     1     -12.614  24.376  24.995  0.00  0.00    -0.223 NA
ATOM      8  C   UNL     1     -11.699  25.107  25.731  0.00  0.00    +0.220 A 
ATOM      9  N   UNL     1     -10.380  24.703  25.874  0.00  0.00    -0.283 N 
ATOM     36  H   UNL     1      -9.734  25.273  26.419  0.00  0.00    +0.155 HD
ATOM     37  N   UNL     1     -12.083  26.246  26.344  0.00  0.00    -0.214 NA
BRANCH   4   3
ATOM      1  C   UNL     1     -13.292  29.636  28.861  0.00  0.00    +0.020 A 
ATOM      2  C   UNL     1     -12.963  28.397  28.195  0.00  0.00    +0.013 A 
ATOM      3  C   UNL     1     -13.676  27.985  26.992  0.00  0.00    +0.019 A 
ATOM     38  C   UNL     1     -14.724  28.858  26.484  0.00  0.00    +0.120 A 
ATOM     39  N   UNL     1     -15.020  30.045  27.147  0.00  0.00    -0.263 NA
ATOM     40  C   UNL     1     -14.342  30.450  28.307  0.00  0.00    +0.111 A 
ENDBRANCH   4   3
ENDBRANCH  10   9
BRANCH  12  13
ATOM     13  N   UNL     1      -9.457  19.825  26.203  0.00  0.00    -0.281 N 
ATOM     14  C   UNL     1      -8.369  19.018  26.493  0.00  0.00    +0.248 C 
ATOM     30  O   UNL     1      -7.264  19.140  25.984  0.00  0.00    -0.270 OA
ATOM     31  H   UNL     1     -10.361  19.498  26.545  0.00  0.00    +0.155 HD
BRANCH  14  15
ATOM     15  C   UNL     1      -8.535  17.908  27.479  0.00  0.00    +0.037 A 
ATOM     16  C   UNL     1      -7.392  17.381  28.230  0.00  0.00    +0.013 A 
ATOM     17  C   UNL     1      -7.577  16.298  29.163  0.00  0.00    +0.005 A 
ATOM     18  C   UNL     1      -8.912  15.735  29.350  0.00  0.00    -0.033 A 
ATOM     28  C   UNL     1     -10.029  16.280  28.596  0.00  0.00    +0.005 A 
ATOM     29  C   UNL     1      -9.851  17.341  27.680  0.00  0.00    +0.013 A 
BRANCH  18  19
ATOM     19  C   UNL     1      -9.199  14.564  30.309  0.00  0.00    +0.119 C 
BRANCH  19  20
ATOM     20  N   UNL     1      -9.751  14.901  31.655  0.00  0.00    -0.302 NA
ATOM     21  C   UNL     1      -8.999  14.185  32.780  0.00  0.00    +0.066 C 
ATOM     22  C   UNL     1      -9.575  14.567  34.183  0.00  0.00    -0.064 C 
ATOM     23  N   UNL     1     -11.066  14.229  34.228  0.00  0.00    +0.379 N 
ATOM     24  C   UNL     1     -11.598  14.533  35.564  0.00  0.00    -0.096 C 
ATOM     25  H   UNL     1     -11.169  13.131  34.064  0.00  0.00    -0.082 HD
ATOM     26  C   UNL     1     -11.821  14.935  33.110  0.00  0.00    -0.064 C 
ATOM     27  C   UNL     1     -11.222  14.572  31.723  0.00  0.00    +0.066 C 
ENDBRANCH  19  20
ENDBRANCH  18  19
ENDBRANCH  14  15
ENDBRANCH  12  13
TORSDOF 6
ENDMDL
MODEL 2
REMARK VINA RESULT:      -8.1      2.424      3.319
REMARK  Name = C:\Users\Docking\Desktop\test protocol\1iep_ligandH.pdb
REMARK  8 active torsions:
REMARK  status: ('A' for Active; 'I' for Inactive)
REMARK    1  A    between atoms: _5  and  _11
REMARK    2  A    between atoms: _19  and  _21
REMARK    3  A    between atoms: _22  and  _66
REMARK    4  A    between atoms: _27  and  _30
REMARK    5  A    between atoms: _32  and  _33
REMARK    6  A    between atoms: _38  and  _43
REMARK    7  A    between atoms: _43  and  _46
REMARK    8  A    between atoms: _53  and  _55
REMARK                            x       y       z     vdW  Elec       q    Type
REMARK                         _______ _______ _______ _____ _____    ______ ____
ROOT
ATOM     10  C   UNL     1     -10.120  23.747  25.271  0.00  0.00    +0.038 A 
ATOM     11  C   UNL     1     -10.045  22.592  26.090  0.00  0.00    +0.047 A 
ATOM     12  C   UNL     1      -9.592  21.318  25.555  0.00  0.00    +0.035 A 
ATOM     32  C   UNL     1      -9.221  21.256  24.180  0.00  0.00    +0.024 A 
ATOM     33  C   UNL     1      -9.292  22.420  23.332  0.00  0.00    +0.007 A 
ATOM     34  C   UNL     1      -9.741  23.680  23.854  0.00  0.00    -0.029 A 
ATOM     35  C   UNL     1      -9.803  24.893  22.898  0.00  0.00    +0.045 C 
ENDROOT
BRANCH  10   9
ATOM      4  C   UNL     1     -13.559  26.944  26.265  0.00  0.00    +0.077 A 
ATOM      5  C   UNL     1     -14.555  26.176  25.574  0.00  0.00    +0.048 A 
ATOM      6  C   UNL     1     -14.139  24.968  24.971  0.00  0.00    +0.116 A 
ATOM      7  N   UNL     1     -12.824  24.568  25.058  0.00  0.00    -0.223 NA
ATOM      8  C   UNL     1     -11.888  25.333  25.730  0.00  0.00    +0.220 A 
ATOM      9  N   UNL     1     -10.562  24.945  25.837  0.00  0.00    -0.283 N 
ATOM     36  H   UNL     1      -9.901  25.541  26.335  0.00  0.00    +0.155 HD
ATOM     37  N   UNL     1     -12.260  26.491  26.314  0.00  0.00    -0.214 NA
BRANCH   4   3
ATOM      1  C   UNL     1     -15.061  30.441  27.171  0.00  0.00    +0.020 A 
ATOM      2  C   UNL     1     -14.823  29.202  26.466  0.00  0.00    +0.013 A 
ATOM      3  C   UNL     1     -13.844  28.241  26.956  0.00  0.00    +0.019 A 
ATOM     38  C   UNL     1     -13.116  28.566  28.174  0.00  0.00    +0.120 A 
ATOM     39  N   UNL     1     -13.364  29.767  28.831  0.00  0.00    -0.263 NA
ATOM     40  C   UNL     1     -14.303  30.700  28.367  0.00  0.00    +0.111 A 
ENDBRANCH   4   3
ENDBRANCH  10   9
BRANCH  12  13
ATOM     13  N   UNL     1      -9.502  20.110  26.336  0.00  0.00    -0.281 N 
ATOM     14  C   UNL     1     -10.267  18.961  26.219  0.00  0.00    +0.248 C 
ATOM     30  O   UNL     1     -11.294  18.878  25.561  0.00  0.00    -0.270 OA
ATOM     31  H   UNL     1      -8.788  20.100  27.065  0.00  0.00    +0.155 HD
BRANCH  14  15
ATOM     15  C   UNL     1      -9.839  17.730  26.951  0.00  0.00    +0.037 A 
ATOM     16  C   UNL     1     -10.538  17.281  28.158  0.00  0.00    +0.013 A 
ATOM     17  C   UNL     1     -10.094  16.100  28.854  0.00  0.00    +0.005 A 
ATOM     18  C   UNL     1      -8.943  15.358  28.344  0.00  0.00    -0.033 A 
ATOM     28  C   UNL     1      -8.271  15.823  27.142  0.00  0.00    +0.005 A 
ATOM     29  C   UNL     1      -8.703  16.981  26.457  0.00  0.00    +0.013 A 
BRANCH  18  19
ATOM     19  C   UNL     1      -8.386  14.099  29.035  0.00  0.00    +0.119 C 
BRANCH  19  20
ATOM     20  N   UNL     1      -6.906  14.016  29.215  0.00  0.00    -0.302 NA
ATOM     21  C   UNL     1      -6.356  12.643  28.821  0.00  0.00    +0.066 C 
ATOM     22  C   UNL     1      -4.803  12.580  28.994  0.00  0.00    -0.064 C 
ATOM     23  N   UNL     1      -4.441  12.913  30.442  0.00  0.00    +0.379 N 
ATOM     24  C   UNL     1      -2.986  12.799  30.623  0.00  0.00    -0.096 C 
ATOM     25  H   UNL     1      -4.924  12.150  31.096  0.00  0.00    -0.082 HD
ATOM     26  C   UNL     1      -4.987  14.276  30.844  0.00  0.00    -0.064 C 
ATOM     27  C   UNL     1      -6.527  14.337  30.640  0.00  0.00    +0.066 C 
ENDBRANCH  19  20
ENDBRANCH  18  19
ENDBRANCH  14  15
ENDBRANCH  12  13
TORSDOF 6
ENDMDL
MODEL 3
REMARK VINA RESULT:      -7.9      4.519     14.232
REMARK  Name = C:\Users\Docking\Desktop\test protocol\1iep_ligandH.pdb
REMARK  8 active torsions:
REMARK  status: ('A' for Active; 'I' for Inactive)
REMARK    1  A    between atoms: _5  and  _11
REMARK    2  A    between atoms: _19  and  _21
REMARK    3  A    between atoms: _22  and  _66
REMARK    4  A    between atoms: _27  and  _30
REMARK    5  A    between atoms: _32  and  _33
REMARK    6  A    between atoms: _38  and  _43
REMARK    7  A    between atoms: _43  and  _46
REMARK    8  A    between atoms: _53  and  _55
REMARK                            x       y       z     vdW  Elec       q    Type
REMARK                         _______ _______ _______ _____ _____    ______ ____
ROOT
ATOM     10  C   UNL     1      -7.464  14.681  29.862  0.00  0.00    +0.038 A 
ATOM     11  C   UNL     1      -7.385  15.708  28.886  0.00  0.00    +0.047 A 
ATOM     12  C   UNL     1      -7.992  17.010  29.114  0.00  0.00    +0.035 A 
ATOM     32  C   UNL     1      -8.670  17.233  30.347  0.00  0.00    +0.024 A 
ATOM     33  C   UNL     1      -8.761  16.200  31.349  0.00  0.00    +0.007 A 
ATOM     34  C   UNL     1      -8.167  14.913  31.130  0.00  0.00    -0.029 A 
ATOM     35  C   UNL     1      -8.301  13.841  32.236  0.00  0.00    +0.045 C 
ENDROOT
BRANCH  10   9
ATOM      4  C   UNL     1      -3.714  11.687  29.967  0.00  0.00    +0.077 A 
ATOM      5  C   UNL     1      -2.873  12.669  30.589  0.00  0.00    +0.048 A 
ATOM      6  C   UNL     1      -3.442  13.934  30.859  0.00  0.00    +0.116 A 
ATOM      7  N   UNL     1      -4.755  14.187  30.527  0.00  0.00    -0.223 NA
ATOM      8  C   UNL     1      -5.538  13.219  29.926  0.00  0.00    +0.220 A 
ATOM      9  N   UNL     1      -6.863  13.450  29.591  0.00  0.00    -0.283 N 
ATOM     36  H   UNL     1      -7.405  12.712  29.142  0.00  0.00    +0.155 HD
ATOM     37  N   UNL     1      -5.018  12.004  29.657  0.00  0.00    -0.214 NA
BRANCH   4   3
ATOM      1  C   UNL     1      -1.473   8.549  29.312  0.00  0.00    +0.020 A 
ATOM      2  C   UNL     1      -1.859   9.898  29.655  0.00  0.00    +0.013 A 
ATOM      3  C   UNL     1      -3.259  10.304  29.621  0.00  0.00    +0.019 A 
ATOM     38  C   UNL     1      -4.251   9.311  29.234  0.00  0.00    +0.120 A 
ATOM     39  N   UNL     1      -3.849   8.020  28.908  0.00  0.00    -0.263 NA
ATOM     40  C   UNL     1      -2.505   7.619  28.936  0.00  0.00    +0.111 A 
ENDBRANCH   4   3
ENDBRANCH  10   9
BRANCH  12  13
ATOM     13  N   UNL     1      -7.951  18.088  28.157  0.00  0.00    -0.281 N 
ATOM     14  C   UNL     1      -6.847  18.592  27.489  0.00  0.00    +0.248 C 
ATOM     30  O   UNL     1      -5.688  18.331  27.774  0.00  0.00    -0.270 OA
ATOM     31  H   UNL     1      -8.844  18.534  27.947  0.00  0.00    +0.155 HD
BRANCH  14  15
ATOM     15  C   UNL     1      -7.062  19.533  26.348  0.00  0.00    +0.037 A 
ATOM     16  C   UNL     1      -5.971  19.878  25.432  0.00  0.00    +0.013 A 
ATOM     17  C   UNL     1      -6.201  20.802  24.349  0.00  0.00    +0.005 A 
ATOM     18  C   UNL     1      -7.528  21.387  24.177  0.00  0.00    -0.033 A 
ATOM     28  C   UNL     1      -8.593  21.024  25.097  0.00  0.00    +0.005 A 
ATOM     29  C   UNL     1      -8.372  20.119  26.160  0.00  0.00    +0.013 A 
BRANCH  18  19
ATOM     19  C   UNL     1      -7.858  22.398  23.062  0.00  0.00    +0.119 C 
BRANCH  19  20
ATOM     20  N   UNL     1      -9.230  22.987  23.058  0.00  0.00    -0.302 NA
ATOM     21  C   UNL     1     -10.076  22.467  21.892  0.00  0.00    +0.066 C 
ATOM     22  C   UNL     1     -11.515  23.076  21.916  0.00  0.00    -0.064 C 
ATOM     23  N   UNL     1     -11.420  24.602  21.877  0.00  0.00    +0.379 N 
ATOM     24  C   UNL     1     -12.773  25.177  21.841  0.00  0.00    -0.096 C 
ATOM     25  H   UNL     1     -10.907  24.885  20.929  0.00  0.00    -0.082 HD
ATOM     26  C   UNL     1     -10.579  25.128  23.031  0.00  0.00    -0.064 C 
ATOM     27  C   UNL     1      -9.160  24.494  23.016  0.00  0.00    +0.066 C 
ENDBRANCH  19  20
ENDBRANCH  18  19
ENDBRANCH  14  15
ENDBRANCH  12  13
TORSDOF 6
ENDMDL
MODEL 4
REMARK VINA RESULT:      -7.8      2.301      3.374
REMARK  Name = C:\Users\Docking\Desktop\test protocol\1iep_ligandH.pdb
REMARK  8 active torsions:
REMARK  status: ('A' for Active; 'I' for Inactive)
REMARK    1  A    between atoms: _5  and  _11
REMARK    2  A    between atoms: _19  and  _21
REMARK    3  A    between atoms: _22  and  _66
REMARK    4  A    between atoms: _27  and  _30
REMARK    5  A    between atoms: _32  and  _33
REMARK    6  A    between atoms: _38  and  _43
REMARK    7  A    between atoms: _43  and  _46
REMARK    8  A    between atoms: _53  and  _55
REMARK                            x       y       z     vdW  Elec       q    Type
REMARK                         _______ _______ _______ _____ _____    ______ ____
ROOT
ATOM     10  C   UNL     1      -9.858  23.600  24.965  0.00  0.00    +0.038 A 
ATOM     11  C   UNL     1      -9.642  22.420  25.723  0.00  0.00    +0.047 A 
ATOM     12  C   UNL     1      -9.150  21.203  25.097  0.00  0.00    +0.035 A 
ATOM     32  C   UNL     1      -8.885  21.223  23.696  0.00  0.00    +0.024 A 
ATOM     33  C   UNL     1      -9.100  22.413  22.910  0.00  0.00    +0.007 A 
ATOM     34  C   UNL     1      -9.588  23.616  23.522  0.00  0.00    -0.029 A 
ATOM     35  C   UNL     1      -9.806  24.860  22.630  0.00  0.00    +0.045 C 
ENDROOT
BRANCH  10   9
ATOM      4  C   UNL     1     -13.384  26.612  26.201  0.00  0.00    +0.077 A 
ATOM      5  C   UNL     1     -14.361  25.865  25.462  0.00  0.00    +0.048 A 
ATOM      6  C   UNL     1     -13.914  24.716  24.772  0.00  0.00    +0.116 A 
ATOM      7  N   UNL     1     -12.586  24.350  24.824  0.00  0.00    -0.223 NA
ATOM      8  C   UNL     1     -11.670  25.094  25.545  0.00  0.00    +0.220 A 
ATOM      9  N   UNL     1     -10.331  24.740  25.618  0.00  0.00    -0.283 N 
ATOM     36  H   UNL     1      -9.685  25.319  26.154  0.00  0.00    +0.155 HD
ATOM     37  N   UNL     1     -12.072  26.196  26.211  0.00  0.00    -0.214 NA
BRANCH   4   3
ATOM      1  C   UNL     1     -14.878  30.058  27.293  0.00  0.00    +0.020 A 
ATOM      2  C   UNL     1     -14.603  28.885  26.497  0.00  0.00    +0.013 A 
ATOM      3  C   UNL     1     -13.703  27.847  26.984  0.00  0.00    +0.019 A 
ATOM     38  C   UNL     1     -13.093  28.029  28.293  0.00  0.00    +0.120 A 
ATOM     39  N   UNL     1     -13.375  29.171  29.037  0.00  0.00    -0.263 NA
ATOM     40  C   UNL     1     -14.238  30.176  28.577  0.00  0.00    +0.111 A 
ENDBRANCH   4   3
ENDBRANCH  10   9
BRANCH  12  13
ATOM     13  N   UNL     1      -8.920  19.973  25.814  0.00  0.00    -0.281 N 
ATOM     14  C   UNL     1      -7.710  19.449  26.238  0.00  0.00    +0.248 C 
ATOM     30  O   UNL     1      -6.615  19.856  25.877  0.00  0.00    -0.270 OA
ATOM     31  H   UNL     1      -9.749  19.422  26.035  0.00  0.00    +0.155 HD
BRANCH  14  15
ATOM     15  C   UNL     1      -7.716  18.297  27.191  0.00  0.00    +0.037 A 
ATOM     16  C   UNL     1      -8.956  17.589  27.518  0.00  0.00    +0.013 A 
ATOM     17  C   UNL     1      -8.938  16.492  28.453  0.00  0.00    +0.005 A 
ATOM     18  C   UNL     1      -7.673  16.096  29.067  0.00  0.00    -0.033 A 
ATOM     28  C   UNL     1      -6.456  16.813  28.720  0.00  0.00    +0.005 A 
ATOM     29  C   UNL     1      -6.471  17.889  27.805  0.00  0.00    +0.013 A 
BRANCH  18  19
ATOM     19  C   UNL     1      -7.562  14.951  30.091  0.00  0.00    +0.119 C 
BRANCH  19  20
ATOM     20  N   UNL     1      -6.500  13.927  29.861  0.00  0.00    -0.302 NA
ATOM     21  C   UNL     1      -6.539  13.370  28.435  0.00  0.00    +0.066 C 
ATOM     22  C   UNL     1      -5.407  12.317  28.204  0.00  0.00    -0.064 C 
ATOM     23  N   UNL     1      -5.545  11.190  29.230  0.00  0.00    +0.379 N 
ATOM     24  C   UNL     1      -4.517  10.170  28.979  0.00  0.00    -0.096 C 
ATOM     25  H   UNL     1      -6.541  10.713  29.075  0.00  0.00    -0.082 HD
ATOM     26  C   UNL     1      -5.510  11.736  30.650  0.00  0.00    -0.064 C 
ATOM     27  C   UNL     1      -6.621  12.803  30.860  0.00  0.00    +0.066 C 
ENDBRANCH  19  20
ENDBRANCH  18  19
ENDBRANCH  14  15
ENDBRANCH  12  13
TORSDOF 6
ENDMDL
MODEL 5
REMARK VINA RESULT:      -7.5      4.391     13.981
REMARK  Name = C:\Users\Docking\Desktop\test protocol\1iep_ligandH.pdb
REMARK  8 active torsions:
REMARK  status: ('A' for Active; 'I' for Inactive)
REMARK    1  A    between atoms: _5  and  _11
REMARK    2  A    between atoms: _19  and  _21
REMARK    3  A    between atoms: _22  and  _66
REMARK    4  A    between atoms: _27  and  _30
REMARK    5  A    between atoms: _32  and  _33
REMARK    6  A    between atoms: _38  and  _43
REMARK    7  A    between atoms: _43  and  _46
REMARK    8  A    between atoms: _53  and  _55
REMARK                            x       y       z     vdW  Elec       q    Type
REMARK                         _______ _______ _______ _____ _____    ______ ____
ROOT
ATOM     10  C   UNL     1      -7.637  14.537  30.126  0.00  0.00    +0.038 A 
ATOM     11  C   UNL     1      -7.794  15.516  29.112  0.00  0.00    +0.047 A 
ATOM     12  C   UNL     1      -8.444  16.788  29.388  0.00  0.00    +0.035 A 
ATOM     32  C   UNL     1      -8.921  17.031  30.709  0.00  0.00    +0.024 A 
ATOM     33  C   UNL     1      -8.771  16.046  31.752  0.00  0.00    +0.007 A 
ATOM     34  C   UNL     1      -8.132  14.789  31.485  0.00  0.00    -0.029 A 
ATOM     35  C   UNL     1      -8.004  13.768  32.640  0.00  0.00    +0.045 C 
ENDROOT
BRANCH  10   9
ATOM      4  C   UNL     1      -3.771  11.698  29.970  0.00  0.00    +0.077 A 
ATOM      5  C   UNL     1      -2.933  12.707  30.551  0.00  0.00    +0.048 A 
ATOM      6  C   UNL     1      -3.534  13.946  30.869  0.00  0.00    +0.116 A 
ATOM      7  N   UNL     1      -4.874  14.148  30.620  0.00  0.00    -0.223 NA
ATOM      8  C   UNL     1      -5.654  13.154  30.057  0.00  0.00    +0.220 A 
ATOM      9  N   UNL     1      -7.005  13.334  29.806  0.00  0.00    -0.283 N 
ATOM     36  H   UNL     1      -7.544  12.578  29.383  0.00  0.00    +0.155 HD
ATOM     37  N   UNL     1      -5.103  11.963  29.743  0.00  0.00    -0.214 NA
BRANCH   4   3
ATOM      1  C   UNL     1      -3.658   7.947  28.866  0.00  0.00    +0.020 A 
ATOM      2  C   UNL     1      -4.181   9.242  29.234  0.00  0.00    +0.013 A 
ATOM      3  C   UNL     1      -3.283  10.337  29.582  0.00  0.00    +0.019 A 
ATOM     38  C   UNL     1      -1.850  10.085  29.547  0.00  0.00    +0.120 A 
ATOM     39  N   UNL     1      -1.376   8.826  29.190  0.00  0.00    -0.263 NA
ATOM     40  C   UNL     1      -2.230   7.765  28.855  0.00  0.00    +0.111 A 
ENDBRANCH   4   3
ENDBRANCH  10   9
BRANCH  12  13
ATOM     13  N   UNL     1      -8.639  17.817  28.396  0.00  0.00    -0.281 N 
ATOM     14  C   UNL     1      -8.770  17.665  27.025  0.00  0.00    +0.248 C 
ATOM     30  O   UNL     1      -8.524  16.633  26.418  0.00  0.00    -0.270 OA
ATOM     31  H   UNL     1      -8.686  18.773  28.748  0.00  0.00    +0.155 HD
BRANCH  14  15
ATOM     15  C   UNL     1      -9.226  18.831  26.210  0.00  0.00    +0.037 A 
ATOM     16  C   UNL     1     -10.460  18.772  25.423  0.00  0.00    +0.013 A 
ATOM     17  C   UNL     1     -10.868  19.906  24.631  0.00  0.00    +0.005 A 
ATOM     18  C   UNL     1     -10.040  21.109  24.624  0.00  0.00    -0.033 A 
ATOM     28  C   UNL     1      -8.823  21.143  25.419  0.00  0.00    +0.005 A 
ATOM     29  C   UNL     1      -8.420  20.033  26.195  0.00  0.00    +0.013 A 
BRANCH  18  19
ATOM     19  C   UNL     1     -10.387  22.358  23.792  0.00  0.00    +0.119 C 
BRANCH  19  20
ATOM     20  N   UNL     1     -11.353  23.330  24.388  0.00  0.00    -0.302 NA
ATOM     21  C   UNL     1     -11.086  24.764  23.921  0.00  0.00    +0.066 C 
ATOM     22  C   UNL     1     -12.120  25.763  24.535  0.00  0.00    -0.064 C 
ATOM     23  N   UNL     1     -12.068  25.672  26.061  0.00  0.00    +0.379 N 
ATOM     24  C   UNL     1     -12.997  26.652  26.643  0.00  0.00    -0.096 C 
ATOM     25  H   UNL     1     -11.037  25.951  26.382  0.00  0.00    -0.082 HD
ATOM     26  C   UNL     1     -12.329  24.249  26.534  0.00  0.00    -0.064 C 
ATOM     27  C   UNL     1     -11.315  23.259  25.894  0.00  0.00    +0.066 C 
ENDBRANCH  19  20
ENDBRANCH  18  19
ENDBRANCH  14  15
ENDBRANCH  12  13
TORSDOF 6
ENDMDL
