MODEL 1
REMARK VINA RESULT:      -7.4      0.000      0.000
REMARK  Name = C:\Users\Docking\Desktop\test protocol\1iep_ligandH.pdb
REMARK  8 active torsions:
REMARK  status: ('A' for Active; 'I' for Inactive)
REMARK    1  A    between atoms: _5  and  _11
REMARK    2  A    between atoms: _19  and  _21
REMARK    3  A    between atoms: _22  and  _66
REMARK    4  A    between atoms: _27  and  _30
REMARK    5  A    between atoms: _32  and  _33
REMARK    6  A    between atoms: _38  and  _43
REMARK    7  A    between atoms: _43  and  _46
REMARK    8  A    between atoms: _53  and  _55
REMARK                            x       y       z     vdW  Elec       q    Type
REMARK                         _______ _______ _______ _____ _____    ______ ____
ROOT
ATOM     10  C   UNL     1     -11.092 -16.866 -67.055  0.00  0.00    +0.038 A 
ATOM     11  C   UNL     1     -11.693 -17.844 -66.222  0.00  0.00    +0.047 A 
ATOM     12  C   UNL     1     -11.526 -19.264 -66.487  0.00  0.00    +0.035 A 
ATOM     32  C   UNL     1     -10.736 -19.654 -67.608  0.00  0.00    +0.024 A 
ATOM     33  C   UNL     1     -10.119 -18.673 -68.466  0.00  0.00    +0.007 A 
ATOM     34  C   UNL     1     -10.283 -17.271 -68.211  0.00  0.00    -0.029 A 
ATOM     35  C   UNL     1      -9.604 -16.263 -69.168  0.00  0.00    +0.045 C 
ENDROOT
BRANCH  10   9
ATOM      4  C   UNL     1     -13.499 -12.736 -67.487  0.00  0.00    +0.077 A 
ATOM      5  C   UNL     1     -14.434 -13.310 -68.412  0.00  0.00    +0.048 A 
ATOM      6  C   UNL     1     -14.256 -14.668 -68.756  0.00  0.00    +0.116 A 
ATOM      7  N   UNL     1     -13.218 -15.391 -68.210  0.00  0.00    -0.223 NA
ATOM      8  C   UNL     1     -12.333 -14.807 -67.322  0.00  0.00    +0.220 A 
ATOM      9  N   UNL     1     -11.286 -15.516 -66.753  0.00  0.00    -0.283 N 
ATOM     36  H   UNL     1     -10.651 -15.047 -66.108  0.00  0.00    +0.155 HD
ATOM     37  N   UNL     1     -12.481 -13.510 -66.978  0.00  0.00    -0.214 NA
BRANCH   4   3
ATOM      1  C   UNL     1     -12.545  -9.271 -65.944  0.00  0.00    +0.020 A 
ATOM      2  C   UNL     1     -12.437 -10.647 -66.373  0.00  0.00    +0.013 A 
ATOM      3  C   UNL     1     -13.557 -11.314 -67.024  0.00  0.00    +0.019 A 
ATOM     38  C   UNL     1     -14.782 -10.555 -67.229  0.00  0.00    +0.120 A 
ATOM     39  N   UNL     1     -14.857  -9.232 -66.804  0.00  0.00    -0.263 NA
ATOM     40  C   UNL     1     -13.786  -8.580 -66.175  0.00  0.00    +0.111 A 
ENDBRANCH   4   3
ENDBRANCH  10   9
BRANCH  12  13
ATOM     13  N   UNL     1     -12.118 -20.303 -65.681  0.00  0.00    -0.281 N 
ATOM     14  C   UNL     1     -13.427 -20.756 -65.704  0.00  0.00    +0.248 C 
ATOM     30  O   UNL     1     -14.345 -20.188 -66.276  0.00  0.00    -0.270 OA
ATOM     31  H   UNL     1     -11.498 -20.758 -65.011  0.00  0.00    +0.155 HD
BRANCH  14  15
ATOM     15  C   UNL     1     -13.768 -22.015 -64.974  0.00  0.00    +0.037 A 
ATOM     16  C   UNL     1     -14.665 -22.003 -63.816  0.00  0.00    +0.013 A 
ATOM     17  C   UNL     1     -14.964 -23.229 -63.119  0.00  0.00    +0.005 A 
ATOM     18  C   UNL     1     -14.365 -24.479 -63.581  0.00  0.00    -0.033 A 
ATOM     28  C   UNL     1     -13.482 -24.463 -64.735  0.00  0.00    +0.005 A 
ATOM     29  C   UNL     1     -13.186 -23.263 -65.420  0.00  0.00    +0.013 A 
BRANCH  18  19
ATOM     19  C   UNL     1     -14.611 -25.831 -62.885  0.00  0.00    +0.119 C 
BRANCH  19  20
ATOM     20  N   UNL     1     -13.502 -26.831 -62.922  0.00  0.00    -0.302 NA
ATOM     21  C   UNL     1     -13.880 -28.080 -63.723  0.00  0.00    +0.066 C 
ATOM     22  C   UNL     1     -12.701 -29.105 -63.770  0.00  0.00    -0.064 C 
ATOM     23  N   UNL     1     -12.297 -29.479 -62.343  0.00  0.00    +0.379 N 
ATOM     24  C   UNL     1     -11.227 -30.486 -62.384  0.00  0.00    -0.096 C 
ATOM     25  H   UNL     1     -13.183 -29.945 -61.853  0.00  0.00    -0.082 HD
ATOM     26  C   UNL     1     -11.922 -28.243 -61.538  0.00  0.00    -0.064 C 
ATOM     27  C   UNL     1     -13.090 -27.218 -61.523  0.00  0.00    +0.066 C 
ENDBRANCH  19  20
ENDBRANCH  18  19
ENDBRANCH  14  15
ENDBRANCH  12  13
TORSDOF 6
ENDMDL
MODEL 2
REMARK VINA RESULT:      -7.4     21.649     26.692
REMARK  Name = C:\Users\Docking\Desktop\test protocol\1iep_ligandH.pdb
REMARK  8 active torsions:
REMARK  status: ('A' for Active; 'I' for Inactive)
REMARK    1  A    between atoms: _5  and  _11
REMARK    2  A    between atoms: _19  and  _21
REMARK    3  A    between atoms: _22  and  _66
REMARK    4  A    between atoms: _27  and  _30
REMARK    5  A    between atoms: _32  and  _33
REMARK    6  A    between atoms: _38  and  _43
REMARK    7  A    between atoms: _43  and  _46
REMARK    8  A    between atoms: _53  and  _55
REMARK                            x       y       z     vdW  Elec       q    Type
REMARK                         _______ _______ _______ _____ _____    ______ ____
ROOT
ATOM     10  C   UNL     1     -13.592  -3.942 -45.103  0.00  0.00    +0.038 A 
ATOM     11  C   UNL     1     -12.614  -3.503 -46.032  0.00  0.00    +0.047 A 
ATOM     12  C   UNL     1     -12.263  -2.096 -46.145  0.00  0.00    +0.035 A 
ATOM     32  C   UNL     1     -12.926  -1.163 -45.295  0.00  0.00    +0.024 A 
ATOM     33  C   UNL     1     -13.923  -1.593 -44.346  0.00  0.00    +0.007 A 
ATOM     34  C   UNL     1     -14.275  -2.979 -44.232  0.00  0.00    -0.029 A 
ATOM     35  C   UNL     1     -15.356  -3.382 -43.202  0.00  0.00    +0.045 C 
ENDROOT
BRANCH  10   9
ATOM      4  C   UNL     1     -15.752  -7.890 -46.773  0.00  0.00    +0.077 A 
ATOM      5  C   UNL     1     -16.360  -7.171 -47.855  0.00  0.00    +0.048 A 
ATOM      6  C   UNL     1     -16.098  -5.785 -47.942  0.00  0.00    +0.116 A 
ATOM      7  N   UNL     1     -15.286  -5.175 -47.011  0.00  0.00    -0.223 NA
ATOM      8  C   UNL     1     -14.716  -5.897 -45.979  0.00  0.00    +0.220 A 
ATOM      9  N   UNL     1     -13.889  -5.305 -45.036  0.00  0.00    -0.283 N 
ATOM     36  H   UNL     1     -13.494  -5.871 -44.286  0.00  0.00    +0.155 HD
ATOM     37  N   UNL     1     -14.952  -7.221 -45.873  0.00  0.00    -0.214 NA
BRANCH   4   3
ATOM      1  C   UNL     1     -15.210 -11.580 -45.593  0.00  0.00    +0.020 A 
ATOM      2  C   UNL     1     -14.990 -10.164 -45.780  0.00  0.00    +0.013 A 
ATOM      3  C   UNL     1     -15.931  -9.359 -46.548  0.00  0.00    +0.019 A 
ATOM     38  C   UNL     1     -17.094 -10.023 -47.118  0.00  0.00    +0.120 A 
ATOM     39  N   UNL     1     -17.279 -11.388 -46.922  0.00  0.00    -0.263 NA
ATOM     40  C   UNL     1     -16.379 -12.173 -46.186  0.00  0.00    +0.111 A 
ENDBRANCH   4   3
ENDBRANCH  10   9
BRANCH  12  13
ATOM     13  N   UNL     1     -11.284  -1.589 -47.075  0.00  0.00    -0.281 N 
ATOM     14  C   UNL     1     -11.492  -1.134 -48.367  0.00  0.00    +0.248 C 
ATOM     30  O   UNL     1     -12.527  -1.293 -48.998  0.00  0.00    -0.270 OA
ATOM     31  H   UNL     1     -10.321  -1.563 -46.740  0.00  0.00    +0.155 HD
BRANCH  14  15
ATOM     15  C   UNL     1     -10.386  -0.409 -49.064  0.00  0.00    +0.037 A 
ATOM     16  C   UNL     1     -10.444  -0.137 -50.502  0.00  0.00    +0.013 A 
ATOM     17  C   UNL     1      -9.356   0.549 -51.153  0.00  0.00    +0.005 A 
ATOM     18  C   UNL     1      -8.200   0.969 -50.364  0.00  0.00    -0.033 A 
ATOM     28  C   UNL     1      -8.171   0.690 -48.938  0.00  0.00    +0.005 A 
ATOM     29  C   UNL     1      -9.235   0.017 -48.297  0.00  0.00    +0.013 A 
BRANCH  18  19
ATOM     19  C   UNL     1      -6.985   1.687 -50.979  0.00  0.00    +0.119 C 
BRANCH  19  20
ATOM     20  N   UNL     1      -6.437   1.135 -52.254  0.00  0.00    -0.302 NA
ATOM     21  C   UNL     1      -4.955   0.769 -52.131  0.00  0.00    +0.066 C 
ATOM     22  C   UNL     1      -4.404   0.172 -53.467  0.00  0.00    -0.064 C 
ATOM     23  N   UNL     1      -4.622   1.177 -54.600  0.00  0.00    +0.379 N 
ATOM     24  C   UNL     1      -4.053   0.643 -55.846  0.00  0.00    -0.096 C 
ATOM     25  H   UNL     1      -4.060   2.105 -54.341  0.00  0.00    -0.082 HD
ATOM     26  C   UNL     1      -6.092   1.548 -54.727  0.00  0.00    -0.064 C 
ATOM     27  C   UNL     1      -6.638   2.113 -53.385  0.00  0.00    +0.066 C 
ENDBRANCH  19  20
ENDBRANCH  18  19
ENDBRANCH  14  15
ENDBRANCH  12  13
TORSDOF 6
ENDMDL
MODEL 3
REMARK VINA RESULT:      -7.2     33.830     37.547
REMARK  Name = C:\Users\Docking\Desktop\test protocol\1iep_ligandH.pdb
REMARK  8 active torsions:
REMARK  status: ('A' for Active; 'I' for Inactive)
REMARK    1  A    between atoms: _5  and  _11
REMARK    2  A    between atoms: _19  and  _21
REMARK    3  A    between atoms: _22  and  _66
REMARK    4  A    between atoms: _27  and  _30
REMARK    5  A    between atoms: _32  and  _33
REMARK    6  A    between atoms: _38  and  _43
REMARK    7  A    between atoms: _43  and  _46
REMARK    8  A    between atoms: _53  and  _55
REMARK                            x       y       z     vdW  Elec       q    Type
REMARK                         _______ _______ _______ _____ _____    ______ ____
ROOT
ATOM     10  C   UNL     1      -3.675  -0.068 -34.908  0.00  0.00    +0.038 A 
ATOM     11  C   UNL     1      -4.914  -0.669 -35.249  0.00  0.00    +0.047 A 
ATOM     12  C   UNL     1      -5.815  -0.046 -36.206  0.00  0.00    +0.035 A 
ATOM     32  C   UNL     1      -5.421   1.189 -36.800  0.00  0.00    +0.024 A 
ATOM     33  C   UNL     1      -4.166   1.814 -36.464  0.00  0.00    +0.007 A 
ATOM     34  C   UNL     1      -3.274   1.205 -35.518  0.00  0.00    -0.029 A 
ATOM     35  C   UNL     1      -1.945   1.924 -35.192  0.00  0.00    +0.045 C 
ENDROOT
BRANCH  10   9
ATOM      4  C   UNL     1      -2.579  -1.419 -30.435  0.00  0.00    +0.077 A 
ATOM      5  C   UNL     1      -3.736  -0.767 -29.891  0.00  0.00    +0.048 A 
ATOM      6  C   UNL     1      -4.584  -0.090 -30.796  0.00  0.00    +0.116 A 
ATOM      7  N   UNL     1      -4.287  -0.072 -32.141  0.00  0.00    -0.223 NA
ATOM      8  C   UNL     1      -3.162  -0.709 -32.633  0.00  0.00    +0.220 A 
ATOM      9  N   UNL     1      -2.849  -0.710 -33.983  0.00  0.00    -0.283 N 
ATOM     36  H   UNL     1      -2.006  -1.185 -34.305  0.00  0.00    +0.155 HD
ATOM     37  N   UNL     1      -2.336  -1.362 -31.789  0.00  0.00    -0.214 NA
BRANCH   4   3
ATOM      1  C   UNL     1      -0.941  -4.084 -28.086  0.00  0.00    +0.020 A 
ATOM      2  C   UNL     1      -1.935  -3.387 -28.870  0.00  0.00    +0.013 A 
ATOM      3  C   UNL     1      -1.589  -2.179 -29.607  0.00  0.00    +0.019 A 
ATOM     38  C   UNL     1      -0.218  -1.698 -29.531  0.00  0.00    +0.120 A 
ATOM     39  N   UNL     1       0.717  -2.389 -28.766  0.00  0.00    -0.263 NA
ATOM     40  C   UNL     1       0.396  -3.552 -28.051  0.00  0.00    +0.111 A 
ENDBRANCH   4   3
ENDBRANCH  10   9
BRANCH  12  13
ATOM     13  N   UNL     1      -7.089  -0.605 -36.585  0.00  0.00    -0.281 N 
ATOM     14  C   UNL     1      -8.348  -0.227 -36.150  0.00  0.00    +0.248 C 
ATOM     30  O   UNL     1      -8.558   0.514 -35.201  0.00  0.00    -0.270 OA
ATOM     31  H   UNL     1      -7.058  -1.374 -37.255  0.00  0.00    +0.155 HD
BRANCH  14  15
ATOM     15  C   UNL     1      -9.549  -0.760 -36.863  0.00  0.00    +0.037 A 
ATOM     16  C   UNL     1      -9.472  -1.975 -37.677  0.00  0.00    +0.013 A 
ATOM     17  C   UNL     1     -10.641  -2.458 -38.369  0.00  0.00    +0.005 A 
ATOM     18  C   UNL     1     -11.898  -1.724 -38.247  0.00  0.00    -0.033 A 
ATOM     28  C   UNL     1     -11.948  -0.524 -37.429  0.00  0.00    +0.005 A 
ATOM     29  C   UNL     1     -10.804  -0.047 -36.751  0.00  0.00    +0.013 A 
BRANCH  18  19
ATOM     19  C   UNL     1     -13.190  -2.155 -38.967  0.00  0.00    +0.119 C 
BRANCH  19  20
ATOM     20  N   UNL     1     -14.349  -2.552 -38.113  0.00  0.00    -0.302 NA
ATOM     21  C   UNL     1     -13.973  -3.642 -37.105  0.00  0.00    +0.066 C 
ATOM     22  C   UNL     1     -15.191  -4.029 -36.205  0.00  0.00    -0.064 C 
ATOM     23  N   UNL     1     -16.352  -4.486 -37.090  0.00  0.00    +0.379 N 
ATOM     24  C   UNL     1     -17.478  -4.906 -36.244  0.00  0.00    -0.096 C 
ATOM     25  H   UNL     1     -16.008  -5.379 -37.663  0.00  0.00    -0.082 HD
ATOM     26  C   UNL     1     -16.730  -3.409 -38.097  0.00  0.00    -0.064 C 
ATOM     27  C   UNL     1     -15.505  -3.011 -38.967  0.00  0.00    +0.066 C 
ENDBRANCH  19  20
ENDBRANCH  18  19
ENDBRANCH  14  15
ENDBRANCH  12  13
TORSDOF 6
ENDMDL
MODEL 4
REMARK VINA RESULT:      -7.2     11.082     22.900
REMARK  Name = C:\Users\Docking\Desktop\test protocol\1iep_ligandH.pdb
REMARK  8 active torsions:
REMARK  status: ('A' for Active; 'I' for Inactive)
REMARK    1  A    between atoms: _5  and  _11
REMARK    2  A    between atoms: _19  and  _21
REMARK    3  A    between atoms: _22  and  _66
REMARK    4  A    between atoms: _27  and  _30
REMARK    5  A    between atoms: _32  and  _33
REMARK    6  A    between atoms: _38  and  _43
REMARK    7  A    between atoms: _43  and  _46
REMARK    8  A    between atoms: _53  and  _55
REMARK                            x       y       z     vdW  Elec       q    Type
REMARK                         _______ _______ _______ _____ _____    ______ ____
ROOT
ATOM     10  C   UNL     1     -18.986 -38.687 -56.848  0.00  0.00    +0.038 A 
ATOM     11  C   UNL     1     -18.436 -37.388 -56.704  0.00  0.00    +0.047 A 
ATOM     12  C   UNL     1     -19.227 -36.200 -56.983  0.00  0.00    +0.035 A 
ATOM     32  C   UNL     1     -20.578 -36.372 -57.404  0.00  0.00    +0.024 A 
ATOM     33  C   UNL     1     -21.154 -37.685 -57.556  0.00  0.00    +0.007 A 
ATOM     34  C   UNL     1     -20.377 -38.861 -57.285  0.00  0.00    -0.029 A 
ATOM     35  C   UNL     1     -21.043 -40.243 -57.472  0.00  0.00    +0.045 C 
ENDROOT
BRANCH  10   9
ATOM      4  C   UNL     1     -15.655 -41.919 -58.073  0.00  0.00    +0.077 A 
ATOM      5  C   UNL     1     -15.528 -41.374 -59.394  0.00  0.00    +0.048 A 
ATOM      6  C   UNL     1     -16.343 -40.267 -59.721  0.00  0.00    +0.116 A 
ATOM      7  N   UNL     1     -17.216 -39.751 -58.788  0.00  0.00    -0.223 NA
ATOM      8  C   UNL     1     -17.315 -40.301 -57.523  0.00  0.00    +0.220 A 
ATOM      9  N   UNL     1     -18.181 -39.793 -56.567  0.00  0.00    -0.283 N 
ATOM     36  H   UNL     1     -18.230 -40.232 -55.647  0.00  0.00    +0.155 HD
ATOM     37  N   UNL     1     -16.549 -41.359 -57.187  0.00  0.00    -0.214 NA
BRANCH   4   3
ATOM      1  C   UNL     1     -14.324 -44.861 -55.866  0.00  0.00    +0.020 A 
ATOM      2  C   UNL     1     -15.121 -43.736 -56.298  0.00  0.00    +0.013 A 
ATOM      3  C   UNL     1     -14.860 -43.086 -57.576  0.00  0.00    +0.019 A 
ATOM     38  C   UNL     1     -13.778 -43.603 -58.400  0.00  0.00    +0.120 A 
ATOM     39  N   UNL     1     -13.026 -44.687 -57.957  0.00  0.00    -0.263 NA
ATOM     40  C   UNL     1     -13.267 -45.319 -56.728  0.00  0.00    +0.111 A 
ENDBRANCH   4   3
ENDBRANCH  10   9
BRANCH  12  13
ATOM     13  N   UNL     1     -18.720 -34.856 -56.862  0.00  0.00    -0.281 N 
ATOM     14  C   UNL     1     -17.725 -34.250 -57.612  0.00  0.00    +0.248 C 
ATOM     30  O   UNL     1     -16.968 -34.846 -58.365  0.00  0.00    -0.270 OA
ATOM     31  H   UNL     1     -19.146 -34.281 -56.135  0.00  0.00    +0.155 HD
BRANCH  14  15
ATOM     15  C   UNL     1     -17.534 -32.772 -57.499  0.00  0.00    +0.037 A 
ATOM     16  C   UNL     1     -17.539 -32.103 -56.196  0.00  0.00    +0.013 A 
ATOM     17  C   UNL     1     -17.369 -30.674 -56.116  0.00  0.00    +0.005 A 
ATOM     18  C   UNL     1     -17.191 -29.904 -57.345  0.00  0.00    -0.033 A 
ATOM     28  C   UNL     1     -17.185 -30.595 -58.625  0.00  0.00    +0.005 A 
ATOM     29  C   UNL     1     -17.352 -31.995 -58.706  0.00  0.00    +0.013 A 
BRANCH  18  19
ATOM     19  C   UNL     1     -17.024 -28.373 -57.357  0.00  0.00    +0.119 C 
BRANCH  19  20
ATOM     20  N   UNL     1     -16.802 -27.719 -58.681  0.00  0.00    -0.302 NA
ATOM     21  C   UNL     1     -15.314 -27.615 -59.027  0.00  0.00    +0.066 C 
ATOM     22  C   UNL     1     -15.101 -26.949 -60.426  0.00  0.00    -0.064 C 
ATOM     23  N   UNL     1     -15.757 -25.567 -60.435  0.00  0.00    +0.379 N 
ATOM     24  C   UNL     1     -15.509 -24.915 -61.729  0.00  0.00    -0.096 C 
ATOM     25  H   UNL     1     -15.264 -24.953 -59.646  0.00  0.00    -0.082 HD
ATOM     26  C   UNL     1     -17.237 -25.662 -60.089  0.00  0.00    -0.064 C 
ATOM     27  C   UNL     1     -17.439 -26.352 -58.711  0.00  0.00    +0.066 C 
ENDBRANCH  19  20
ENDBRANCH  18  19
ENDBRANCH  14  15
ENDBRANCH  12  13
TORSDOF 6
ENDMDL
MODEL 5
REMARK VINA RESULT:      -7.2     39.873     43.106
REMARK  Name = C:\Users\Docking\Desktop\test protocol\1iep_ligandH.pdb
REMARK  8 active torsions:
REMARK  status: ('A' for Active; 'I' for Inactive)
REMARK    1  A    between atoms: _5  and  _11
REMARK    2  A    between atoms: _19  and  _21
REMARK    3  A    between atoms: _22  and  _66
REMARK    4  A    between atoms: _27  and  _30
REMARK    5  A    between atoms: _32  and  _33
REMARK    6  A    between atoms: _38  and  _43
REMARK    7  A    between atoms: _43  and  _46
REMARK    8  A    between atoms: _53  and  _55
REMARK                            x       y       z     vdW  Elec       q    Type
REMARK                         _______ _______ _______ _____ _____    ______ ____
ROOT
ATOM     10  C   UNL     1       6.579 -20.453 -26.676  0.00  0.00    +0.038 A 
ATOM     11  C   UNL     1       6.755 -21.534 -27.577  0.00  0.00    +0.047 A 
ATOM     12  C   UNL     1       8.072 -21.881 -28.088  0.00  0.00    +0.035 A 
ATOM     32  C   UNL     1       9.189 -21.108 -27.657  0.00  0.00    +0.024 A 
ATOM     33  C   UNL     1       9.028 -20.005 -26.742  0.00  0.00    +0.007 A 
ATOM     34  C   UNL     1       7.731 -19.656 -26.237  0.00  0.00    -0.029 A 
ATOM     35  C   UNL     1       7.616 -18.460 -25.263  0.00  0.00    +0.045 C 
ENDROOT
BRANCH  10   9
ATOM      4  C   UNL     1       2.938 -21.076 -23.611  0.00  0.00    +0.077 A 
ATOM      5  C   UNL     1       3.650 -22.083 -22.877  0.00  0.00    +0.048 A 
ATOM      6  C   UNL     1       4.948 -22.416 -23.325  0.00  0.00    +0.116 A 
ATOM      7  N   UNL     1       5.484 -21.783 -24.426  0.00  0.00    -0.223 NA
ATOM      8  C   UNL     1       4.769 -20.819 -25.112  0.00  0.00    +0.220 A 
ATOM      9  N   UNL     1       5.292 -20.164 -26.217  0.00  0.00    -0.283 N 
ATOM     36  H   UNL     1       4.730 -19.464 -26.700  0.00  0.00    +0.155 HD
ATOM     37  N   UNL     1       3.527 -20.484 -24.705  0.00  0.00    -0.214 NA
BRANCH   4   3
ATOM      1  C   UNL     1      -0.955 -20.763 -23.403  0.00  0.00    +0.020 A 
ATOM      2  C   UNL     1       0.353 -21.250 -23.774  0.00  0.00    +0.013 A 
ATOM      3  C   UNL     1       1.559 -20.613 -23.258  0.00  0.00    +0.019 A 
ATOM     38  C   UNL     1       1.404 -19.478 -22.361  0.00  0.00    +0.120 A 
ATOM     39  N   UNL     1       0.131 -19.031 -22.022  0.00  0.00    -0.263 NA
ATOM     40  C   UNL     1      -1.036 -19.635 -22.513  0.00  0.00    +0.111 A 
ENDBRANCH   4   3
ENDBRANCH  10   9
BRANCH  12  13
ATOM     13  N   UNL     1       8.311 -22.962 -29.011  0.00  0.00    -0.281 N 
ATOM     14  C   UNL     1       8.752 -22.881 -30.322  0.00  0.00    +0.248 C 
ATOM     30  O   UNL     1       8.805 -21.847 -30.970  0.00  0.00    -0.270 OA
ATOM     31  H   UNL     1       8.133 -23.902 -28.656  0.00  0.00    +0.155 HD
BRANCH  14  15
ATOM     15  C   UNL     1       9.184 -24.132 -31.017  0.00  0.00    +0.037 A 
ATOM     16  C   UNL     1       9.195 -25.422 -30.323  0.00  0.00    +0.013 A 
ATOM     17  C   UNL     1       9.632 -26.610 -31.012  0.00  0.00    +0.005 A 
ATOM     18  C   UNL     1      10.062 -26.513 -32.405  0.00  0.00    -0.033 A 
ATOM     28  C   UNL     1      10.036 -25.221 -33.071  0.00  0.00    +0.005 A 
ATOM     29  C   UNL     1       9.609 -24.054 -32.399  0.00  0.00    +0.013 A 
BRANCH  18  19
ATOM     19  C   UNL     1      10.564 -27.725 -33.212  0.00  0.00    +0.119 C 
BRANCH  19  20
ATOM     20  N   UNL     1       9.700 -28.943 -33.225  0.00  0.00    -0.302 NA
ATOM     21  C   UNL     1      10.526 -30.233 -33.220  0.00  0.00    +0.066 C 
ATOM     22  C   UNL     1       9.606 -31.497 -33.211  0.00  0.00    -0.064 C 
ATOM     23  N   UNL     1       8.674 -31.456 -34.423  0.00  0.00    +0.379 N 
ATOM     24  C   UNL     1       7.848 -32.672 -34.449  0.00  0.00    -0.096 C 
ATOM     25  H   UNL     1       9.310 -31.459 -35.339  0.00  0.00    -0.082 HD
ATOM     26  C   UNL     1       7.851 -30.175 -34.437  0.00  0.00    -0.064 C 
ATOM     27  C   UNL     1       8.774 -28.925 -34.417  0.00  0.00    +0.066 C 
ENDBRANCH  19  20
ENDBRANCH  18  19
ENDBRANCH  14  15
ENDBRANCH  12  13
TORSDOF 6
ENDMDL
