MODEL 1
REMARK VINA RESULT:      -5.9      0.000      0.000
REMARK  Name = C:\Users\Docking\Desktop\test protocol\1iep_ligandH.pdb
REMARK  8 active torsions:
REMARK  status: ('A' for Active; 'I' for Inactive)
REMARK    1  A    between atoms: _5  and  _11
REMARK    2  A    between atoms: _19  and  _21
REMARK    3  A    between atoms: _22  and  _66
REMARK    4  A    between atoms: _27  and  _30
REMARK    5  A    between atoms: _32  and  _33
REMARK    6  A    between atoms: _38  and  _43
REMARK    7  A    between atoms: _43  and  _46
REMARK    8  A    between atoms: _53  and  _55
REMARK                            x       y       z     vdW  Elec       q    Type
REMARK                         _______ _______ _______ _____ _____    ______ ____
ROOT
ATOM     10  C   UNL     1      20.082  17.289   6.723  0.00  0.00    +0.038 A 
ATOM     11  C   UNL     1      21.493  17.394   6.828  0.00  0.00    +0.047 A 
ATOM     12  C   UNL     1      22.316  17.659   5.658  0.00  0.00    +0.035 A 
ATOM     32  C   UNL     1      21.669  17.816   4.398  0.00  0.00    +0.024 A 
ATOM     33  C   UNL     1      20.237  17.712   4.274  0.00  0.00    +0.007 A 
ATOM     34  C   UNL     1      19.419  17.448   5.423  0.00  0.00    -0.029 A 
ATOM     35  C   UNL     1      17.889  17.340   5.230  0.00  0.00    +0.045 C 
ENDROOT
BRANCH  10   9
ATOM      4  C   UNL     1      17.776  14.312   9.699  0.00  0.00    +0.077 A 
ATOM      5  C   UNL     1      18.049  13.175   8.868  0.00  0.00    +0.048 A 
ATOM      6  C   UNL     1      18.780  13.400   7.680  0.00  0.00    +0.116 A 
ATOM      7  N   UNL     1      19.201  14.672   7.357  0.00  0.00    -0.223 NA
ATOM      8  C   UNL     1      18.920  15.747   8.180  0.00  0.00    +0.220 A 
ATOM      9  N   UNL     1      19.340  17.033   7.879  0.00  0.00    -0.283 N 
ATOM     36  H   UNL     1      19.106  17.800   8.508  0.00  0.00    +0.155 HD
ATOM     37  N   UNL     1      18.222  15.558   9.319  0.00  0.00    -0.214 NA
BRANCH   4   3
ATOM      1  C   UNL     1      15.146  13.354  12.431  0.00  0.00    +0.020 A 
ATOM      2  C   UNL     1      15.841  13.393  11.166  0.00  0.00    +0.013 A 
ATOM      3  C   UNL     1      17.018  14.235  10.988  0.00  0.00    +0.019 A 
ATOM     38  C   UNL     1      17.469  15.031  12.119  0.00  0.00    +0.120 A 
ATOM     39  N   UNL     1      16.778  14.974  13.326  0.00  0.00    -0.263 NA
ATOM     40  C   UNL     1      15.643  14.169  13.508  0.00  0.00    +0.111 A 
ENDBRANCH   4   3
ENDBRANCH  10   9
BRANCH  12  13
ATOM     13  N   UNL     1      23.753  17.768   5.702  0.00  0.00    -0.281 N 
ATOM     14  C   UNL     1      24.686  16.744   5.669  0.00  0.00    +0.248 C 
ATOM     30  O   UNL     1      24.419  15.560   5.813  0.00  0.00    -0.270 OA
ATOM     31  H   UNL     1      24.129  18.714   5.764  0.00  0.00    +0.155 HD
BRANCH  14  15
ATOM     15  C   UNL     1      26.126  17.086   5.460  0.00  0.00    +0.037 A 
ATOM     16  C   UNL     1      27.188  16.375   6.178  0.00  0.00    +0.013 A 
ATOM     17  C   UNL     1      28.568  16.736   5.971  0.00  0.00    +0.005 A 
ATOM     18  C   UNL     1      28.894  17.813   5.039  0.00  0.00    -0.033 A 
ATOM     28  C   UNL     1      27.822  18.498   4.336  0.00  0.00    +0.005 A 
ATOM     29  C   UNL     1      26.468  18.148   4.538  0.00  0.00    +0.013 A 
BRANCH  18  19
ATOM     19  C   UNL     1      30.338  18.279   4.772  0.00  0.00    +0.119 C 
BRANCH  19  20
ATOM     20  N   UNL     1      31.247  18.398   5.951  0.00  0.00    -0.302 NA
ATOM     21  C   UNL     1      31.834  19.806   6.084  0.00  0.00    +0.066 C 
ATOM     22  C   UNL     1      32.765  19.918   7.335  0.00  0.00    -0.064 C 
ATOM     23  N   UNL     1      33.879  18.874   7.235  0.00  0.00    +0.379 N 
ATOM     24  C   UNL     1      34.789  19.015   8.380  0.00  0.00    -0.096 C 
ATOM     25  H   UNL     1      34.462  19.091   6.310  0.00  0.00    -0.082 HD
ATOM     26  C   UNL     1      33.303  17.471   7.099  0.00  0.00    -0.064 C 
ATOM     27  C   UNL     1      32.356  17.379   5.870  0.00  0.00    +0.066 C 
ENDBRANCH  19  20
ENDBRANCH  18  19
ENDBRANCH  14  15
ENDBRANCH  12  13
TORSDOF 6
ENDMDL
MODEL 2
REMARK VINA RESULT:      -5.3      6.403      8.539
REMARK  Name = C:\Users\Docking\Desktop\test protocol\1iep_ligandH.pdb
REMARK  8 active torsions:
REMARK  status: ('A' for Active; 'I' for Inactive)
REMARK    1  A    between atoms: _5  and  _11
REMARK    2  A    between atoms: _19  and  _21
REMARK    3  A    between atoms: _22  and  _66
REMARK    4  A    between atoms: _27  and  _30
REMARK    5  A    between atoms: _32  and  _33
REMARK    6  A    between atoms: _38  and  _43
REMARK    7  A    between atoms: _43  and  _46
REMARK    8  A    between atoms: _53  and  _55
REMARK                            x       y       z     vdW  Elec       q    Type
REMARK                         _______ _______ _______ _____ _____    ______ ____
ROOT
ATOM     10  C   UNL     1      23.578  16.714  12.959  0.00  0.00    +0.038 A 
ATOM     11  C   UNL     1      24.974  16.944  12.872  0.00  0.00    +0.047 A 
ATOM     12  C   UNL     1      25.865  16.591  13.967  0.00  0.00    +0.035 A 
ATOM     32  C   UNL     1      25.299  16.002  15.135  0.00  0.00    +0.024 A 
ATOM     33  C   UNL     1      23.881  15.762  15.240  0.00  0.00    +0.007 A 
ATOM     34  C   UNL     1      22.997  16.110  14.165  0.00  0.00    -0.029 A 
ATOM     35  C   UNL     1      21.485  15.836  14.335  0.00  0.00    +0.045 C 
ENDROOT
BRANCH  10   9
ATOM      4  C   UNL     1      21.389  15.733   8.801  0.00  0.00    +0.077 A 
ATOM      5  C   UNL     1      21.923  14.402   8.766  0.00  0.00    +0.048 A 
ATOM      6  C   UNL     1      22.762  14.011   9.834  0.00  0.00    +0.116 A 
ATOM      7  N   UNL     1      23.040  14.894  10.855  0.00  0.00    -0.223 NA
ATOM      8  C   UNL     1      22.510  16.171  10.857  0.00  0.00    +0.220 A 
ATOM      9  N   UNL     1      22.769  17.072  11.878  0.00  0.00    -0.283 N 
ATOM     36  H   UNL     1      22.365  18.008  11.839  0.00  0.00    +0.155 HD
ATOM     37  N   UNL     1      21.707  16.569   9.849  0.00  0.00    -0.214 NA
BRANCH   4   3
ATOM      1  C   UNL     1      18.268  16.436   6.550  0.00  0.00    +0.020 A 
ATOM      2  C   UNL     1      19.100  15.864   7.584  0.00  0.00    +0.013 A 
ATOM      3  C   UNL     1      20.484  16.292   7.748  0.00  0.00    +0.019 A 
ATOM     38  C   UNL     1      20.999  17.308   6.843  0.00  0.00    +0.120 A 
ATOM     39  N   UNL     1      20.175  17.840   5.856  0.00  0.00    -0.263 NA
ATOM     40  C   UNL     1      18.842  17.435   5.688  0.00  0.00    +0.111 A 
ENDBRANCH   4   3
ENDBRANCH  10   9
BRANCH  12  13
ATOM     13  N   UNL     1      27.290  16.808  13.939  0.00  0.00    -0.281 N 
ATOM     14  C   UNL     1      28.014  17.792  14.591  0.00  0.00    +0.248 C 
ATOM     30  O   UNL     1      27.520  18.770  15.132  0.00  0.00    -0.270 OA
ATOM     31  H   UNL     1      27.830  16.157  13.368  0.00  0.00    +0.155 HD
BRANCH  14  15
ATOM     15  C   UNL     1      29.504  17.680  14.639  0.00  0.00    +0.037 A 
ATOM     16  C   UNL     1      30.336  18.801  15.083  0.00  0.00    +0.013 A 
ATOM     17  C   UNL     1      31.772  18.673  15.103  0.00  0.00    +0.005 A 
ATOM     18  C   UNL     1      32.384  17.417  14.678  0.00  0.00    -0.033 A 
ATOM     28  C   UNL     1      31.535  16.319  14.246  0.00  0.00    +0.005 A 
ATOM     29  C   UNL     1      30.127  16.442  14.225  0.00  0.00    +0.013 A 
BRANCH  18  19
ATOM     19  C   UNL     1      33.909  17.198  14.646  0.00  0.00    +0.119 C 
BRANCH  19  20
ATOM     20  N   UNL     1      34.776  18.404  14.805  0.00  0.00    -0.302 NA
ATOM     21  C   UNL     1      35.900  18.444  13.766  0.00  0.00    +0.066 C 
ATOM     22  C   UNL     1      36.783  19.723  13.933  0.00  0.00    -0.064 C 
ATOM     23  N   UNL     1      37.355  19.763  15.351  0.00  0.00    +0.379 N 
ATOM     24  C   UNL     1      38.233  20.934  15.493  0.00  0.00    -0.096 C 
ATOM     25  H   UNL     1      37.982  18.851  15.488  0.00  0.00    -0.082 HD
ATOM     26  C   UNL     1      36.245  19.720  16.391  0.00  0.00    -0.064 C 
ATOM     27  C   UNL     1      35.355  18.461  16.198  0.00  0.00    +0.066 C 
ENDBRANCH  19  20
ENDBRANCH  18  19
ENDBRANCH  14  15
ENDBRANCH  12  13
TORSDOF 6
ENDMDL
MODEL 3
REMARK VINA RESULT:      -5.3      4.888      6.893
REMARK  Name = C:\Users\Docking\Desktop\test protocol\1iep_ligandH.pdb
REMARK  8 active torsions:
REMARK  status: ('A' for Active; 'I' for Inactive)
REMARK    1  A    between atoms: _5  and  _11
REMARK    2  A    between atoms: _19  and  _21
REMARK    3  A    between atoms: _22  and  _66
REMARK    4  A    between atoms: _27  and  _30
REMARK    5  A    between atoms: _32  and  _33
REMARK    6  A    between atoms: _38  and  _43
REMARK    7  A    between atoms: _43  and  _46
REMARK    8  A    between atoms: _53  and  _55
REMARK                            x       y       z     vdW  Elec       q    Type
REMARK                         _______ _______ _______ _____ _____    ______ ____
ROOT
ATOM     10  C   UNL     1      24.032  16.772  12.512  0.00  0.00    +0.038 A 
ATOM     11  C   UNL     1      25.410  16.573  12.242  0.00  0.00    +0.047 A 
ATOM     12  C   UNL     1      26.357  16.308  13.314  0.00  0.00    +0.035 A 
ATOM     32  C   UNL     1      25.865  16.250  14.651  0.00  0.00    +0.024 A 
ATOM     33  C   UNL     1      24.467  16.452  14.944  0.00  0.00    +0.007 A 
ATOM     34  C   UNL     1      23.530  16.716  13.890  0.00  0.00    -0.029 A 
ATOM     35  C   UNL     1      22.044  16.931  14.263  0.00  0.00    +0.045 C 
ENDROOT
BRANCH  10   9
ATOM      4  C   UNL     1      20.943  15.323   9.137  0.00  0.00    +0.077 A 
ATOM      5  C   UNL     1      21.083  13.947   9.516  0.00  0.00    +0.048 A 
ATOM      6  C   UNL     1      21.965  13.653  10.580  0.00  0.00    +0.116 A 
ATOM      7  N   UNL     1      22.651  14.669  11.210  0.00  0.00    -0.223 NA
ATOM      8  C   UNL     1      22.494  15.985  10.819  0.00  0.00    +0.220 A 
ATOM      9  N   UNL     1      23.168  17.023  11.444  0.00  0.00    -0.283 N 
ATOM     36  H   UNL     1      23.031  17.981  11.121  0.00  0.00    +0.155 HD
ATOM     37  N   UNL     1      21.658  16.292   9.805  0.00  0.00    -0.214 NA
BRANCH   4   3
ATOM      1  C   UNL     1      17.963  15.624   6.621  0.00  0.00    +0.020 A 
ATOM      2  C   UNL     1      18.793  15.130   7.696  0.00  0.00    +0.013 A 
ATOM      3  C   UNL     1      20.045  15.793   8.035  0.00  0.00    +0.019 A 
ATOM     38  C   UNL     1      20.432  16.964   7.262  0.00  0.00    +0.120 A 
ATOM     39  N   UNL     1      19.613  17.416   6.232  0.00  0.00    -0.263 NA
ATOM     40  C   UNL     1      18.406  16.785   5.895  0.00  0.00    +0.111 A 
ENDBRANCH   4   3
ENDBRANCH  10   9
BRANCH  12  13
ATOM     13  N   UNL     1      27.768  16.105  13.101  0.00  0.00    -0.281 N 
ATOM     14  C   UNL     1      28.391  15.037  12.476  0.00  0.00    +0.248 C 
ATOM     30  O   UNL     1      27.838  13.985  12.193  0.00  0.00    -0.270 OA
ATOM     31  H   UNL     1      28.384  16.838  13.454  0.00  0.00    +0.155 HD
BRANCH  14  15
ATOM     15  C   UNL     1      29.840  15.148  12.129  0.00  0.00    +0.037 A 
ATOM     16  C   UNL     1      30.833  15.549  13.130  0.00  0.00    +0.013 A 
ATOM     17  C   UNL     1      32.222  15.665  12.764  0.00  0.00    +0.005 A 
ATOM     18  C   UNL     1      32.627  15.378  11.390  0.00  0.00    -0.033 A 
ATOM     28  C   UNL     1      31.623  14.977  10.419  0.00  0.00    +0.005 A 
ATOM     29  C   UNL     1      30.260  14.863  10.774  0.00  0.00    +0.013 A 
BRANCH  18  19
ATOM     19  C   UNL     1      34.085  15.496  10.906  0.00  0.00    +0.119 C 
BRANCH  19  20
ATOM     20  N   UNL     1      34.351  16.410   9.755  0.00  0.00    -0.302 NA
ATOM     21  C   UNL     1      34.663  15.639   8.469  0.00  0.00    +0.066 C 
ATOM     22  C   UNL     1      34.917  16.610   7.271  0.00  0.00    -0.064 C 
ATOM     23  N   UNL     1      36.061  17.562   7.623  0.00  0.00    +0.379 N 
ATOM     24  C   UNL     1      36.341  18.438   6.475  0.00  0.00    -0.096 C 
ATOM     25  H   UNL     1      36.971  16.944   7.806  0.00  0.00    -0.082 HD
ATOM     26  C   UNL     1      35.760  18.331   8.901  0.00  0.00    -0.064 C 
ATOM     27  C   UNL     1      35.480  17.356  10.079  0.00  0.00    +0.066 C 
ENDBRANCH  19  20
ENDBRANCH  18  19
ENDBRANCH  14  15
ENDBRANCH  12  13
TORSDOF 6
ENDMDL
MODEL 4
REMARK VINA RESULT:      -5.3      3.386      5.297
REMARK  Name = C:\Users\Docking\Desktop\test protocol\1iep_ligandH.pdb
REMARK  8 active torsions:
REMARK  status: ('A' for Active; 'I' for Inactive)
REMARK    1  A    between atoms: _5  and  _11
REMARK    2  A    between atoms: _19  and  _21
REMARK    3  A    between atoms: _22  and  _66
REMARK    4  A    between atoms: _27  and  _30
REMARK    5  A    between atoms: _32  and  _33
REMARK    6  A    between atoms: _38  and  _43
REMARK    7  A    between atoms: _43  and  _46
REMARK    8  A    between atoms: _53  and  _55
REMARK                            x       y       z     vdW  Elec       q    Type
REMARK                         _______ _______ _______ _____ _____    ______ ____
ROOT
ATOM     10  C   UNL     1      22.553  14.711  10.659  0.00  0.00    +0.038 A 
ATOM     11  C   UNL     1      23.853  14.861  10.111  0.00  0.00    +0.047 A 
ATOM     12  C   UNL     1      24.974  15.281  10.937  0.00  0.00    +0.035 A 
ATOM     32  C   UNL     1      24.736  15.538  12.319  0.00  0.00    +0.024 A 
ATOM     33  C   UNL     1      23.421  15.392  12.892  0.00  0.00    +0.007 A 
ATOM     34  C   UNL     1      22.311  14.980  12.082  0.00  0.00    -0.029 A 
ATOM     35  C   UNL     1      20.922  14.846  12.749  0.00  0.00    +0.045 C 
ENDROOT
BRANCH  10   9
ATOM      4  C   UNL     1      19.325  15.551   7.208  0.00  0.00    +0.077 A 
ATOM      5  C   UNL     1      19.726  16.922   7.085  0.00  0.00    +0.048 A 
ATOM      6  C   UNL     1      20.761  17.374   7.933  0.00  0.00    +0.116 A 
ATOM      7  N   UNL     1      21.346  16.510   8.833  0.00  0.00    -0.223 NA
ATOM      8  C   UNL     1      20.934  15.193   8.928  0.00  0.00    +0.220 A 
ATOM      9  N   UNL     1      21.513  14.304   9.820  0.00  0.00    -0.283 N 
ATOM     36  H   UNL     1      21.176  13.343   9.865  0.00  0.00    +0.155 HD
ATOM     37  N   UNL     1      19.946  14.738   8.130  0.00  0.00    -0.214 NA
BRANCH   4   3
ATOM      1  C   UNL     1      16.797  12.974   5.701  0.00  0.00    +0.020 A 
ATOM      2  C   UNL     1      17.844  13.530   6.526  0.00  0.00    +0.013 A 
ATOM      3  C   UNL     1      18.247  14.924   6.380  0.00  0.00    +0.019 A 
ATOM     38  C   UNL     1      17.563  15.733   5.383  0.00  0.00    +0.120 A 
ATOM     39  N   UNL     1      16.559  15.170   4.602  0.00  0.00    -0.263 NA
ATOM     40  C   UNL     1      16.164  13.830   4.732  0.00  0.00    +0.111 A 
ENDBRANCH   4   3
ENDBRANCH  10   9
BRANCH  12  13
ATOM     13  N   UNL     1      26.314  15.459  10.435  0.00  0.00    -0.281 N 
ATOM     14  C   UNL     1      27.138  14.509   9.854  0.00  0.00    +0.248 C 
ATOM     30  O   UNL     1      26.926  13.305   9.873  0.00  0.00    -0.270 OA
ATOM     31  H   UNL     1      26.701  16.398  10.517  0.00  0.00    +0.155 HD
BRANCH  14  15
ATOM     15  C   UNL     1      28.386  14.959   9.165  0.00  0.00    +0.037 A 
ATOM     16  C   UNL     1      29.709  14.665   9.721  0.00  0.00    +0.013 A 
ATOM     17  C   UNL     1      30.896  15.126   9.045  0.00  0.00    +0.005 A 
ATOM     18  C   UNL     1      30.764  15.886   7.804  0.00  0.00    -0.033 A 
ATOM     28  C   UNL     1      29.439  16.158   7.272  0.00  0.00    +0.005 A 
ATOM     29  C   UNL     1      28.274  15.709   7.933  0.00  0.00    +0.013 A 
BRANCH  18  19
ATOM     19  C   UNL     1      31.975  16.435   7.027  0.00  0.00    +0.119 C 
BRANCH  19  20
ATOM     20  N   UNL     1      31.955  17.883   6.664  0.00  0.00    -0.302 NA
ATOM     21  C   UNL     1      32.160  18.102   5.162  0.00  0.00    +0.066 C 
ATOM     22  C   UNL     1      32.113  19.621   4.797  0.00  0.00    -0.064 C 
ATOM     23  N   UNL     1      33.175  20.370   5.603  0.00  0.00    +0.379 N 
ATOM     24  C   UNL     1      33.173  21.789   5.219  0.00  0.00    -0.096 C 
ATOM     25  H   UNL     1      34.169  19.946   5.328  0.00  0.00    -0.082 HD
ATOM     26  C   UNL     1      32.981  20.156   7.097  0.00  0.00    -0.064 C 
ATOM     27  C   UNL     1      32.999  18.641   7.446  0.00  0.00    +0.066 C 
ENDBRANCH  19  20
ENDBRANCH  18  19
ENDBRANCH  14  15
ENDBRANCH  12  13
TORSDOF 6
ENDMDL
MODEL 5
REMARK VINA RESULT:      -5.2      6.078      8.197
REMARK  Name = C:\Users\Docking\Desktop\test protocol\1iep_ligandH.pdb
REMARK  8 active torsions:
REMARK  status: ('A' for Active; 'I' for Inactive)
REMARK    1  A    between atoms: _5  and  _11
REMARK    2  A    between atoms: _19  and  _21
REMARK    3  A    between atoms: _22  and  _66
REMARK    4  A    between atoms: _27  and  _30
REMARK    5  A    between atoms: _32  and  _33
REMARK    6  A    between atoms: _38  and  _43
REMARK    7  A    between atoms: _43  and  _46
REMARK    8  A    between atoms: _53  and  _55
REMARK                            x       y       z     vdW  Elec       q    Type
REMARK                         _______ _______ _______ _____ _____    ______ ____
ROOT
ATOM     10  C   UNL     1      23.575  16.540  12.864  0.00  0.00    +0.038 A 
ATOM     11  C   UNL     1      24.930  16.958  12.816  0.00  0.00    +0.047 A 
ATOM     12  C   UNL     1      25.857  16.627  13.886  0.00  0.00    +0.035 A 
ATOM     32  C   UNL     1      25.372  15.866  14.990  0.00  0.00    +0.024 A 
ATOM     33  C   UNL     1      23.998  15.434  15.055  0.00  0.00    +0.007 A 
ATOM     34  C   UNL     1      23.078  15.760  14.003  0.00  0.00    -0.029 A 
ATOM     35  C   UNL     1      21.615  15.275  14.129  0.00  0.00    +0.045 C 
ENDROOT
BRANCH  10   9
ATOM      4  C   UNL     1      21.326  15.548   8.741  0.00  0.00    +0.077 A 
ATOM      5  C   UNL     1      21.909  14.239   8.670  0.00  0.00    +0.048 A 
ATOM      6  C   UNL     1      22.788  13.863   9.710  0.00  0.00    +0.116 A 
ATOM      7  N   UNL     1      23.057  14.738  10.740  0.00  0.00    -0.223 NA
ATOM      8  C   UNL     1      22.479  15.993  10.778  0.00  0.00    +0.220 A 
ATOM      9  N   UNL     1      22.728  16.886  11.809  0.00  0.00    -0.283 N 
ATOM     36  H   UNL     1      22.288  17.806  11.797  0.00  0.00    +0.155 HD
ATOM     37  N   UNL     1      21.637  16.377   9.796  0.00  0.00    -0.214 NA
BRANCH   4   3
ATOM      1  C   UNL     1      18.211  16.029   6.425  0.00  0.00    +0.020 A 
ATOM      2  C   UNL     1      19.093  15.465   7.421  0.00  0.00    +0.013 A 
ATOM      3  C   UNL     1      20.375  16.090   7.720  0.00  0.00    +0.019 A 
ATOM     38  C   UNL     1      20.738  17.294   6.988  0.00  0.00    +0.120 A 
ATOM     39  N   UNL     1      19.869  17.813   6.033  0.00  0.00    -0.263 NA
ATOM     40  C   UNL     1      18.633  17.220   5.736  0.00  0.00    +0.111 A 
ENDBRANCH   4   3
ENDBRANCH  10   9
BRANCH  12  13
ATOM     13  N   UNL     1      27.242  17.031  13.897  0.00  0.00    -0.281 N 
ATOM     14  C   UNL     1      27.871  17.893  14.780  0.00  0.00    +0.248 C 
ATOM     30  O   UNL     1      27.287  18.619  15.571  0.00  0.00    -0.270 OA
ATOM     31  H   UNL     1      27.829  16.633  13.164  0.00  0.00    +0.155 HD
BRANCH  14  15
ATOM     15  C   UNL     1      29.363  17.972  14.773  0.00  0.00    +0.037 A 
ATOM     16  C   UNL     1      30.185  16.788  14.511  0.00  0.00    +0.013 A 
ATOM     17  C   UNL     1      31.623  16.887  14.527  0.00  0.00    +0.005 A 
ATOM     18  C   UNL     1      32.248  18.178  14.805  0.00  0.00    -0.033 A 
ATOM     28  C   UNL     1      31.409  19.338  15.056  0.00  0.00    +0.005 A 
ATOM     29  C   UNL     1      29.999  19.244  15.042  0.00  0.00    +0.013 A 
BRANCH  18  19
ATOM     19  C   UNL     1      33.775  18.373  14.863  0.00  0.00    +0.119 C 
BRANCH  19  20
ATOM     20  N   UNL     1      34.588  17.727  13.790  0.00  0.00    -0.302 NA
ATOM     21  C   UNL     1      35.288  16.458  14.284  0.00  0.00    +0.066 C 
ATOM     22  C   UNL     1      36.116  15.783  13.143  0.00  0.00    -0.064 C 
ATOM     23  N   UNL     1      37.134  16.784  12.594  0.00  0.00    +0.379 N 
ATOM     24  C   UNL     1      37.953  16.134  11.560  0.00  0.00    -0.096 C 
ATOM     25  H   UNL     1      37.811  17.071  13.431  0.00  0.00    -0.082 HD
ATOM     26  C   UNL     1      36.446  18.050  12.102  0.00  0.00    -0.064 C 
ATOM     27  C   UNL     1      35.603  18.697  13.236  0.00  0.00    +0.066 C 
ENDBRANCH  19  20
ENDBRANCH  18  19
ENDBRANCH  14  15
ENDBRANCH  12  13
TORSDOF 6
ENDMDL
