MODEL 1
REMARK VINA RESULT:      -7.9      0.000      0.000
REMARK  Name = C:\Users\Docking\Desktop\test protocol\1iep_ligandH.pdb
REMARK  8 active torsions:
REMARK  status: ('A' for Active; 'I' for Inactive)
REMARK    1  A    between atoms: _5  and  _11
REMARK    2  A    between atoms: _19  and  _21
REMARK    3  A    between atoms: _22  and  _66
REMARK    4  A    between atoms: _27  and  _30
REMARK    5  A    between atoms: _32  and  _33
REMARK    6  A    between atoms: _38  and  _43
REMARK    7  A    between atoms: _43  and  _46
REMARK    8  A    between atoms: _53  and  _55
REMARK                            x       y       z     vdW  Elec       q    Type
REMARK                         _______ _______ _______ _____ _____    ______ ____
ROOT
ATOM     10  C   UNL     1       5.726   2.315  25.335  0.00  0.00    +0.038 A 
ATOM     11  C   UNL     1       6.563   1.753  24.337  0.00  0.00    +0.047 A 
ATOM     12  C   UNL     1       7.273   2.597  23.388  0.00  0.00    +0.035 A 
ATOM     32  C   UNL     1       7.109   4.009  23.486  0.00  0.00    +0.024 A 
ATOM     33  C   UNL     1       6.261   4.597  24.493  0.00  0.00    +0.007 A 
ATOM     34  C   UNL     1       5.556   3.770  25.430  0.00  0.00    -0.029 A 
ATOM     35  C   UNL     1       4.656   4.454  26.484  0.00  0.00    +0.045 C 
ENDROOT
BRANCH  10   9
ATOM      4  C   UNL     1       5.522  -1.666  28.008  0.00  0.00    +0.077 A 
ATOM      5  C   UNL     1       6.826  -2.088  27.584  0.00  0.00    +0.048 A 
ATOM      6  C   UNL     1       7.513  -1.256  26.672  0.00  0.00    +0.116 A 
ATOM      7  N   UNL     1       6.930  -0.091  26.224  0.00  0.00    -0.223 NA
ATOM      8  C   UNL     1       5.670   0.286  26.651  0.00  0.00    +0.220 A 
ATOM      9  N   UNL     1       5.068   1.458  26.220  0.00  0.00    -0.283 N 
ATOM     36  H   UNL     1       4.134   1.697  26.552  0.00  0.00    +0.155 HD
ATOM     37  N   UNL     1       4.993  -0.492  27.521  0.00  0.00    -0.214 NA
BRANCH   4   3
ATOM      1  C   UNL     1       3.383  -2.665  31.126  0.00  0.00    +0.020 A 
ATOM      2  C   UNL     1       4.201  -1.879  30.232  0.00  0.00    +0.013 A 
ATOM      3  C   UNL     1       4.673  -2.436  28.971  0.00  0.00    +0.019 A 
ATOM     38  C   UNL     1       4.295  -3.803  28.641  0.00  0.00    +0.120 A 
ATOM     39  N   UNL     1       3.508  -4.536  29.523  0.00  0.00    -0.263 NA
ATOM     40  C   UNL     1       3.049  -4.011  30.740  0.00  0.00    +0.111 A 
ENDBRANCH   4   3
ENDBRANCH  10   9
BRANCH  12  13
ATOM     13  N   UNL     1       8.130   2.083  22.349  0.00  0.00    -0.281 N 
ATOM     14  C   UNL     1       7.761   1.573  21.115  0.00  0.00    +0.248 C 
ATOM     30  O   UNL     1       6.617   1.282  20.802  0.00  0.00    -0.270 OA
ATOM     31  H   UNL     1       9.131   2.097  22.547  0.00  0.00    +0.155 HD
BRANCH  14  15
ATOM     15  C   UNL     1       8.819   1.338  20.085  0.00  0.00    +0.037 A 
ATOM     16  C   UNL     1       8.909   2.173  18.885  0.00  0.00    +0.013 A 
ATOM     17  C   UNL     1       9.928   1.914  17.899  0.00  0.00    +0.005 A 
ATOM     18  C   UNL     1      10.867   0.815  18.111  0.00  0.00    -0.033 A 
ATOM     28  C   UNL     1      10.758   0.006  19.313  0.00  0.00    +0.005 A 
ATOM     29  C   UNL     1       9.760   0.256  20.281  0.00  0.00    +0.013 A 
BRANCH  18  19
ATOM     19  C   UNL     1      11.973   0.454  17.101  0.00  0.00    +0.119 C 
BRANCH  19  20
ATOM     20  N   UNL     1      13.388   0.603  17.555  0.00  0.00    -0.302 NA
ATOM     21  C   UNL     1      13.654   1.983  18.163  0.00  0.00    +0.066 C 
ATOM     22  C   UNL     1      15.133   2.114  18.652  0.00  0.00    -0.064 C 
ATOM     23  N   UNL     1      16.080   1.846  17.482  0.00  0.00    +0.379 N 
ATOM     24  C   UNL     1      17.471   2.025  17.925  0.00  0.00    -0.096 C 
ATOM     25  H   UNL     1      15.874   2.611  16.698  0.00  0.00    -0.082 HD
ATOM     26  C   UNL     1      15.821   0.476  16.869  0.00  0.00    -0.064 C 
ATOM     27  C   UNL     1      14.341   0.346  16.413  0.00  0.00    +0.066 C 
ENDBRANCH  19  20
ENDBRANCH  18  19
ENDBRANCH  14  15
ENDBRANCH  12  13
TORSDOF 6
ENDMDL
MODEL 2
REMARK VINA RESULT:      -7.9      8.112     13.194
REMARK  Name = C:\Users\Docking\Desktop\test protocol\1iep_ligandH.pdb
REMARK  8 active torsions:
REMARK  status: ('A' for Active; 'I' for Inactive)
REMARK    1  A    between atoms: _5  and  _11
REMARK    2  A    between atoms: _19  and  _21
REMARK    3  A    between atoms: _22  and  _66
REMARK    4  A    between atoms: _27  and  _30
REMARK    5  A    between atoms: _32  and  _33
REMARK    6  A    between atoms: _38  and  _43
REMARK    7  A    between atoms: _43  and  _46
REMARK    8  A    between atoms: _53  and  _55
REMARK                            x       y       z     vdW  Elec       q    Type
REMARK                         _______ _______ _______ _____ _____    ______ ____
ROOT
ATOM     10  C   UNL     1      11.382  10.875  24.073  0.00  0.00    +0.038 A 
ATOM     11  C   UNL     1      10.635   9.709  24.379  0.00  0.00    +0.047 A 
ATOM     12  C   UNL     1      10.593   8.580  23.462  0.00  0.00    +0.035 A 
ATOM     32  C   UNL     1      11.328   8.672  22.244  0.00  0.00    +0.024 A 
ATOM     33  C   UNL     1      12.091   9.850  21.917  0.00  0.00    +0.007 A 
ATOM     34  C   UNL     1      12.134  10.968  22.816  0.00  0.00    -0.029 A 
ATOM     35  C   UNL     1      12.964  12.208  22.411  0.00  0.00    +0.045 C 
ENDROOT
BRANCH  10   9
ATOM      4  C   UNL     1       9.281  14.602  26.248  0.00  0.00    +0.077 A 
ATOM      5  C   UNL     1       8.082  14.453  25.475  0.00  0.00    +0.048 A 
ATOM      6  C   UNL     1       8.049  13.410  24.522  0.00  0.00    +0.116 A 
ATOM      7  N   UNL     1       9.140  12.583  24.365  0.00  0.00    -0.223 NA
ATOM      8  C   UNL     1      10.281  12.754  25.126  0.00  0.00    +0.220 A 
ATOM      9  N   UNL     1      11.387  11.929  24.990  0.00  0.00    -0.283 N 
ATOM     36  H   UNL     1      12.212  12.093  25.565  0.00  0.00    +0.155 HD
ATOM     37  N   UNL     1      10.338  13.744  26.041  0.00  0.00    -0.214 NA
BRANCH   4   3
ATOM      1  C   UNL     1      10.008  16.402  29.644  0.00  0.00    +0.020 A 
ATOM      2  C   UNL     1       9.840  15.348  28.671  0.00  0.00    +0.013 A 
ATOM      3  C   UNL     1       9.467  15.655  27.296  0.00  0.00    +0.019 A 
ATOM     38  C   UNL     1       9.270  17.051  26.935  0.00  0.00    +0.120 A 
ATOM     39  N   UNL     1       9.437  18.045  27.894  0.00  0.00    -0.263 NA
ATOM     40  C   UNL     1       9.794  17.761  29.221  0.00  0.00    +0.111 A 
ENDBRANCH   4   3
ENDBRANCH  10   9
BRANCH  12  13
ATOM     13  N   UNL     1       9.846   7.373  23.715  0.00  0.00    -0.281 N 
ATOM     14  C   UNL     1       8.527   7.104  23.387  0.00  0.00    +0.248 C 
ATOM     30  O   UNL     1       7.722   7.945  23.014  0.00  0.00    -0.270 OA
ATOM     31  H   UNL     1      10.350   6.627  24.193  0.00  0.00    +0.155 HD
BRANCH  14  15
ATOM     15  C   UNL     1       8.026   5.701  23.503  0.00  0.00    +0.037 A 
ATOM     16  C   UNL     1       8.579   4.625  22.677  0.00  0.00    +0.013 A 
ATOM     17  C   UNL     1       8.066   3.284  22.797  0.00  0.00    +0.005 A 
ATOM     18  C   UNL     1       6.993   3.010  23.750  0.00  0.00    -0.033 A 
ATOM     28  C   UNL     1       6.466   4.095  24.561  0.00  0.00    +0.005 A 
ATOM     29  C   UNL     1       6.966   5.411  24.445  0.00  0.00    +0.013 A 
BRANCH  18  19
ATOM     19  C   UNL     1       6.370   1.613  23.930  0.00  0.00    +0.119 C 
BRANCH  19  20
ATOM     20  N   UNL     1       6.032   1.189  25.321  0.00  0.00    -0.302 NA
ATOM     21  C   UNL     1       7.198   0.465  26.001  0.00  0.00    +0.066 C 
ATOM     22  C   UNL     1       6.834   0.049  27.463  0.00  0.00    -0.064 C 
ATOM     23  N   UNL     1       5.585  -0.834  27.444  0.00  0.00    +0.379 N 
ATOM     24  C   UNL     1       5.275  -1.275  28.812  0.00  0.00    -0.096 C 
ATOM     25  H   UNL     1       5.823  -1.742  26.842  0.00  0.00    -0.082 HD
ATOM     26  C   UNL     1       4.422  -0.123  26.767  0.00  0.00    -0.064 C 
ATOM     27  C   UNL     1       4.804   0.312  25.325  0.00  0.00    +0.066 C 
ENDBRANCH  19  20
ENDBRANCH  18  19
ENDBRANCH  14  15
ENDBRANCH  12  13
TORSDOF 6
ENDMDL
MODEL 3
REMARK VINA RESULT:      -7.8      5.414     15.199
REMARK  Name = C:\Users\Docking\Desktop\test protocol\1iep_ligandH.pdb
REMARK  8 active torsions:
REMARK  status: ('A' for Active; 'I' for Inactive)
REMARK    1  A    between atoms: _5  and  _11
REMARK    2  A    between atoms: _19  and  _21
REMARK    3  A    between atoms: _22  and  _66
REMARK    4  A    between atoms: _27  and  _30
REMARK    5  A    between atoms: _32  and  _33
REMARK    6  A    between atoms: _38  and  _43
REMARK    7  A    between atoms: _43  and  _46
REMARK    8  A    between atoms: _53  and  _55
REMARK                            x       y       z     vdW  Elec       q    Type
REMARK                         _______ _______ _______ _____ _____    ______ ____
ROOT
ATOM     10  C   UNL     1      19.577  -0.067  17.206  0.00  0.00    +0.038 A 
ATOM     11  C   UNL     1      18.182   0.078  17.417  0.00  0.00    +0.047 A 
ATOM     12  C   UNL     1      17.569   1.393  17.520  0.00  0.00    +0.035 A 
ATOM     32  C   UNL     1      18.407   2.540  17.400  0.00  0.00    +0.024 A 
ATOM     33  C   UNL     1      19.827   2.411  17.187  0.00  0.00    +0.007 A 
ATOM     34  C   UNL     1      20.438   1.116  17.087  0.00  0.00    -0.029 A 
ATOM     35  C   UNL     1      21.966   1.037  16.865  0.00  0.00    +0.045 C 
ENDROOT
BRANCH  10   9
ATOM      4  C   UNL     1      21.108  -3.845  14.672  0.00  0.00    +0.077 A 
ATOM      5  C   UNL     1      20.789  -3.212  13.425  0.00  0.00    +0.048 A 
ATOM      6  C   UNL     1      20.227  -1.918  13.479  0.00  0.00    +0.116 A 
ATOM      7  N   UNL     1      20.004  -1.310  14.696  0.00  0.00    -0.223 NA
ATOM      8  C   UNL     1      20.321  -1.949  15.880  0.00  0.00    +0.220 A 
ATOM      9  N   UNL     1      20.112  -1.354  17.115  0.00  0.00    -0.283 N 
ATOM     36  H   UNL     1      20.353  -1.861  17.966  0.00  0.00    +0.155 HD
ATOM     37  N   UNL     1      20.858  -3.187  15.855  0.00  0.00    -0.214 NA
BRANCH   4   3
ATOM      1  C   UNL     1      22.552  -7.186  16.104  0.00  0.00    +0.020 A 
ATOM      2  C   UNL     1      21.968  -5.866  16.056  0.00  0.00    +0.013 A 
ATOM      3  C   UNL     1      21.711  -5.211  14.779  0.00  0.00    +0.019 A 
ATOM     38  C   UNL     1      22.058  -5.926  13.560  0.00  0.00    +0.120 A 
ATOM     39  N   UNL     1      22.620  -7.197  13.638  0.00  0.00    -0.263 NA
ATOM     40  C   UNL     1      22.874  -7.836  14.860  0.00  0.00    +0.111 A 
ENDBRANCH   4   3
ENDBRANCH  10   9
BRANCH  12  13
ATOM     13  N   UNL     1      16.160   1.602  17.741  0.00  0.00    -0.281 N 
ATOM     14  C   UNL     1      15.097   0.975  17.113  0.00  0.00    +0.248 C 
ATOM     30  O   UNL     1      15.196   0.288  16.107  0.00  0.00    -0.270 OA
ATOM     31  H   UNL     1      15.917   2.297  18.447  0.00  0.00    +0.155 HD
BRANCH  14  15
ATOM     15  C   UNL     1      13.722   1.148  17.674  0.00  0.00    +0.037 A 
ATOM     16  C   UNL     1      13.365   2.332  18.459  0.00  0.00    +0.013 A 
ATOM     17  C   UNL     1      12.037   2.466  19.004  0.00  0.00    +0.005 A 
ATOM     18  C   UNL     1      11.055   1.411  18.763  0.00  0.00    -0.033 A 
ATOM     28  C   UNL     1      11.435   0.249  17.977  0.00  0.00    +0.005 A 
ATOM     29  C   UNL     1      12.736   0.114  17.442  0.00  0.00    +0.013 A 
BRANCH  18  19
ATOM     19  C   UNL     1       9.621   1.460  19.323  0.00  0.00    +0.119 C 
BRANCH  19  20
ATOM     20  N   UNL     1       9.382   2.329  20.514  0.00  0.00    -0.302 NA
ATOM     21  C   UNL     1       8.554   1.616  21.588  0.00  0.00    +0.066 C 
ATOM     22  C   UNL     1       8.333   2.531  22.836  0.00  0.00    -0.064 C 
ATOM     23  N   UNL     1       7.650   3.829  22.399  0.00  0.00    +0.379 N 
ATOM     24  C   UNL     1       7.388   4.666  23.578  0.00  0.00    -0.096 C 
ATOM     25  H   UNL     1       6.667   3.559  21.950  0.00  0.00    -0.082 HD
ATOM     26  C   UNL     1       8.465   4.542  21.330  0.00  0.00    -0.064 C 
ATOM     27  C   UNL     1       8.705   3.614  20.106  0.00  0.00    +0.066 C 
ENDBRANCH  19  20
ENDBRANCH  18  19
ENDBRANCH  14  15
ENDBRANCH  12  13
TORSDOF 6
ENDMDL
MODEL 4
REMARK VINA RESULT:      -7.8      7.189     13.485
REMARK  Name = C:\Users\Docking\Desktop\test protocol\1iep_ligandH.pdb
REMARK  8 active torsions:
REMARK  status: ('A' for Active; 'I' for Inactive)
REMARK    1  A    between atoms: _5  and  _11
REMARK    2  A    between atoms: _19  and  _21
REMARK    3  A    between atoms: _22  and  _66
REMARK    4  A    between atoms: _27  and  _30
REMARK    5  A    between atoms: _32  and  _33
REMARK    6  A    between atoms: _38  and  _43
REMARK    7  A    between atoms: _43  and  _46
REMARK    8  A    between atoms: _53  and  _55
REMARK                            x       y       z     vdW  Elec       q    Type
REMARK                         _______ _______ _______ _____ _____    ______ ____
ROOT
ATOM     10  C   UNL     1      16.746   1.797  16.530  0.00  0.00    +0.038 A 
ATOM     11  C   UNL     1      17.508   0.609  16.391  0.00  0.00    +0.047 A 
ATOM     12  C   UNL     1      18.605   0.527  15.438  0.00  0.00    +0.035 A 
ATOM     32  C   UNL     1      18.899   1.674  14.646  0.00  0.00    +0.024 A 
ATOM     33  C   UNL     1      18.133   2.889  14.774  0.00  0.00    +0.007 A 
ATOM     34  C   UNL     1      17.049   2.975  15.710  0.00  0.00    -0.029 A 
ATOM     35  C   UNL     1      16.257   4.301  15.800  0.00  0.00    +0.045 C 
ENDROOT
BRANCH  10   9
ATOM      4  C   UNL     1      12.208   0.918  17.827  0.00  0.00    +0.077 A 
ATOM      5  C   UNL     1      11.878   0.393  16.534  0.00  0.00    +0.048 A 
ATOM      6  C   UNL     1      12.903   0.372  15.561  0.00  0.00    +0.116 A 
ATOM      7  N   UNL     1      14.160   0.845  15.869  0.00  0.00    -0.223 NA
ATOM      8  C   UNL     1      14.444   1.347  17.126  0.00  0.00    +0.220 A 
ATOM      9  N   UNL     1      15.704   1.820  17.460  0.00  0.00    -0.283 N 
ATOM     36  H   UNL     1      15.872   2.189  18.396  0.00  0.00    +0.155 HD
ATOM     37  N   UNL     1      13.483   1.379  18.072  0.00  0.00    -0.214 NA
BRANCH   4   3
ATOM      1  C   UNL     1       9.649  -0.030  20.629  0.00  0.00    +0.020 A 
ATOM      2  C   UNL     1      10.581  -0.167  19.534  0.00  0.00    +0.013 A 
ATOM      3  C   UNL     1      11.235   1.003  18.961  0.00  0.00    +0.019 A 
ATOM     38  C   UNL     1      10.922   2.308  19.525  0.00  0.00    +0.120 A 
ATOM     39  N   UNL     1      10.019   2.409  20.579  0.00  0.00    -0.263 NA
ATOM     40  C   UNL     1       9.383   1.290  21.137  0.00  0.00    +0.111 A 
ENDBRANCH   4   3
ENDBRANCH  10   9
BRANCH  12  13
ATOM     13  N   UNL     1      19.409  -0.655  15.247  0.00  0.00    -0.281 N 
ATOM     14  C   UNL     1      20.168  -1.330  16.189  0.00  0.00    +0.248 C 
ATOM     30  O   UNL     1      20.441  -0.895  17.298  0.00  0.00    -0.270 OA
ATOM     31  H   UNL     1      19.421  -1.039  14.302  0.00  0.00    +0.155 HD
BRANCH  14  15
ATOM     15  C   UNL     1      20.714  -2.678  15.844  0.00  0.00    +0.037 A 
ATOM     16  C   UNL     1      21.424  -2.911  14.584  0.00  0.00    +0.013 A 
ATOM     17  C   UNL     1      21.926  -4.225  14.269  0.00  0.00    +0.005 A 
ATOM     18  C   UNL     1      21.720  -5.317  15.217  0.00  0.00    -0.033 A 
ATOM     28  C   UNL     1      21.016  -5.057  16.462  0.00  0.00    +0.005 A 
ATOM     29  C   UNL     1      20.522  -3.771  16.774  0.00  0.00    +0.013 A 
BRANCH  18  19
ATOM     19  C   UNL     1      22.203  -6.755  14.953  0.00  0.00    +0.119 C 
BRANCH  19  20
ATOM     20  N   UNL     1      23.239  -7.309  15.876  0.00  0.00    -0.302 NA
ATOM     21  C   UNL     1      24.575  -7.541  15.166  0.00  0.00    +0.066 C 
ATOM     22  C   UNL     1      25.654  -8.099  16.151  0.00  0.00    -0.064 C 
ATOM     23  N   UNL     1      25.143  -9.396  16.781  0.00  0.00    +0.379 N 
ATOM     24  C   UNL     1      26.178  -9.954  17.663  0.00  0.00    -0.096 C 
ATOM     25  H   UNL     1      24.970 -10.127  15.957  0.00  0.00    -0.082 HD
ATOM     26  C   UNL     1      23.812  -9.174  17.487  0.00  0.00    -0.064 C 
ATOM     27  C   UNL     1      22.756  -8.592  16.506  0.00  0.00    +0.066 C 
ENDBRANCH  19  20
ENDBRANCH  18  19
ENDBRANCH  14  15
ENDBRANCH  12  13
TORSDOF 6
ENDMDL
MODEL 5
REMARK VINA RESULT:      -7.7      6.213     12.969
REMARK  Name = C:\Users\Docking\Desktop\test protocol\1iep_ligandH.pdb
REMARK  8 active torsions:
REMARK  status: ('A' for Active; 'I' for Inactive)
REMARK    1  A    between atoms: _5  and  _11
REMARK    2  A    between atoms: _19  and  _21
REMARK    3  A    between atoms: _22  and  _66
REMARK    4  A    between atoms: _27  and  _30
REMARK    5  A    between atoms: _32  and  _33
REMARK    6  A    between atoms: _38  and  _43
REMARK    7  A    between atoms: _43  and  _46
REMARK    8  A    between atoms: _53  and  _55
REMARK                            x       y       z     vdW  Elec       q    Type
REMARK                         _______ _______ _______ _____ _____    ______ ____
ROOT
ATOM     10  C   UNL     1      10.388   2.403  19.960  0.00  0.00    +0.038 A 
ATOM     11  C   UNL     1      10.179   3.750  20.350  0.00  0.00    +0.047 A 
ATOM     12  C   UNL     1       9.315   4.083  21.472  0.00  0.00    +0.035 A 
ATOM     32  C   UNL     1       8.682   3.018  22.176  0.00  0.00    +0.024 A 
ATOM     33  C   UNL     1       8.882   1.643  21.792  0.00  0.00    +0.007 A 
ATOM     34  C   UNL     1       9.731   1.308  20.685  0.00  0.00    -0.029 A 
ATOM     35  C   UNL     1       9.904  -0.183  20.313  0.00  0.00    +0.045 C 
ENDROOT
BRANCH  10   9
ATOM      4  C   UNL     1      11.228   2.042  15.248  0.00  0.00    +0.077 A 
ATOM      5  C   UNL     1       9.872   2.379  14.920  0.00  0.00    +0.048 A 
ATOM      6  C   UNL     1       8.989   2.630  15.994  0.00  0.00    +0.116 A 
ATOM      7  N   UNL     1       9.438   2.549  17.294  0.00  0.00    -0.223 NA
ATOM      8  C   UNL     1      10.752   2.220  17.575  0.00  0.00    +0.220 A 
ATOM      9  N   UNL     1      11.227   2.140  18.875  0.00  0.00    -0.283 N 
ATOM     36  H   UNL     1      12.201   1.887  19.041  0.00  0.00    +0.155 HD
ATOM     37  N   UNL     1      11.615   1.973  16.567  0.00  0.00    -0.214 NA
BRANCH   4   3
ATOM      1  C   UNL     1      13.941   0.224  13.095  0.00  0.00    +0.020 A 
ATOM      2  C   UNL     1      12.930   0.452  14.102  0.00  0.00    +0.013 A 
ATOM      3  C   UNL     1      12.281   1.751  14.224  0.00  0.00    +0.019 A 
ATOM     38  C   UNL     1      12.681   2.806  13.305  0.00  0.00    +0.120 A 
ATOM     39  N   UNL     1      13.658   2.558  12.347  0.00  0.00    -0.263 NA
ATOM     40  C   UNL     1      14.291   1.312  12.221  0.00  0.00    +0.111 A 
ENDBRANCH   4   3
ENDBRANCH  10   9
BRANCH  12  13
ATOM     13  N   UNL     1       9.059   5.433  21.910  0.00  0.00    -0.281 N 
ATOM     14  C   UNL     1       9.799   6.194  22.800  0.00  0.00    +0.248 C 
ATOM     30  O   UNL     1      10.679   5.752  23.522  0.00  0.00    -0.270 OA
ATOM     31  H   UNL     1       8.232   5.881  21.515  0.00  0.00    +0.155 HD
BRANCH  14  15
ATOM     15  C   UNL     1       9.508   7.656  22.914  0.00  0.00    +0.037 A 
ATOM     16  C   UNL     1       8.265   8.227  22.389  0.00  0.00    +0.013 A 
ATOM     17  C   UNL     1       8.018   9.643  22.498  0.00  0.00    +0.005 A 
ATOM     18  C   UNL     1       9.016  10.498  23.136  0.00  0.00    -0.033 A 
ATOM     28  C   UNL     1      10.238   9.904  23.652  0.00  0.00    +0.005 A 
ATOM     29  C   UNL     1      10.485   8.517  23.547  0.00  0.00    +0.013 A 
BRANCH  18  19
ATOM     19  C   UNL     1       8.845  12.022  23.276  0.00  0.00    +0.119 C 
BRANCH  19  20
ATOM     20  N   UNL     1       9.469  12.673  24.466  0.00  0.00    -0.302 NA
ATOM     21  C   UNL     1       8.638  12.468  25.736  0.00  0.00    +0.066 C 
ATOM     22  C   UNL     1       9.317  13.137  26.975  0.00  0.00    -0.064 C 
ATOM     23  N   UNL     1       9.523  14.627  26.698  0.00  0.00    +0.379 N 
ATOM     24  C   UNL     1      10.109  15.270  27.883  0.00  0.00    -0.096 C 
ATOM     25  H   UNL     1       8.520  15.081  26.527  0.00  0.00    -0.082 HD
ATOM     26  C   UNL     1      10.347  14.840  25.436  0.00  0.00    -0.064 C 
ATOM     27  C   UNL     1       9.678  14.147  24.216  0.00  0.00    +0.066 C 
ENDBRANCH  19  20
ENDBRANCH  18  19
ENDBRANCH  14  15
ENDBRANCH  12  13
TORSDOF 6
ENDMDL
