MODEL 1
REMARK VINA RESULT:      -7.4      0.000      0.000
REMARK  Name = C:\Users\Docking\Desktop\test protocol\1iep_ligandH.pdb
REMARK  8 active torsions:
REMARK  status: ('A' for Active; 'I' for Inactive)
REMARK    1  A    between atoms: _5  and  _11
REMARK    2  A    between atoms: _19  and  _21
REMARK    3  A    between atoms: _22  and  _66
REMARK    4  A    between atoms: _27  and  _30
REMARK    5  A    between atoms: _32  and  _33
REMARK    6  A    between atoms: _38  and  _43
REMARK    7  A    between atoms: _43  and  _46
REMARK    8  A    between atoms: _53  and  _55
REMARK                            x       y       z     vdW  Elec       q    Type
REMARK                         _______ _______ _______ _____ _____    ______ ____
ROOT
ATOM     10  C   UNL     1      33.179   4.962  18.120  0.00  0.00    +0.038 A 
ATOM     11  C   UNL     1      33.049   6.296  18.584  0.00  0.00    +0.047 A 
ATOM     12  C   UNL     1      32.252   6.609  19.761  0.00  0.00    +0.035 A 
ATOM     32  C   UNL     1      31.604   5.538  20.442  0.00  0.00    +0.024 A 
ATOM     33  C   UNL     1      31.725   4.177  19.984  0.00  0.00    +0.007 A 
ATOM     34  C   UNL     1      32.507   3.862  18.822  0.00  0.00    -0.029 A 
ATOM     35  C   UNL     1      32.596   2.385  18.372  0.00  0.00    +0.045 C 
ENDROOT
BRANCH  10   9
ATOM      4  C   UNL     1      33.760   4.713  13.362  0.00  0.00    +0.077 A 
ATOM      5  C   UNL     1      32.393   5.072  13.117  0.00  0.00    +0.048 A 
ATOM      6  C   UNL     1      31.571   5.306  14.243  0.00  0.00    +0.116 A 
ATOM      7  N   UNL     1      32.089   5.187  15.514  0.00  0.00    -0.223 NA
ATOM      8  C   UNL     1      33.412   4.837  15.716  0.00  0.00    +0.220 A 
ATOM      9  N   UNL     1      33.956   4.719  16.985  0.00  0.00    -0.283 N 
ATOM     36  H   UNL     1      34.934   4.452  17.092  0.00  0.00    +0.155 HD
ATOM     37  N   UNL     1      34.216   4.607  14.657  0.00  0.00    -0.214 NA
BRANCH   4   3
ATOM      1  C   UNL     1      36.060   5.098  10.222  0.00  0.00    +0.020 A 
ATOM      2  C   UNL     1      35.094   5.414  11.248  0.00  0.00    +0.013 A 
ATOM      3  C   UNL     1      34.753   4.438  12.276  0.00  0.00    +0.019 A 
ATOM     38  C   UNL     1      35.414   3.142  12.237  0.00  0.00    +0.120 A 
ATOM     39  N   UNL     1      36.340   2.866  11.236  0.00  0.00    -0.263 NA
ATOM     40  C   UNL     1      36.674   3.796  10.240  0.00  0.00    +0.111 A 
ENDBRANCH   4   3
ENDBRANCH  10   9
BRANCH  12  13
ATOM     13  N   UNL     1      32.077   7.945  20.274  0.00  0.00    -0.281 N 
ATOM     14  C   UNL     1      32.697   8.525  21.369  0.00  0.00    +0.248 C 
ATOM     30  O   UNL     1      33.340   7.908  22.206  0.00  0.00    -0.270 OA
ATOM     31  H   UNL     1      31.417   8.536  19.769  0.00  0.00    +0.155 HD
BRANCH  14  15
ATOM     15  C   UNL     1      32.571  10.000  21.573  0.00  0.00    +0.037 A 
ATOM     16  C   UNL     1      31.425  10.745  21.046  0.00  0.00    +0.013 A 
ATOM     17  C   UNL     1      31.338  12.171  21.242  0.00  0.00    +0.005 A 
ATOM     18  C   UNL     1      32.400  12.860  21.970  0.00  0.00    -0.033 A 
ATOM     28  C   UNL     1      33.523  12.096  22.486  0.00  0.00    +0.005 A 
ATOM     29  C   UNL     1      33.613  10.699  22.295  0.00  0.00    +0.013 A 
BRANCH  18  19
ATOM     19  C   UNL     1      32.400  14.382  22.207  0.00  0.00    +0.119 C 
BRANCH  19  20
ATOM     20  N   UNL     1      32.953  14.872  23.505  0.00  0.00    -0.302 NA
ATOM     21  C   UNL     1      31.975  14.660  24.664  0.00  0.00    +0.066 C 
ATOM     22  C   UNL     1      32.579  15.158  26.017  0.00  0.00    -0.064 C 
ATOM     23  N   UNL     1      32.958  16.634  25.891  0.00  0.00    +0.379 N 
ATOM     24  C   UNL     1      33.473  17.120  27.180  0.00  0.00    -0.096 C 
ATOM     25  H   UNL     1      32.028  17.204  25.662  0.00  0.00    -0.082 HD
ATOM     26  C   UNL     1      33.929  16.854  24.740  0.00  0.00    -0.064 C 
ATOM     27  C   UNL     1      33.331  16.329  23.404  0.00  0.00    +0.066 C 
ENDBRANCH  19  20
ENDBRANCH  18  19
ENDBRANCH  14  15
ENDBRANCH  12  13
TORSDOF 6
ENDMDL
MODEL 2
REMARK VINA RESULT:      -7.3      5.751     12.876
REMARK  Name = C:\Users\Docking\Desktop\test protocol\1iep_ligandH.pdb
REMARK  8 active torsions:
REMARK  status: ('A' for Active; 'I' for Inactive)
REMARK    1  A    between atoms: _5  and  _11
REMARK    2  A    between atoms: _19  and  _21
REMARK    3  A    between atoms: _22  and  _66
REMARK    4  A    between atoms: _27  and  _30
REMARK    5  A    between atoms: _32  and  _33
REMARK    6  A    between atoms: _38  and  _43
REMARK    7  A    between atoms: _43  and  _46
REMARK    8  A    between atoms: _53  and  _55
REMARK                            x       y       z     vdW  Elec       q    Type
REMARK                         _______ _______ _______ _____ _____    ______ ____
ROOT
ATOM     10  C   UNL     1      28.385   4.289  22.968  0.00  0.00    +0.038 A 
ATOM     11  C   UNL     1      29.153   4.204  21.779  0.00  0.00    +0.047 A 
ATOM     12  C   UNL     1      29.797   5.380  21.213  0.00  0.00    +0.035 A 
ATOM     32  C   UNL     1      29.639   6.626  21.887  0.00  0.00    +0.024 A 
ATOM     33  C   UNL     1      28.860   6.731  23.096  0.00  0.00    +0.007 A 
ATOM     34  C   UNL     1      28.221   5.575  23.657  0.00  0.00    -0.029 A 
ATOM     35  C   UNL     1      27.394   5.747  24.952  0.00  0.00    +0.045 C 
ENDROOT
BRANCH  10   9
ATOM      4  C   UNL     1      28.602   0.034  25.178  0.00  0.00    +0.077 A 
ATOM      5  C   UNL     1      30.026   0.118  25.328  0.00  0.00    +0.048 A 
ATOM      6  C   UNL     1      30.666   1.269  24.816  0.00  0.00    +0.116 A 
ATOM      7  N   UNL     1      29.926   2.257  24.203  0.00  0.00    -0.223 NA
ATOM      8  C   UNL     1      28.554   2.144  24.073  0.00  0.00    +0.220 A 
ATOM      9  N   UNL     1      27.789   3.128  23.467  0.00  0.00    -0.283 N 
ATOM     36  H   UNL     1      26.780   3.004  23.385  0.00  0.00    +0.155 HD
ATOM     37  N   UNL     1      27.920   1.053  24.553  0.00  0.00    -0.214 NA
BRANCH   4   3
ATOM      1  C   UNL     1      27.100  -2.783  27.439  0.00  0.00    +0.020 A 
ATOM      2  C   UNL     1      27.916  -1.669  27.013  0.00  0.00    +0.013 A 
ATOM      3  C   UNL     1      27.783  -1.118  25.670  0.00  0.00    +0.019 A 
ATOM     38  C   UNL     1      26.806  -1.722  24.776  0.00  0.00    +0.120 A 
ATOM     39  N   UNL     1      26.035  -2.794  25.213  0.00  0.00    -0.263 NA
ATOM     40  C   UNL     1      26.156  -3.334  26.503  0.00  0.00    +0.111 A 
ENDBRANCH   4   3
ENDBRANCH  10   9
BRANCH  12  13
ATOM     13  N   UNL     1      30.582   5.356  20.005  0.00  0.00    -0.281 N 
ATOM     14  C   UNL     1      31.670   4.550  19.711  0.00  0.00    +0.248 C 
ATOM     30  O   UNL     1      32.268   3.871  20.533  0.00  0.00    -0.270 OA
ATOM     31  H   UNL     1      30.302   6.014  19.277  0.00  0.00    +0.155 HD
BRANCH  14  15
ATOM     15  C   UNL     1      32.175   4.502  18.306  0.00  0.00    +0.037 A 
ATOM     16  C   UNL     1      32.878   3.324  17.790  0.00  0.00    +0.013 A 
ATOM     17  C   UNL     1      33.370   3.311  16.435  0.00  0.00    +0.005 A 
ATOM     18  C   UNL     1      33.159   4.481  15.585  0.00  0.00    -0.033 A 
ATOM     28  C   UNL     1      32.455   5.634  16.121  0.00  0.00    +0.005 A 
ATOM     29  C   UNL     1      31.972   5.651  17.448  0.00  0.00    +0.013 A 
BRANCH  18  19
ATOM     19  C   UNL     1      33.669   4.563  14.134  0.00  0.00    +0.119 C 
BRANCH  19  20
ATOM     20  N   UNL     1      34.924   3.823  13.807  0.00  0.00    -0.302 NA
ATOM     21  C   UNL     1      36.172   4.571  14.283  0.00  0.00    +0.066 C 
ATOM     22  C   UNL     1      37.475   3.772  13.953  0.00  0.00    -0.064 C 
ATOM     23  N   UNL     1      37.542   3.510  12.448  0.00  0.00    +0.379 N 
ATOM     24  C   UNL     1      38.794   2.810  12.127  0.00  0.00    -0.096 C 
ATOM     25  H   UNL     1      37.565   4.499  11.933  0.00  0.00    -0.082 HD
ATOM     26  C   UNL     1      36.303   2.769  11.966  0.00  0.00    -0.064 C 
ATOM     27  C   UNL     1      35.012   3.557  12.325  0.00  0.00    +0.066 C 
ENDBRANCH  19  20
ENDBRANCH  18  19
ENDBRANCH  14  15
ENDBRANCH  12  13
TORSDOF 6
ENDMDL
MODEL 3
REMARK VINA RESULT:      -7.3      5.686     13.038
REMARK  Name = C:\Users\Docking\Desktop\test protocol\1iep_ligandH.pdb
REMARK  8 active torsions:
REMARK  status: ('A' for Active; 'I' for Inactive)
REMARK    1  A    between atoms: _5  and  _11
REMARK    2  A    between atoms: _19  and  _21
REMARK    3  A    between atoms: _22  and  _66
REMARK    4  A    between atoms: _27  and  _30
REMARK    5  A    between atoms: _32  and  _33
REMARK    6  A    between atoms: _38  and  _43
REMARK    7  A    between atoms: _43  and  _46
REMARK    8  A    between atoms: _53  and  _55
REMARK                            x       y       z     vdW  Elec       q    Type
REMARK                         _______ _______ _______ _____ _____    ______ ____
ROOT
ATOM     10  C   UNL     1      28.891   4.536  22.577  0.00  0.00    +0.038 A 
ATOM     11  C   UNL     1      29.936   4.204  21.676  0.00  0.00    +0.047 A 
ATOM     12  C   UNL     1      30.813   5.228  21.130  0.00  0.00    +0.035 A 
ATOM     32  C   UNL     1      30.599   6.581  21.525  0.00  0.00    +0.024 A 
ATOM     33  C   UNL     1      29.541   6.936  22.438  0.00  0.00    +0.007 A 
ATOM     34  C   UNL     1      28.672   5.930  22.978  0.00  0.00    -0.029 A 
ATOM     35  C   UNL     1      27.550   6.370  23.948  0.00  0.00    +0.045 C 
ENDROOT
BRANCH  10   9
ATOM      4  C   UNL     1      28.203   0.559  25.175  0.00  0.00    +0.077 A 
ATOM      5  C   UNL     1      29.584   0.501  25.560  0.00  0.00    +0.048 A 
ATOM      6  C   UNL     1      30.440   1.509  25.062  0.00  0.00    +0.116 A 
ATOM      7  N   UNL     1      29.941   2.497  24.241  0.00  0.00    -0.223 NA
ATOM      8  C   UNL     1      28.604   2.523  23.888  0.00  0.00    +0.220 A 
ATOM      9  N   UNL     1      28.079   3.512  23.070  0.00  0.00    -0.283 N 
ATOM     36  H   UNL     1      27.090   3.492  22.827  0.00  0.00    +0.155 HD
ATOM     37  N   UNL     1      27.767   1.571  24.349  0.00  0.00    -0.214 NA
BRANCH   4   3
ATOM      1  C   UNL     1      26.484  -2.681  26.534  0.00  0.00    +0.020 A 
ATOM      2  C   UNL     1      27.516  -1.761  26.114  0.00  0.00    +0.013 A 
ATOM      3  C   UNL     1      27.175  -0.433  25.622  0.00  0.00    +0.019 A 
ATOM     38  C   UNL     1      25.768  -0.062  25.569  0.00  0.00    +0.120 A 
ATOM     39  N   UNL     1      24.796  -0.969  25.979  0.00  0.00    -0.263 NA
ATOM     40  C   UNL     1      25.113  -2.251  26.452  0.00  0.00    +0.111 A 
ENDBRANCH   4   3
ENDBRANCH  10   9
BRANCH  12  13
ATOM     13  N   UNL     1      31.885   4.952  20.206  0.00  0.00    -0.281 N 
ATOM     14  C   UNL     1      31.819   4.261  19.007  0.00  0.00    +0.248 C 
ATOM     30  O   UNL     1      30.864   3.588  18.649  0.00  0.00    -0.270 OA
ATOM     31  H   UNL     1      32.804   5.308  20.468  0.00  0.00    +0.155 HD
BRANCH  14  15
ATOM     15  C   UNL     1      32.988   4.314  18.078  0.00  0.00    +0.037 A 
ATOM     16  C   UNL     1      33.800   5.527  17.947  0.00  0.00    +0.013 A 
ATOM     17  C   UNL     1      34.913   5.557  17.031  0.00  0.00    +0.005 A 
ATOM     18  C   UNL     1      35.221   4.368  16.239  0.00  0.00    -0.033 A 
ATOM     28  C   UNL     1      34.402   3.177  16.393  0.00  0.00    +0.005 A 
ATOM     29  C   UNL     1      33.310   3.145  17.289  0.00  0.00    +0.013 A 
BRANCH  18  19
ATOM     19  C   UNL     1      36.376   4.317  15.222  0.00  0.00    +0.119 C 
BRANCH  19  20
ATOM     20  N   UNL     1      36.075   3.749  13.874  0.00  0.00    -0.302 NA
ATOM     21  C   UNL     1      37.343   3.292  13.147  0.00  0.00    +0.066 C 
ATOM     22  C   UNL     1      37.008   2.679  11.748  0.00  0.00    -0.064 C 
ATOM     23  N   UNL     1      36.246   3.709  10.913  0.00  0.00    +0.379 N 
ATOM     24  C   UNL     1      35.981   3.157   9.576  0.00  0.00    -0.096 C 
ATOM     25  H   UNL     1      36.908   4.598  10.786  0.00  0.00    -0.082 HD
ATOM     26  C   UNL     1      34.985   4.171  11.629  0.00  0.00    -0.064 C 
ATOM     27  C   UNL     1      35.327   4.751  13.030  0.00  0.00    +0.066 C 
ENDBRANCH  19  20
ENDBRANCH  18  19
ENDBRANCH  14  15
ENDBRANCH  12  13
TORSDOF 6
ENDMDL
MODEL 4
REMARK VINA RESULT:      -7.3      5.772      9.719
REMARK  Name = C:\Users\Docking\Desktop\test protocol\1iep_ligandH.pdb
REMARK  8 active torsions:
REMARK  status: ('A' for Active; 'I' for Inactive)
REMARK    1  A    between atoms: _5  and  _11
REMARK    2  A    between atoms: _19  and  _21
REMARK    3  A    between atoms: _22  and  _66
REMARK    4  A    between atoms: _27  and  _30
REMARK    5  A    between atoms: _32  and  _33
REMARK    6  A    between atoms: _38  and  _43
REMARK    7  A    between atoms: _43  and  _46
REMARK    8  A    between atoms: _53  and  _55
REMARK                            x       y       z     vdW  Elec       q    Type
REMARK                         _______ _______ _______ _____ _____    ______ ____
ROOT
ATOM     10  C   UNL     1      28.112   4.885  22.158  0.00  0.00    +0.038 A 
ATOM     11  C   UNL     1      28.959   6.018  22.260  0.00  0.00    +0.047 A 
ATOM     12  C   UNL     1      29.540   6.632  21.076  0.00  0.00    +0.035 A 
ATOM     32  C   UNL     1      29.235   6.067  19.803  0.00  0.00    +0.024 A 
ATOM     33  C   UNL     1      28.377   4.915  19.681  0.00  0.00    +0.007 A 
ATOM     34  C   UNL     1      27.803   4.304  20.846  0.00  0.00    -0.029 A 
ATOM     35  C   UNL     1      26.895   3.067  20.656  0.00  0.00    +0.045 C 
ENDROOT
BRANCH  10   9
ATOM      4  C   UNL     1      28.418   2.056  26.023  0.00  0.00    +0.077 A 
ATOM      5  C   UNL     1      29.736   1.615  25.669  0.00  0.00    +0.048 A 
ATOM      6  C   UNL     1      30.297   2.134  24.481  0.00  0.00    +0.116 A 
ATOM      7  N   UNL     1      29.584   3.028  23.712  0.00  0.00    -0.223 NA
ATOM      8  C   UNL     1      28.314   3.432  24.081  0.00  0.00    +0.220 A 
ATOM      9  N   UNL     1      27.581   4.336  23.327  0.00  0.00    -0.283 N 
ATOM     36  H   UNL     1      26.645   4.602  23.629  0.00  0.00    +0.155 HD
ATOM     37  N   UNL     1      27.755   2.949  25.211  0.00  0.00    -0.214 NA
BRANCH   4   3
ATOM      1  C   UNL     1      26.737  -0.192  28.747  0.00  0.00    +0.020 A 
ATOM      2  C   UNL     1      27.442   0.195  27.548  0.00  0.00    +0.013 A 
ATOM      3  C   UNL     1      27.692   1.600  27.251  0.00  0.00    +0.019 A 
ATOM     38  C   UNL     1      27.211   2.596  28.196  0.00  0.00    +0.120 A 
ATOM     39  N   UNL     1      26.533   2.194  29.343  0.00  0.00    -0.263 NA
ATOM     40  C   UNL     1      26.286   0.845  29.638  0.00  0.00    +0.111 A 
ENDBRANCH   4   3
ENDBRANCH  10   9
BRANCH  12  13
ATOM     13  N   UNL     1      30.414   7.778  21.118  0.00  0.00    -0.281 N 
ATOM     14  C   UNL     1      30.068   9.116  21.026  0.00  0.00    +0.248 C 
ATOM     30  O   UNL     1      28.970   9.524  20.677  0.00  0.00    -0.270 OA
ATOM     31  H   UNL     1      31.408   7.579  21.230  0.00  0.00    +0.155 HD
BRANCH  14  15
ATOM     15  C   UNL     1      31.094  10.152  21.355  0.00  0.00    +0.037 A 
ATOM     16  C   UNL     1      32.307   9.809  22.102  0.00  0.00    +0.013 A 
ATOM     17  C   UNL     1      33.273  10.831  22.421  0.00  0.00    +0.005 A 
ATOM     18  C   UNL     1      33.029  12.206  21.992  0.00  0.00    -0.033 A 
ATOM     28  C   UNL     1      31.820  12.517  21.248  0.00  0.00    +0.005 A 
ATOM     29  C   UNL     1      30.871  11.519  20.934  0.00  0.00    +0.013 A 
BRANCH  18  19
ATOM     19  C   UNL     1      33.995  13.364  22.307  0.00  0.00    +0.119 C 
BRANCH  19  20
ATOM     20  N   UNL     1      33.531  14.395  23.282  0.00  0.00    -0.302 NA
ATOM     21  C   UNL     1      34.576  15.492  23.499  0.00  0.00    +0.066 C 
ATOM     22  C   UNL     1      34.065  16.574  24.505  0.00  0.00    -0.064 C 
ATOM     23  N   UNL     1      33.702  15.903  25.831  0.00  0.00    +0.379 N 
ATOM     24  C   UNL     1      33.276  16.925  26.798  0.00  0.00    -0.096 C 
ATOM     25  H   UNL     1      34.625  15.423  26.231  0.00  0.00    -0.082 HD
ATOM     26  C   UNL     1      32.665  14.809  25.624  0.00  0.00    -0.064 C 
ATOM     27  C   UNL     1      33.170  13.754  24.600  0.00  0.00    +0.066 C 
ENDBRANCH  19  20
ENDBRANCH  18  19
ENDBRANCH  14  15
ENDBRANCH  12  13
TORSDOF 6
ENDMDL
MODEL 5
REMARK VINA RESULT:      -7.2      5.992     13.279
REMARK  Name = C:\Users\Docking\Desktop\test protocol\1iep_ligandH.pdb
REMARK  8 active torsions:
REMARK  status: ('A' for Active; 'I' for Inactive)
REMARK    1  A    between atoms: _5  and  _11
REMARK    2  A    between atoms: _19  and  _21
REMARK    3  A    between atoms: _22  and  _66
REMARK    4  A    between atoms: _27  and  _30
REMARK    5  A    between atoms: _32  and  _33
REMARK    6  A    between atoms: _38  and  _43
REMARK    7  A    between atoms: _43  and  _46
REMARK    8  A    between atoms: _53  and  _55
REMARK                            x       y       z     vdW  Elec       q    Type
REMARK                         _______ _______ _______ _____ _____    ______ ____
ROOT
ATOM     10  C   UNL     1      34.650  12.528  22.581  0.00  0.00    +0.038 A 
ATOM     11  C   UNL     1      33.769  11.455  22.872  0.00  0.00    +0.047 A 
ATOM     12  C   UNL     1      33.631  10.328  21.963  0.00  0.00    +0.035 A 
ATOM     32  C   UNL     1      34.407  10.325  20.767  0.00  0.00    +0.024 A 
ATOM     33  C   UNL     1      35.307  11.408  20.456  0.00  0.00    +0.007 A 
ATOM     34  C   UNL     1      35.445  12.524  21.348  0.00  0.00    -0.029 A 
ATOM     35  C   UNL     1      36.420  13.660  20.960  0.00  0.00    +0.045 C 
ENDROOT
BRANCH  10   9
ATOM      4  C   UNL     1      32.793  16.311  24.880  0.00  0.00    +0.077 A 
ATOM      5  C   UNL     1      31.540  16.188  24.193  0.00  0.00    +0.048 A 
ATOM      6  C   UNL     1      31.416  15.142  23.251  0.00  0.00    +0.116 A 
ATOM      7  N   UNL     1      32.474  14.289  23.021  0.00  0.00    -0.223 NA
ATOM      8  C   UNL     1      33.669  14.437  23.699  0.00  0.00    +0.220 A 
ATOM      9  N   UNL     1      34.743  13.585  23.490  0.00  0.00    -0.283 N 
ATOM     36  H   UNL     1      35.611  13.732  24.005  0.00  0.00    +0.155 HD
ATOM     37  N   UNL     1      33.813  15.428  24.603  0.00  0.00    -0.214 NA
BRANCH   4   3
ATOM      1  C   UNL     1      33.941  18.121  28.152  0.00  0.00    +0.020 A 
ATOM      2  C   UNL     1      33.688  17.067  27.196  0.00  0.00    +0.013 A 
ATOM      3  C   UNL     1      33.077  17.363  25.906  0.00  0.00    +0.019 A 
ATOM     38  C   UNL     1      32.733  18.746  25.612  0.00  0.00    +0.120 A 
ATOM     39  N   UNL     1      32.987  19.739  26.553  0.00  0.00    -0.263 NA
ATOM     40  C   UNL     1      33.573  19.466  27.798  0.00  0.00    +0.111 A 
ENDBRANCH   4   3
ENDBRANCH  10   9
BRANCH  12  13
ATOM     13  N   UNL     1      32.746   9.214  22.200  0.00  0.00    -0.281 N 
ATOM     14  C   UNL     1      31.409   9.101  21.858  0.00  0.00    +0.248 C 
ATOM     30  O   UNL     1      30.710  10.030  21.483  0.00  0.00    -0.270 OA
ATOM     31  H   UNL     1      33.156   8.412  22.679  0.00  0.00    +0.155 HD
BRANCH  14  15
ATOM     15  C   UNL     1      30.748   7.764  21.961  0.00  0.00    +0.037 A 
ATOM     16  C   UNL     1      29.652   7.528  22.904  0.00  0.00    +0.013 A 
ATOM     17  C   UNL     1      29.044   6.225  22.996  0.00  0.00    +0.005 A 
ATOM     18  C   UNL     1      29.531   5.146  22.139  0.00  0.00    -0.033 A 
ATOM     28  C   UNL     1      30.616   5.409  21.208  0.00  0.00    +0.005 A 
ATOM     29  C   UNL     1      31.215   6.685  21.116  0.00  0.00    +0.013 A 
BRANCH  18  19
ATOM     19  C   UNL     1      28.955   3.718  22.183  0.00  0.00    +0.119 C 
BRANCH  19  20
ATOM     20  N   UNL     1      28.631   3.153  23.527  0.00  0.00    -0.302 NA
ATOM     21  C   UNL     1      29.820   2.407  24.139  0.00  0.00    +0.066 C 
ATOM     22  C   UNL     1      29.471   1.842  25.554  0.00  0.00    -0.064 C 
ATOM     23  N   UNL     1      28.252   0.924  25.447  0.00  0.00    +0.379 N 
ATOM     24  C   UNL     1      27.956   0.345  26.766  0.00  0.00    -0.096 C 
ATOM     25  H   UNL     1      28.519   0.086  24.762  0.00  0.00    -0.082 HD
ATOM     26  C   UNL     1      27.066   1.658  24.838  0.00  0.00    -0.064 C 
ATOM     27  C   UNL     1      27.432   2.240  23.445  0.00  0.00    +0.066 C 
ENDBRANCH  19  20
ENDBRANCH  18  19
ENDBRANCH  14  15
ENDBRANCH  12  13
TORSDOF 6
ENDMDL
