MODEL 1
REMARK VINA RESULT:      -7.0      0.000      0.000
REMARK  Name = C:\Users\Docking\Desktop\test protocol\1iep_ligandH.pdb
REMARK  8 active torsions:
REMARK  status: ('A' for Active; 'I' for Inactive)
REMARK    1  A    between atoms: _5  and  _11
REMARK    2  A    between atoms: _19  and  _21
REMARK    3  A    between atoms: _22  and  _66
REMARK    4  A    between atoms: _27  and  _30
REMARK    5  A    between atoms: _32  and  _33
REMARK    6  A    between atoms: _38  and  _43
REMARK    7  A    between atoms: _43  and  _46
REMARK    8  A    between atoms: _53  and  _55
REMARK                            x       y       z     vdW  Elec       q    Type
REMARK                         _______ _______ _______ _____ _____    ______ ____
ROOT
ATOM     10  C   UNL     1      28.201  13.827  27.779  0.00  0.00    +0.038 A 
ATOM     11  C   UNL     1      27.481  14.429  26.715  0.00  0.00    +0.047 A 
ATOM     12  C   UNL     1      26.882  15.746  26.863  0.00  0.00    +0.035 A 
ATOM     32  C   UNL     1      27.038  16.423  28.108  0.00  0.00    +0.024 A 
ATOM     33  C   UNL     1      27.766  15.826  29.200  0.00  0.00    +0.007 A 
ATOM     34  C   UNL     1      28.357  14.525  29.060  0.00  0.00    -0.029 A 
ATOM     35  C   UNL     1      29.120  13.930  30.266  0.00  0.00    +0.045 C 
ENDROOT
BRANCH  10   9
ATOM      4  C   UNL     1      27.853   9.047  27.523  0.00  0.00    +0.077 A 
ATOM      5  C   UNL     1      26.453   9.073  27.834  0.00  0.00    +0.048 A 
ATOM      6  C   UNL     1      25.862  10.336  28.061  0.00  0.00    +0.116 A 
ATOM      7  N   UNL     1      26.624  11.481  27.978  0.00  0.00    -0.223 NA
ATOM      8  C   UNL     1      27.972  11.421  27.677  0.00  0.00    +0.220 A 
ATOM      9  N   UNL     1      28.756  12.560  27.582  0.00  0.00    -0.283 N 
ATOM     36  H   UNL     1      29.749  12.473  27.365  0.00  0.00    +0.155 HD
ATOM     37  N   UNL     1      28.561  10.226  27.458  0.00  0.00    -0.214 NA
BRANCH   4   3
ATOM      1  C   UNL     1      28.793   5.404  26.451  0.00  0.00    +0.020 A 
ATOM      2  C   UNL     1      28.008   6.593  26.691  0.00  0.00    +0.013 A 
ATOM      3  C   UNL     1      28.620   7.789  27.255  0.00  0.00    +0.019 A 
ATOM     38  C   UNL     1      30.041   7.750  27.566  0.00  0.00    +0.120 A 
ATOM     39  N   UNL     1      30.772   6.591  27.326  0.00  0.00    -0.263 NA
ATOM     40  C   UNL     1      30.193   5.433  26.785  0.00  0.00    +0.111 A 
ENDBRANCH   4   3
ENDBRANCH  10   9
BRANCH  12  13
ATOM     13  N   UNL     1      26.133  16.404  25.822  0.00  0.00    -0.281 N 
ATOM     14  C   UNL     1      24.955  17.122  25.944  0.00  0.00    +0.248 C 
ATOM     30  O   UNL     1      24.249  17.127  26.941  0.00  0.00    -0.270 OA
ATOM     31  H   UNL     1      26.519  16.332  24.880  0.00  0.00    +0.155 HD
BRANCH  14  15
ATOM     15  C   UNL     1      24.486  17.942  24.785  0.00  0.00    +0.037 A 
ATOM     16  C   UNL     1      25.130  17.843  23.473  0.00  0.00    +0.013 A 
ATOM     17  C   UNL     1      24.668  18.657  22.377  0.00  0.00    +0.005 A 
ATOM     18  C   UNL     1      23.554  19.578  22.589  0.00  0.00    -0.033 A 
ATOM     28  C   UNL     1      22.930  19.653  23.900  0.00  0.00    +0.005 A 
ATOM     29  C   UNL     1      23.380  18.857  24.976  0.00  0.00    +0.013 A 
BRANCH  18  19
ATOM     19  C   UNL     1      23.010  20.501  21.482  0.00  0.00    +0.119 C 
BRANCH  19  20
ATOM     20  N   UNL     1      21.564  20.869  21.549  0.00  0.00    -0.302 NA
ATOM     21  C   UNL     1      20.789  20.375  20.324  0.00  0.00    +0.066 C 
ATOM     22  C   UNL     1      19.274  20.748  20.421  0.00  0.00    -0.064 C 
ATOM     23  N   UNL     1      19.134  22.264  20.575  0.00  0.00    +0.379 N 
ATOM     24  C   UNL     1      17.709  22.624  20.607  0.00  0.00    -0.096 C 
ATOM     25  H   UNL     1      19.583  22.738  19.671  0.00  0.00    -0.082 HD
ATOM     26  C   UNL     1      19.904  22.764  21.788  0.00  0.00    -0.064 C 
ATOM     27  C   UNL     1      21.403  22.362  21.697  0.00  0.00    +0.066 C 
ENDBRANCH  19  20
ENDBRANCH  18  19
ENDBRANCH  14  15
ENDBRANCH  12  13
TORSDOF 6
ENDMDL
MODEL 2
REMARK VINA RESULT:      -6.6      9.382     18.730
REMARK  Name = C:\Users\Docking\Desktop\test protocol\1iep_ligandH.pdb
REMARK  8 active torsions:
REMARK  status: ('A' for Active; 'I' for Inactive)
REMARK    1  A    between atoms: _5  and  _11
REMARK    2  A    between atoms: _19  and  _21
REMARK    3  A    between atoms: _22  and  _66
REMARK    4  A    between atoms: _27  and  _30
REMARK    5  A    between atoms: _32  and  _33
REMARK    6  A    between atoms: _38  and  _43
REMARK    7  A    between atoms: _43  and  _46
REMARK    8  A    between atoms: _53  and  _55
REMARK                            x       y       z     vdW  Elec       q    Type
REMARK                         _______ _______ _______ _____ _____    ______ ____
ROOT
ATOM     10  C   UNL     1      28.741   2.297  24.129  0.00  0.00    +0.038 A 
ATOM     11  C   UNL     1      27.900   1.266  24.619  0.00  0.00    +0.047 A 
ATOM     12  C   UNL     1      28.143  -0.128  24.279  0.00  0.00    +0.035 A 
ATOM     32  C   UNL     1      29.252  -0.435  23.438  0.00  0.00    +0.024 A 
ATOM     33  C   UNL     1      30.116   0.602  22.930  0.00  0.00    +0.007 A 
ATOM     34  C   UNL     1      29.880   1.978  23.260  0.00  0.00    -0.029 A 
ATOM     35  C   UNL     1      30.835   3.048  22.682  0.00  0.00    +0.045 C 
ENDROOT
BRANCH  10   9
ATOM      4  C   UNL     1      28.872   5.960  27.229  0.00  0.00    +0.077 A 
ATOM      5  C   UNL     1      29.528   5.167  28.228  0.00  0.00    +0.048 A 
ATOM      6  C   UNL     1      29.807   3.819  27.908  0.00  0.00    +0.116 A 
ATOM      7  N   UNL     1      29.453   3.313  26.676  0.00  0.00    -0.223 NA
ATOM      8  C   UNL     1      28.820   4.104  25.735  0.00  0.00    +0.220 A 
ATOM      9  N   UNL     1      28.462   3.618  24.487  0.00  0.00    -0.283 N 
ATOM     36  H   UNL     1      27.990   4.232  23.824  0.00  0.00    +0.155 HD
ATOM     37  N   UNL     1      28.541   5.394  26.018  0.00  0.00    -0.214 NA
BRANCH   4   3
ATOM      1  C   UNL     1      29.016   9.868  27.267  0.00  0.00    +0.020 A 
ATOM      2  C   UNL     1      29.412   8.493  27.066  0.00  0.00    +0.013 A 
ATOM      3  C   UNL     1      28.513   7.401  27.416  0.00  0.00    +0.019 A 
ATOM     38  C   UNL     1      27.210   7.736  27.971  0.00  0.00    +0.120 A 
ATOM     39  N   UNL     1      26.857   9.070  28.155  0.00  0.00    -0.263 NA
ATOM     40  C   UNL     1      27.715  10.129  27.823  0.00  0.00    +0.111 A 
ENDBRANCH   4   3
ENDBRANCH  10   9
BRANCH  12  13
ATOM     13  N   UNL     1      27.319  -1.217  24.741  0.00  0.00    -0.281 N 
ATOM     14  C   UNL     1      27.050  -1.587  26.048  0.00  0.00    +0.248 C 
ATOM     30  O   UNL     1      27.653  -1.165  27.024  0.00  0.00    -0.270 OA
ATOM     31  H   UNL     1      26.880  -1.785  24.015  0.00  0.00    +0.155 HD
BRANCH  14  15
ATOM     15  C   UNL     1      25.965  -2.581  26.309  0.00  0.00    +0.037 A 
ATOM     16  C   UNL     1      25.468  -3.460  25.248  0.00  0.00    +0.013 A 
ATOM     17  C   UNL     1      24.409  -4.398  25.522  0.00  0.00    +0.005 A 
ATOM     18  C   UNL     1      23.839  -4.462  26.866  0.00  0.00    -0.033 A 
ATOM     28  C   UNL     1      24.354  -3.582  27.901  0.00  0.00    +0.005 A 
ATOM     29  C   UNL     1      25.391  -2.661  27.636  0.00  0.00    +0.013 A 
BRANCH  18  19
ATOM     19  C   UNL     1      22.691  -5.418  27.243  0.00  0.00    +0.119 C 
BRANCH  19  20
ATOM     20  N   UNL     1      22.515  -5.737  28.691  0.00  0.00    -0.302 NA
ATOM     21  C   UNL     1      22.667  -7.234  28.972  0.00  0.00    +0.066 C 
ATOM     22  C   UNL     1      22.502  -7.547  30.495  0.00  0.00    -0.064 C 
ATOM     23  N   UNL     1      21.139  -7.042  30.972  0.00  0.00    +0.379 N 
ATOM     24  C   UNL     1      20.957  -7.387  32.389  0.00  0.00    -0.096 C 
ATOM     25  H   UNL     1      20.357  -7.582  30.389  0.00  0.00    -0.082 HD
ATOM     26  C   UNL     1      20.979  -5.555  30.694  0.00  0.00    -0.064 C 
ATOM     27  C   UNL     1      21.174  -5.251  29.182  0.00  0.00    +0.066 C 
ENDBRANCH  19  20
ENDBRANCH  18  19
ENDBRANCH  14  15
ENDBRANCH  12  13
TORSDOF 6
ENDMDL
MODEL 3
REMARK VINA RESULT:      -6.5     12.215     18.292
REMARK  Name = C:\Users\Docking\Desktop\test protocol\1iep_ligandH.pdb
REMARK  8 active torsions:
REMARK  status: ('A' for Active; 'I' for Inactive)
REMARK    1  A    between atoms: _5  and  _11
REMARK    2  A    between atoms: _19  and  _21
REMARK    3  A    between atoms: _22  and  _66
REMARK    4  A    between atoms: _27  and  _30
REMARK    5  A    between atoms: _32  and  _33
REMARK    6  A    between atoms: _38  and  _43
REMARK    7  A    between atoms: _43  and  _46
REMARK    8  A    between atoms: _53  and  _55
REMARK                            x       y       z     vdW  Elec       q    Type
REMARK                         _______ _______ _______ _____ _____    ______ ____
ROOT
ATOM     10  C   UNL     1      10.869  14.630  32.045  0.00  0.00    +0.038 A 
ATOM     11  C   UNL     1      12.063  13.925  32.340  0.00  0.00    +0.047 A 
ATOM     12  C   UNL     1      12.225  13.212  33.598  0.00  0.00    +0.035 A 
ATOM     32  C   UNL     1      11.149  13.237  34.532  0.00  0.00    +0.024 A 
ATOM     33  C   UNL     1       9.928  13.951  34.249  0.00  0.00    +0.007 A 
ATOM     34  C   UNL     1       9.764  14.657  33.011  0.00  0.00    -0.029 A 
ATOM     35  C   UNL     1       8.436  15.410  32.763  0.00  0.00    +0.045 C 
ENDROOT
BRANCH  10   9
ATOM      4  C   UNL     1      11.421  18.518  29.285  0.00  0.00    +0.077 A 
ATOM      5  C   UNL     1      11.930  19.295  30.378  0.00  0.00    +0.048 A 
ATOM      6  C   UNL     1      12.028  18.659  31.636  0.00  0.00    +0.116 A 
ATOM      7  N   UNL     1      11.642  17.343  31.778  0.00  0.00    -0.223 NA
ATOM      8  C   UNL     1      11.153  16.623  30.704  0.00  0.00    +0.220 A 
ATOM      9  N   UNL     1      10.767  15.297  30.822  0.00  0.00    -0.283 N 
ATOM     36  H   UNL     1      10.405  14.803  30.007  0.00  0.00    +0.155 HD
ATOM     37  N   UNL     1      11.049  17.208  29.492  0.00  0.00    -0.214 NA
BRANCH   4   3
ATOM      1  C   UNL     1      11.323  20.906  26.188  0.00  0.00    +0.020 A 
ATOM      2  C   UNL     1      11.491  20.445  27.547  0.00  0.00    +0.013 A 
ATOM      3  C   UNL     1      11.262  19.048  27.894  0.00  0.00    +0.019 A 
ATOM     38  C   UNL     1      10.862  18.136  26.833  0.00  0.00    +0.120 A 
ATOM     39  N   UNL     1      10.707  18.608  25.533  0.00  0.00    -0.263 NA
ATOM     40  C   UNL     1      10.923  19.951  25.189  0.00  0.00    +0.111 A 
ENDBRANCH   4   3
ENDBRANCH  10   9
BRANCH  12  13
ATOM     13  N   UNL     1      13.418  12.485  33.956  0.00  0.00    -0.281 N 
ATOM     14  C   UNL     1      13.552  11.124  34.176  0.00  0.00    +0.248 C 
ATOM     30  O   UNL     1      12.616  10.350  34.308  0.00  0.00    -0.270 OA
ATOM     31  H   UNL     1      14.267  13.042  34.059  0.00  0.00    +0.155 HD
BRANCH  14  15
ATOM     15  C   UNL     1      14.924  10.541  34.279  0.00  0.00    +0.037 A 
ATOM     16  C   UNL     1      15.283   9.312  33.568  0.00  0.00    +0.013 A 
ATOM     17  C   UNL     1      16.608   8.761  33.698  0.00  0.00    +0.005 A 
ATOM     18  C   UNL     1      17.587   9.441  34.543  0.00  0.00    -0.033 A 
ATOM     28  C   UNL     1      17.206  10.662  35.234  0.00  0.00    +0.005 A 
ATOM     29  C   UNL     1      15.907  11.205  35.109  0.00  0.00    +0.013 A 
BRANCH  18  19
ATOM     19  C   UNL     1      19.018   8.914  34.757  0.00  0.00    +0.119 C 
BRANCH  19  20
ATOM     20  N   UNL     1      20.125   9.917  34.747  0.00  0.00    -0.302 NA
ATOM     21  C   UNL     1      20.512  10.332  33.325  0.00  0.00    +0.066 C 
ATOM     22  C   UNL     1      21.655  11.397  33.335  0.00  0.00    -0.064 C 
ATOM     23  N   UNL     1      22.865  10.836  34.083  0.00  0.00    +0.379 N 
ATOM     24  C   UNL     1      23.963  11.814  34.044  0.00  0.00    -0.096 C 
ATOM     25  H   UNL     1      23.205   9.924  33.540  0.00  0.00    -0.082 HD
ATOM     26  C   UNL     1      22.489  10.419  35.498  0.00  0.00    -0.064 C 
ATOM     27  C   UNL     1      21.332   9.381  35.478  0.00  0.00    +0.066 C 
ENDBRANCH  19  20
ENDBRANCH  18  19
ENDBRANCH  14  15
ENDBRANCH  12  13
TORSDOF 6
ENDMDL
MODEL 4
REMARK VINA RESULT:      -6.4      7.685     14.488
REMARK  Name = C:\Users\Docking\Desktop\test protocol\1iep_ligandH.pdb
REMARK  8 active torsions:
REMARK  status: ('A' for Active; 'I' for Inactive)
REMARK    1  A    between atoms: _5  and  _11
REMARK    2  A    between atoms: _19  and  _21
REMARK    3  A    between atoms: _22  and  _66
REMARK    4  A    between atoms: _27  and  _30
REMARK    5  A    between atoms: _32  and  _33
REMARK    6  A    between atoms: _38  and  _43
REMARK    7  A    between atoms: _43  and  _46
REMARK    8  A    between atoms: _53  and  _55
REMARK                            x       y       z     vdW  Elec       q    Type
REMARK                         _______ _______ _______ _____ _____    ______ ____
ROOT
ATOM     10  C   UNL     1      27.265  -0.929  25.884  0.00  0.00    +0.038 A 
ATOM     11  C   UNL     1      27.552   0.394  26.309  0.00  0.00    +0.047 A 
ATOM     12  C   UNL     1      28.751   1.085  25.861  0.00  0.00    +0.035 A 
ATOM     32  C   UNL     1      29.635   0.400  24.978  0.00  0.00    +0.024 A 
ATOM     33  C   UNL     1      29.360  -0.945  24.536  0.00  0.00    +0.007 A 
ATOM     34  C   UNL     1      28.180  -1.632  24.977  0.00  0.00    -0.029 A 
ATOM     35  C   UNL     1      27.939  -3.076  24.477  0.00  0.00    +0.045 C 
ENDROOT
BRANCH  10   9
ATOM      4  C   UNL     1      24.804  -3.398  29.183  0.00  0.00    +0.077 A 
ATOM      5  C   UNL     1      25.944  -3.492  30.049  0.00  0.00    +0.048 A 
ATOM      6  C   UNL     1      27.147  -2.898  29.605  0.00  0.00    +0.116 A 
ATOM      7  N   UNL     1      27.194  -2.259  28.385  0.00  0.00    -0.223 NA
ATOM      8  C   UNL     1      26.077  -2.189  27.573  0.00  0.00    +0.220 A 
ATOM      9  N   UNL     1      26.100  -1.545  26.345  0.00  0.00    -0.283 N 
ATOM     36  H   UNL     1      25.256  -1.521  25.773  0.00  0.00    +0.155 HD
ATOM     37  N   UNL     1      24.917  -2.749  27.973  0.00  0.00    -0.214 NA
BRANCH   4   3
ATOM      1  C   UNL     1      21.566  -4.454  31.106  0.00  0.00    +0.020 A 
ATOM      2  C   UNL     1      22.865  -3.882  30.840  0.00  0.00    +0.013 A 
ATOM      3  C   UNL     1      23.462  -3.973  29.513  0.00  0.00    +0.019 A 
ATOM     38  C   UNL     1      22.711  -4.655  28.469  0.00  0.00    +0.120 A 
ATOM     39  N   UNL     1      21.462  -5.197  28.755  0.00  0.00    -0.263 NA
ATOM     40  C   UNL     1      20.879  -5.117  30.029  0.00  0.00    +0.111 A 
ENDBRANCH   4   3
ENDBRANCH  10   9
BRANCH  12  13
ATOM     13  N   UNL     1      29.098   2.425  26.266  0.00  0.00    -0.281 N 
ATOM     14  C   UNL     1      28.964   3.596  25.538  0.00  0.00    +0.248 C 
ATOM     30  O   UNL     1      28.721   3.642  24.341  0.00  0.00    -0.270 OA
ATOM     31  H   UNL     1      29.491   2.521  27.202  0.00  0.00    +0.155 HD
BRANCH  14  15
ATOM     15  C   UNL     1      29.139   4.905  26.238  0.00  0.00    +0.037 A 
ATOM     16  C   UNL     1      30.456   5.348  26.702  0.00  0.00    +0.013 A 
ATOM     17  C   UNL     1      30.594   6.608  27.389  0.00  0.00    +0.005 A 
ATOM     18  C   UNL     1      29.410   7.434  27.616  0.00  0.00    -0.033 A 
ATOM     28  C   UNL     1      28.117   6.972  27.140  0.00  0.00    +0.005 A 
ATOM     29  C   UNL     1      27.977   5.738  26.467  0.00  0.00    +0.013 A 
BRANCH  18  19
ATOM     19  C   UNL     1      29.461   8.782  28.359  0.00  0.00    +0.119 C 
BRANCH  19  20
ATOM     20  N   UNL     1      28.823   9.955  27.691  0.00  0.00    -0.302 NA
ATOM     21  C   UNL     1      29.835  11.062  27.383  0.00  0.00    +0.066 C 
ATOM     22  C   UNL     1      29.154  12.272  26.664  0.00  0.00    -0.064 C 
ATOM     23  N   UNL     1      28.017  12.806  27.537  0.00  0.00    +0.379 N 
ATOM     24  C   UNL     1      27.413  13.980  26.891  0.00  0.00    -0.096 C 
ATOM     25  H   UNL     1      28.462  13.142  28.502  0.00  0.00    -0.082 HD
ATOM     26  C   UNL     1      27.007  11.711  27.850  0.00  0.00    -0.064 C 
ATOM     27  C   UNL     1      27.699  10.501  28.538  0.00  0.00    +0.066 C 
ENDBRANCH  19  20
ENDBRANCH  18  19
ENDBRANCH  14  15
ENDBRANCH  12  13
TORSDOF 6
ENDMDL
MODEL 5
REMARK VINA RESULT:      -6.4     14.986     21.106
REMARK  Name = C:\Users\Docking\Desktop\test protocol\1iep_ligandH.pdb
REMARK  8 active torsions:
REMARK  status: ('A' for Active; 'I' for Inactive)
REMARK    1  A    between atoms: _5  and  _11
REMARK    2  A    between atoms: _19  and  _21
REMARK    3  A    between atoms: _22  and  _66
REMARK    4  A    between atoms: _27  and  _30
REMARK    5  A    between atoms: _32  and  _33
REMARK    6  A    between atoms: _38  and  _43
REMARK    7  A    between atoms: _43  and  _46
REMARK    8  A    between atoms: _53  and  _55
REMARK                            x       y       z     vdW  Elec       q    Type
REMARK                         _______ _______ _______ _____ _____    ______ ____
ROOT
ATOM     10  C   UNL     1      13.550   5.117  21.241  0.00  0.00    +0.038 A 
ATOM     11  C   UNL     1      14.383   4.097  20.713  0.00  0.00    +0.047 A 
ATOM     12  C   UNL     1      13.978   2.700  20.752  0.00  0.00    +0.035 A 
ATOM     32  C   UNL     1      12.717   2.378  21.332  0.00  0.00    +0.024 A 
ATOM     33  C   UNL     1      11.858   3.401  21.874  0.00  0.00    +0.007 A 
ATOM     34  C   UNL     1      12.253   4.781  21.841  0.00  0.00    -0.029 A 
ATOM     35  C   UNL     1      11.295   5.835  22.442  0.00  0.00    +0.045 C 
ENDROOT
BRANCH  10   9
ATOM      4  C   UNL     1      14.293   9.220  18.864  0.00  0.00    +0.077 A 
ATOM      5  C   UNL     1      13.792   8.669  17.638  0.00  0.00    +0.048 A 
ATOM      6  C   UNL     1      13.359   7.324  17.659  0.00  0.00    +0.116 A 
ATOM      7  N   UNL     1      13.427   6.594  18.826  0.00  0.00    -0.223 NA
ATOM      8  C   UNL     1      13.917   7.155  19.991  0.00  0.00    +0.220 A 
ATOM      9  N   UNL     1      13.987   6.441  21.177  0.00  0.00    -0.283 N 
ATOM     36  H   UNL     1      14.363   6.889  22.013  0.00  0.00    +0.155 HD
ATOM     37  N   UNL     1      14.338   8.437  19.996  0.00  0.00    -0.214 NA
BRANCH   4   3
ATOM      1  C   UNL     1      16.206  12.403  20.094  0.00  0.00    +0.020 A 
ATOM      2  C   UNL     1      15.764  11.030  20.003  0.00  0.00    +0.013 A 
ATOM      3  C   UNL     1      14.785  10.627  19.002  0.00  0.00    +0.019 A 
ATOM     38  C   UNL     1      14.269  11.646  18.099  0.00  0.00    +0.120 A 
ATOM     39  N   UNL     1      14.712  12.960  18.211  0.00  0.00    -0.263 NA
ATOM     40  C   UNL     1      15.652  13.360  19.172  0.00  0.00    +0.111 A 
ENDBRANCH   4   3
ENDBRANCH  10   9
BRANCH  12  13
ATOM     13  N   UNL     1      14.786   1.621  20.240  0.00  0.00    -0.281 N 
ATOM     14  C   UNL     1      15.755   0.891  20.908  0.00  0.00    +0.248 C 
ATOM     30  O   UNL     1      16.228   1.200  21.992  0.00  0.00    -0.270 OA
ATOM     31  H   UNL     1      14.623   1.363  19.266  0.00  0.00    +0.155 HD
BRANCH  14  15
ATOM     15  C   UNL     1      16.287  -0.353  20.274  0.00  0.00    +0.037 A 
ATOM     16  C   UNL     1      17.115  -0.297  19.066  0.00  0.00    +0.013 A 
ATOM     17  C   UNL     1      17.601  -1.514  18.465  0.00  0.00    +0.005 A 
ATOM     18  C   UNL     1      17.261  -2.798  19.073  0.00  0.00    -0.033 A 
ATOM     28  C   UNL     1      16.443  -2.825  20.274  0.00  0.00    +0.005 A 
ATOM     29  C   UNL     1      15.964  -1.634  20.865  0.00  0.00    +0.013 A 
BRANCH  18  19
ATOM     19  C   UNL     1      17.719  -4.147  18.488  0.00  0.00    +0.119 C 
BRANCH  19  20
ATOM     20  N   UNL     1      18.817  -4.865  19.201  0.00  0.00    -0.302 NA
ATOM     21  C   UNL     1      20.077  -4.003  19.331  0.00  0.00    +0.066 C 
ATOM     22  C   UNL     1      21.208  -4.761  20.100  0.00  0.00    -0.064 C 
ATOM     23  N   UNL     1      21.521  -6.073  19.377  0.00  0.00    +0.379 N 
ATOM     24  C   UNL     1      22.624  -6.760  20.065  0.00  0.00    -0.096 C 
ATOM     25  H   UNL     1      21.869  -5.817  18.349  0.00  0.00    -0.082 HD
ATOM     26  C   UNL     1      20.274  -6.934  19.241  0.00  0.00    -0.064 C 
ATOM     27  C   UNL     1      19.146  -6.161  18.502  0.00  0.00    +0.066 C 
ENDBRANCH  19  20
ENDBRANCH  18  19
ENDBRANCH  14  15
ENDBRANCH  12  13
TORSDOF 6
ENDMDL
