MODEL 1
REMARK VINA RESULT:      -8.6      0.000      0.000
REMARK  Name = C:\Users\Docking\Desktop\test protocol\1iep_ligandH.pdb
REMARK  8 active torsions:
REMARK  status: ('A' for Active; 'I' for Inactive)
REMARK    1  A    between atoms: _5  and  _11
REMARK    2  A    between atoms: _19  and  _21
REMARK    3  A    between atoms: _22  and  _66
REMARK    4  A    between atoms: _27  and  _30
REMARK    5  A    between atoms: _32  and  _33
REMARK    6  A    between atoms: _38  and  _43
REMARK    7  A    between atoms: _43  and  _46
REMARK    8  A    between atoms: _53  and  _55
REMARK                            x       y       z     vdW  Elec       q    Type
REMARK                         _______ _______ _______ _____ _____    ______ ____
ROOT
ATOM     10  C   UNL     1      41.905  39.635  50.057  0.00  0.00    +0.038 A 
ATOM     11  C   UNL     1      42.704  40.054  51.152  0.00  0.00    +0.047 A 
ATOM     12  C   UNL     1      44.144  40.213  51.015  0.00  0.00    +0.035 A 
ATOM     32  C   UNL     1      44.736  39.938  49.748  0.00  0.00    +0.024 A 
ATOM     33  C   UNL     1      43.939  39.511  48.625  0.00  0.00    +0.007 A 
ATOM     34  C   UNL     1      42.519  39.350  48.755  0.00  0.00    -0.029 A 
ATOM     35  C   UNL     1      41.715  38.883  47.520  0.00  0.00    +0.045 C 
ENDROOT
BRANCH  10   9
ATOM      4  C   UNL     1      38.094  37.505  52.051  0.00  0.00    +0.077 A 
ATOM      5  C   UNL     1      38.915  36.565  52.759  0.00  0.00    +0.048 A 
ATOM      6  C   UNL     1      40.313  36.659  52.577  0.00  0.00    +0.116 A 
ATOM      7  N   UNL     1      40.840  37.626  51.747  0.00  0.00    -0.223 NA
ATOM      8  C   UNL     1      40.019  38.515  51.078  0.00  0.00    +0.220 A 
ATOM      9  N   UNL     1      40.528  39.500  50.245  0.00  0.00    -0.283 N 
ATOM     36  H   UNL     1      39.889  40.132  49.764  0.00  0.00    +0.155 HD
ATOM     37  N   UNL     1      38.681  38.445  51.234  0.00  0.00    -0.214 NA
BRANCH   4   3
ATOM      1  C   UNL     1      34.431  37.249  53.399  0.00  0.00    +0.020 A 
ATOM      2  C   UNL     1      35.875  37.204  53.363  0.00  0.00    +0.013 A 
ATOM      3  C   UNL     1      36.600  37.535  52.143  0.00  0.00    +0.019 A 
ATOM     38  C   UNL     1      35.829  37.912  50.968  0.00  0.00    +0.120 A 
ATOM     39  N   UNL     1      34.439  37.945  51.032  0.00  0.00    -0.263 NA
ATOM     40  C   UNL     1      33.730  37.627  52.200  0.00  0.00    +0.111 A 
ENDBRANCH   4   3
ENDBRANCH  10   9
BRANCH  12  13
ATOM     13  N   UNL     1      45.008  40.627  52.092  0.00  0.00    -0.281 N 
ATOM     14  C   UNL     1      45.614  41.860  52.272  0.00  0.00    +0.248 C 
ATOM     30  O   UNL     1      45.677  42.730  51.416  0.00  0.00    -0.270 OA
ATOM     31  H   UNL     1      45.195  39.927  52.810  0.00  0.00    +0.155 HD
BRANCH  14  15
ATOM     15  C   UNL     1      46.255  42.165  53.587  0.00  0.00    +0.037 A 
ATOM     16  C   UNL     1      45.471  42.670  54.716  0.00  0.00    +0.013 A 
ATOM     17  C   UNL     1      46.117  42.972  55.968  0.00  0.00    +0.005 A 
ATOM     18  C   UNL     1      47.558  42.767  56.098  0.00  0.00    -0.033 A 
ATOM     28  C   UNL     1      48.311  42.260  54.964  0.00  0.00    +0.005 A 
ATOM     29  C   UNL     1      47.681  41.964  53.734  0.00  0.00    +0.013 A 
BRANCH  18  19
ATOM     19  C   UNL     1      48.334  43.083  57.391  0.00  0.00    +0.119 C 
BRANCH  19  20
ATOM     20  N   UNL     1      47.581  43.003  58.678  0.00  0.00    -0.302 NA
ATOM     21  C   UNL     1      47.974  44.124  59.644  0.00  0.00    +0.066 C 
ATOM     22  C   UNL     1      47.160  44.038  60.976  0.00  0.00    -0.064 C 
ATOM     23  N   UNL     1      47.382  42.668  61.618  0.00  0.00    +0.379 N 
ATOM     24  C   UNL     1      46.665  42.605  62.900  0.00  0.00    -0.096 C 
ATOM     25  H   UNL     1      48.471  42.568  61.835  0.00  0.00    -0.082 HD
ATOM     26  C   UNL     1      46.997  41.547  60.663  0.00  0.00    -0.064 C 
ATOM     27  C   UNL     1      47.789  41.659  59.331  0.00  0.00    +0.066 C 
ENDBRANCH  19  20
ENDBRANCH  18  19
ENDBRANCH  14  15
ENDBRANCH  12  13
TORSDOF 6
ENDMDL
MODEL 2
REMARK VINA RESULT:      -8.6      5.822     12.304
REMARK  Name = C:\Users\Docking\Desktop\test protocol\1iep_ligandH.pdb
REMARK  8 active torsions:
REMARK  status: ('A' for Active; 'I' for Inactive)
REMARK    1  A    between atoms: _5  and  _11
REMARK    2  A    between atoms: _19  and  _21
REMARK    3  A    between atoms: _22  and  _66
REMARK    4  A    between atoms: _27  and  _30
REMARK    5  A    between atoms: _32  and  _33
REMARK    6  A    between atoms: _38  and  _43
REMARK    7  A    between atoms: _43  and  _46
REMARK    8  A    between atoms: _53  and  _55
REMARK                            x       y       z     vdW  Elec       q    Type
REMARK                         _______ _______ _______ _____ _____    ______ ____
ROOT
ATOM     10  C   UNL     1      45.206  42.390  53.541  0.00  0.00    +0.038 A 
ATOM     11  C   UNL     1      46.046  43.080  52.630  0.00  0.00    +0.047 A 
ATOM     12  C   UNL     1      45.984  42.816  51.201  0.00  0.00    +0.035 A 
ATOM     32  C   UNL     1      45.053  41.844  50.734  0.00  0.00    +0.024 A 
ATOM     33  C   UNL     1      44.193  41.132  51.645  0.00  0.00    +0.007 A 
ATOM     34  C   UNL     1      44.251  41.386  53.056  0.00  0.00    -0.029 A 
ATOM     35  C   UNL     1      43.309  40.588  53.988  0.00  0.00    +0.045 C 
ENDROOT
BRANCH  10   9
ATOM      4  C   UNL     1      47.748  42.928  57.577  0.00  0.00    +0.077 A 
ATOM      5  C   UNL     1      48.973  42.568  56.924  0.00  0.00    +0.048 A 
ATOM      6  C   UNL     1      48.905  42.245  55.550  0.00  0.00    +0.116 A 
ATOM      7  N   UNL     1      47.696  42.282  54.889  0.00  0.00    -0.223 NA
ATOM      8  C   UNL     1      46.533  42.631  55.550  0.00  0.00    +0.220 A 
ATOM      9  N   UNL     1      45.308  42.683  54.903  0.00  0.00    -0.283 N 
ATOM     36  H   UNL     1      44.471  42.938  55.427  0.00  0.00    +0.155 HD
ATOM     37  N   UNL     1      46.571  42.943  56.862  0.00  0.00    -0.214 NA
BRANCH   4   3
ATOM      1  C   UNL     1      48.121  44.832  60.974  0.00  0.00    +0.020 A 
ATOM      2  C   UNL     1      48.237  44.520  59.568  0.00  0.00    +0.013 A 
ATOM      3  C   UNL     1      47.657  43.298  59.025  0.00  0.00    +0.019 A 
ATOM     38  C   UNL     1      46.960  42.406  59.939  0.00  0.00    +0.120 A 
ATOM     39  N   UNL     1      46.866  42.731  61.288  0.00  0.00    -0.263 NA
ATOM     40  C   UNL     1      47.421  43.903  61.822  0.00  0.00    +0.111 A 
ENDBRANCH   4   3
ENDBRANCH  10   9
BRANCH  12  13
ATOM     13  N   UNL     1      46.818  43.481  50.230  0.00  0.00    -0.281 N 
ATOM     14  C   UNL     1      48.199  43.458  50.135  0.00  0.00    +0.248 C 
ATOM     30  O   UNL     1      48.945  43.032  51.005  0.00  0.00    -0.270 OA
ATOM     31  H   UNL     1      46.329  44.035  49.526  0.00  0.00    +0.155 HD
BRANCH  14  15
ATOM     15  C   UNL     1      48.848  43.998  48.902  0.00  0.00    +0.037 A 
ATOM     16  C   UNL     1      49.967  44.940  48.982  0.00  0.00    +0.013 A 
ATOM     17  C   UNL     1      50.563  45.460  47.777  0.00  0.00    +0.005 A 
ATOM     18  C   UNL     1      50.041  45.036  46.480  0.00  0.00    -0.033 A 
ATOM     28  C   UNL     1      48.933  44.097  46.429  0.00  0.00    +0.005 A 
ATOM     29  C   UNL     1      48.346  43.587  47.608  0.00  0.00    +0.013 A 
BRANCH  18  19
ATOM     19  C   UNL     1      50.602  45.556  45.143  0.00  0.00    +0.119 C 
BRANCH  19  20
ATOM     20  N   UNL     1      50.139  44.875  43.897  0.00  0.00    -0.302 NA
ATOM     21  C   UNL     1      51.219  44.869  42.811  0.00  0.00    +0.066 C 
ATOM     22  C   UNL     1      50.726  44.134  41.522  0.00  0.00    -0.064 C 
ATOM     23  N   UNL     1      49.448  44.804  41.013  0.00  0.00    +0.379 N 
ATOM     24  C   UNL     1      49.014  44.152  39.769  0.00  0.00    -0.096 C 
ATOM     25  H   UNL     1      49.697  45.864  40.770  0.00  0.00    -0.082 HD
ATOM     26  C   UNL     1      48.371  44.817  42.088  0.00  0.00    -0.064 C 
ATOM     27  C   UNL     1      48.881  45.524  43.374  0.00  0.00    +0.066 C 
ENDBRANCH  19  20
ENDBRANCH  18  19
ENDBRANCH  14  15
ENDBRANCH  12  13
TORSDOF 6
ENDMDL
MODEL 3
REMARK VINA RESULT:      -8.5     11.851     18.581
REMARK  Name = C:\Users\Docking\Desktop\test protocol\1iep_ligandH.pdb
REMARK  8 active torsions:
REMARK  status: ('A' for Active; 'I' for Inactive)
REMARK    1  A    between atoms: _5  and  _11
REMARK    2  A    between atoms: _19  and  _21
REMARK    3  A    between atoms: _22  and  _66
REMARK    4  A    between atoms: _27  and  _30
REMARK    5  A    between atoms: _32  and  _33
REMARK    6  A    between atoms: _38  and  _43
REMARK    7  A    between atoms: _43  and  _46
REMARK    8  A    between atoms: _53  and  _55
REMARK                            x       y       z     vdW  Elec       q    Type
REMARK                         _______ _______ _______ _____ _____    ______ ____
ROOT
ATOM     10  C   UNL     1      52.551  45.923  50.501  0.00  0.00    +0.038 A 
ATOM     11  C   UNL     1      52.884  45.959  49.123  0.00  0.00    +0.047 A 
ATOM     12  C   UNL     1      52.264  45.048  48.175  0.00  0.00    +0.035 A 
ATOM     32  C   UNL     1      51.304  44.114  48.664  0.00  0.00    +0.024 A 
ATOM     33  C   UNL     1      50.954  44.063  50.061  0.00  0.00    +0.007 A 
ATOM     34  C   UNL     1      51.565  44.957  51.002  0.00  0.00    -0.029 A 
ATOM     35  C   UNL     1      51.156  44.853  52.490  0.00  0.00    +0.045 C 
ENDROOT
BRANCH  10   9
ATOM      4  C   UNL     1      56.176  47.200  53.376  0.00  0.00    +0.077 A 
ATOM      5  C   UNL     1      56.866  45.963  53.154  0.00  0.00    +0.048 A 
ATOM      6  C   UNL     1      56.251  45.021  52.298  0.00  0.00    +0.116 A 
ATOM      7  N   UNL     1      55.036  45.307  51.714  0.00  0.00    -0.223 NA
ATOM      8  C   UNL     1      54.396  46.509  51.951  0.00  0.00    +0.220 A 
ATOM      9  N   UNL     1      53.178  46.821  51.368  0.00  0.00    -0.283 N 
ATOM     36  H   UNL     1      52.734  47.716  51.574  0.00  0.00    +0.155 HD
ATOM     37  N   UNL     1      54.962  47.424  52.765  0.00  0.00    -0.214 NA
BRANCH   4   3
ATOM      1  C   UNL     1      58.122  49.156  56.149  0.00  0.00    +0.020 A 
ATOM      2  C   UNL     1      57.648  48.062  55.333  0.00  0.00    +0.013 A 
ATOM      3  C   UNL     1      56.699  48.297  54.252  0.00  0.00    +0.019 A 
ATOM     38  C   UNL     1      56.246  49.660  54.020  0.00  0.00    +0.120 A 
ATOM     39  N   UNL     1      56.719  50.693  54.823  0.00  0.00    -0.263 NA
ATOM     40  C   UNL     1      57.631  50.480  55.867  0.00  0.00    +0.111 A 
ENDBRANCH   4   3
ENDBRANCH  10   9
BRANCH  12  13
ATOM     13  N   UNL     1      52.569  45.032  46.765  0.00  0.00    -0.281 N 
ATOM     14  C   UNL     1      51.882  45.660  45.739  0.00  0.00    +0.248 C 
ATOM     30  O   UNL     1      50.772  46.158  45.853  0.00  0.00    -0.270 OA
ATOM     31  H   UNL     1      53.390  44.493  46.492  0.00  0.00    +0.155 HD
BRANCH  14  15
ATOM     15  C   UNL     1      52.515  45.733  44.386  0.00  0.00    +0.037 A 
ATOM     16  C   UNL     1      53.815  46.378  44.189  0.00  0.00    +0.013 A 
ATOM     17  C   UNL     1      54.395  46.449  42.871  0.00  0.00    +0.005 A 
ATOM     18  C   UNL     1      53.673  45.871  41.740  0.00  0.00    -0.033 A 
ATOM     28  C   UNL     1      52.387  45.233  41.965  0.00  0.00    +0.005 A 
ATOM     29  C   UNL     1      51.816  45.162  43.255  0.00  0.00    +0.013 A 
BRANCH  18  19
ATOM     19  C   UNL     1      54.206  45.920  40.295  0.00  0.00    +0.119 C 
BRANCH  19  20
ATOM     20  N   UNL     1      53.796  47.084  39.454  0.00  0.00    -0.302 NA
ATOM     21  C   UNL     1      52.828  46.674  38.340  0.00  0.00    +0.066 C 
ATOM     22  C   UNL     1      52.391  47.907  37.484  0.00  0.00    -0.064 C 
ATOM     23  N   UNL     1      53.632  48.585  36.901  0.00  0.00    +0.379 N 
ATOM     24  C   UNL     1      53.222  49.710  36.048  0.00  0.00    -0.096 C 
ATOM     25  H   UNL     1      54.151  47.840  36.253  0.00  0.00    -0.082 HD
ATOM     26  C   UNL     1      54.601  48.993  38.001  0.00  0.00    -0.064 C 
ATOM     27  C   UNL     1      55.006  47.765  38.865  0.00  0.00    +0.066 C 
ENDBRANCH  19  20
ENDBRANCH  18  19
ENDBRANCH  14  15
ENDBRANCH  12  13
TORSDOF 6
ENDMDL
MODEL 4
REMARK VINA RESULT:      -8.3      5.901     10.365
REMARK  Name = C:\Users\Docking\Desktop\test protocol\1iep_ligandH.pdb
REMARK  8 active torsions:
REMARK  status: ('A' for Active; 'I' for Inactive)
REMARK    1  A    between atoms: _5  and  _11
REMARK    2  A    between atoms: _19  and  _21
REMARK    3  A    between atoms: _22  and  _66
REMARK    4  A    between atoms: _27  and  _30
REMARK    5  A    between atoms: _32  and  _33
REMARK    6  A    between atoms: _38  and  _43
REMARK    7  A    between atoms: _43  and  _46
REMARK    8  A    between atoms: _53  and  _55
REMARK                            x       y       z     vdW  Elec       q    Type
REMARK                         _______ _______ _______ _____ _____    ______ ____
ROOT
ATOM     10  C   UNL     1      47.318  42.041  48.105  0.00  0.00    +0.038 A 
ATOM     11  C   UNL     1      47.510  42.288  49.489  0.00  0.00    +0.047 A 
ATOM     12  C   UNL     1      46.569  41.789  50.480  0.00  0.00    +0.035 A 
ATOM     32  C   UNL     1      45.444  41.041  50.027  0.00  0.00    +0.024 A 
ATOM     33  C   UNL     1      45.233  40.782  48.624  0.00  0.00    +0.007 A 
ATOM     34  C   UNL     1      46.157  41.273  47.642  0.00  0.00    -0.029 A 
ATOM     35  C   UNL     1      45.877  40.971  46.151  0.00  0.00    +0.045 C 
ENDROOT
BRANCH  10   9
ATOM      4  C   UNL     1      50.917  44.992  46.933  0.00  0.00    +0.077 A 
ATOM      5  C   UNL     1      50.917  45.604  48.231  0.00  0.00    +0.048 A 
ATOM      6  C   UNL     1      49.970  45.135  49.169  0.00  0.00    +0.116 A 
ATOM      7  N   UNL     1      49.094  44.129  48.824  0.00  0.00    -0.223 NA
ATOM      8  C   UNL     1      49.120  43.562  47.563  0.00  0.00    +0.220 A 
ATOM      9  N   UNL     1      48.253  42.544  47.197  0.00  0.00    -0.283 N 
ATOM     36  H   UNL     1      48.299  42.157  46.255  0.00  0.00    +0.155 HD
ATOM     37  N   UNL     1      50.014  43.993  46.649  0.00  0.00    -0.214 NA
BRANCH   4   3
ATOM      1  C   UNL     1      54.012  46.382  44.985  0.00  0.00    +0.020 A 
ATOM      2  C   UNL     1      53.138  46.032  46.081  0.00  0.00    +0.013 A 
ATOM      3  C   UNL     1      51.860  45.377  45.835  0.00  0.00    +0.019 A 
ATOM     38  C   UNL     1      51.493  45.086  44.457  0.00  0.00    +0.120 A 
ATOM     39  N   UNL     1      52.354  45.436  43.422  0.00  0.00    -0.263 NA
ATOM     40  C   UNL     1      53.586  46.068  43.646  0.00  0.00    +0.111 A 
ENDBRANCH   4   3
ENDBRANCH  10   9
BRANCH  12  13
ATOM     13  N   UNL     1      46.708  42.015  51.897  0.00  0.00    -0.281 N 
ATOM     14  C   UNL     1      47.504  41.324  52.796  0.00  0.00    +0.248 C 
ATOM     30  O   UNL     1      48.060  40.263  52.553  0.00  0.00    -0.270 OA
ATOM     31  H   UNL     1      46.152  42.777  52.285  0.00  0.00    +0.155 HD
BRANCH  14  15
ATOM     15  C   UNL     1      47.700  41.885  54.167  0.00  0.00    +0.037 A 
ATOM     16  C   UNL     1      48.991  41.784  54.852  0.00  0.00    +0.013 A 
ATOM     17  C   UNL     1      49.148  42.319  56.182  0.00  0.00    +0.005 A 
ATOM     18  C   UNL     1      48.010  42.962  56.834  0.00  0.00    -0.033 A 
ATOM     28  C   UNL     1      46.742  43.053  56.129  0.00  0.00    +0.005 A 
ATOM     29  C   UNL     1      46.584  42.529  54.827  0.00  0.00    +0.013 A 
BRANCH  18  19
ATOM     19  C   UNL     1      48.080  43.542  58.259  0.00  0.00    +0.119 C 
BRANCH  19  20
ATOM     20  N   UNL     1      46.995  43.156  59.209  0.00  0.00    -0.302 NA
ATOM     21  C   UNL     1      46.778  44.214  60.294  0.00  0.00    +0.066 C 
ATOM     22  C   UNL     1      45.623  43.805  61.266  0.00  0.00    -0.064 C 
ATOM     23  N   UNL     1      45.944  42.446  61.891  0.00  0.00    +0.379 N 
ATOM     24  C   UNL     1      44.888  42.085  62.849  0.00  0.00    -0.096 C 
ATOM     25  H   UNL     1      46.896  42.553  62.461  0.00  0.00    -0.082 HD
ATOM     26  C   UNL     1      46.164  41.388  60.819  0.00  0.00    -0.064 C 
ATOM     27  C   UNL     1      47.293  41.819  59.841  0.00  0.00    +0.066 C 
ENDBRANCH  19  20
ENDBRANCH  18  19
ENDBRANCH  14  15
ENDBRANCH  12  13
TORSDOF 6
ENDMDL
MODEL 5
REMARK VINA RESULT:      -8.3     16.273     19.973
REMARK  Name = C:\Users\Docking\Desktop\test protocol\1iep_ligandH.pdb
REMARK  8 active torsions:
REMARK  status: ('A' for Active; 'I' for Inactive)
REMARK    1  A    between atoms: _5  and  _11
REMARK    2  A    between atoms: _19  and  _21
REMARK    3  A    between atoms: _22  and  _66
REMARK    4  A    between atoms: _27  and  _30
REMARK    5  A    between atoms: _32  and  _33
REMARK    6  A    between atoms: _38  and  _43
REMARK    7  A    between atoms: _43  and  _46
REMARK    8  A    between atoms: _53  and  _55
REMARK                            x       y       z     vdW  Elec       q    Type
REMARK                         _______ _______ _______ _____ _____    ______ ____
ROOT
ATOM     10  C   UNL     1      56.569  48.219  54.314  0.00  0.00    +0.038 A 
ATOM     11  C   UNL     1      57.178  47.756  55.508  0.00  0.00    +0.047 A 
ATOM     12  C   UNL     1      57.487  46.347  55.698  0.00  0.00    +0.035 A 
ATOM     32  C   UNL     1      57.165  45.438  54.648  0.00  0.00    +0.024 A 
ATOM     33  C   UNL     1      56.545  45.891  53.428  0.00  0.00    +0.007 A 
ATOM     34  C   UNL     1      56.235  47.279  53.237  0.00  0.00    -0.029 A 
ATOM     35  C   UNL     1      55.564  47.708  51.911  0.00  0.00    +0.045 C 
ENDROOT
BRANCH  10   9
ATOM      4  C   UNL     1      57.934  52.819  54.189  0.00  0.00    +0.077 A 
ATOM      5  C   UNL     1      59.307  52.479  54.427  0.00  0.00    +0.048 A 
ATOM      6  C   UNL     1      59.619  51.110  54.583  0.00  0.00    +0.116 A 
ATOM      7  N   UNL     1      58.624  50.160  54.504  0.00  0.00    -0.223 NA
ATOM      8  C   UNL     1      57.309  50.522  54.276  0.00  0.00    +0.220 A 
ATOM      9  N   UNL     1      56.294  49.582  54.185  0.00  0.00    -0.283 N 
ATOM     36  H   UNL     1      55.335  49.890  54.023  0.00  0.00    +0.155 HD
ATOM     37  N   UNL     1      56.985  51.823  54.125  0.00  0.00    -0.214 NA
BRANCH   4   3
ATOM      1  C   UNL     1      57.799  56.653  53.426  0.00  0.00    +0.020 A 
ATOM      2  C   UNL     1      58.320  55.316  53.595  0.00  0.00    +0.013 A 
ATOM      3  C   UNL     1      57.447  54.222  54.000  0.00  0.00    +0.019 A 
ATOM     38  C   UNL     1      56.040  54.516  54.227  0.00  0.00    +0.120 A 
ATOM     39  N   UNL     1      55.567  55.814  54.058  0.00  0.00    -0.263 NA
ATOM     40  C   UNL     1      56.398  56.875  53.670  0.00  0.00    +0.111 A 
ENDBRANCH   4   3
ENDBRANCH  10   9
BRANCH  12  13
ATOM     13  N   UNL     1      58.098  45.817  56.892  0.00  0.00    -0.281 N 
ATOM     14  C   UNL     1      59.410  45.411  57.069  0.00  0.00    +0.248 C 
ATOM     30  O   UNL     1      60.210  45.242  56.161  0.00  0.00    -0.270 OA
ATOM     31  H   UNL     1      57.488  45.731  57.705  0.00  0.00    +0.155 HD
BRANCH  14  15
ATOM     15  C   UNL     1      59.902  45.141  58.454  0.00  0.00    +0.037 A 
ATOM     16  C   UNL     1      59.247  45.736  59.622  0.00  0.00    +0.013 A 
ATOM     17  C   UNL     1      59.752  45.472  60.947  0.00  0.00    +0.005 A 
ATOM     18  C   UNL     1      60.918  44.606  61.110  0.00  0.00    -0.033 A 
ATOM     28  C   UNL     1      61.544  44.025  59.934  0.00  0.00    +0.005 A 
ATOM     29  C   UNL     1      61.053  44.282  58.634  0.00  0.00    +0.013 A 
BRANCH  18  19
ATOM     19  C   UNL     1      61.537  44.287  62.483  0.00  0.00    +0.119 C 
BRANCH  19  20
ATOM     20  N   UNL     1      63.021  44.401  62.608  0.00  0.00    -0.302 NA
ATOM     21  C   UNL     1      63.601  43.345  63.553  0.00  0.00    +0.066 C 
ATOM     22  C   UNL     1      65.156  43.465  63.654  0.00  0.00    -0.064 C 
ATOM     23  N   UNL     1      65.528  44.873  64.121  0.00  0.00    +0.379 N 
ATOM     24  C   UNL     1      66.987  44.971  64.273  0.00  0.00    -0.096 C 
ATOM     25  H   UNL     1      65.072  45.027  65.127  0.00  0.00    -0.082 HD
ATOM     26  C   UNL     1      64.953  45.929  63.188  0.00  0.00    -0.064 C 
ATOM     27  C   UNL     1      63.410  45.783  63.072  0.00  0.00    +0.066 C 
ENDBRANCH  19  20
ENDBRANCH  18  19
ENDBRANCH  14  15
ENDBRANCH  12  13
TORSDOF 6
ENDMDL
