MODEL 1
REMARK VINA RESULT:      -7.6      0.000      0.000
REMARK  Name = C:\Users\Docking\Desktop\test protocol\1iep_ligandH.pdb
REMARK  8 active torsions:
REMARK  status: ('A' for Active; 'I' for Inactive)
REMARK    1  A    between atoms: _5  and  _11
REMARK    2  A    between atoms: _19  and  _21
REMARK    3  A    between atoms: _22  and  _66
REMARK    4  A    between atoms: _27  and  _30
REMARK    5  A    between atoms: _32  and  _33
REMARK    6  A    between atoms: _38  and  _43
REMARK    7  A    between atoms: _43  and  _46
REMARK    8  A    between atoms: _53  and  _55
REMARK                            x       y       z     vdW  Elec       q    Type
REMARK                         _______ _______ _______ _____ _____    ______ ____
ROOT
ATOM     10  C   UNL     1      -4.926  -2.422  -0.402  0.00  0.00    +0.038 A 
ATOM     11  C   UNL     1      -4.684  -1.046  -0.645  0.00  0.00    +0.047 A 
ATOM     12  C   UNL     1      -5.626  -0.028  -0.206  0.00  0.00    +0.035 A 
ATOM     32  C   UNL     1      -6.803  -0.447   0.479  0.00  0.00    +0.024 A 
ATOM     33  C   UNL     1      -7.065  -1.842   0.734  0.00  0.00    +0.007 A 
ATOM     34  C   UNL     1      -6.141  -2.851   0.301  0.00  0.00    -0.029 A 
ATOM     35  C   UNL     1      -6.477  -4.331   0.595  0.00  0.00    +0.045 C 
ENDROOT
BRANCH  10   9
ATOM      4  C   UNL     1      -0.956  -5.050   0.208  0.00  0.00    +0.077 A 
ATOM      5  C   UNL     1      -0.716  -4.493   1.508  0.00  0.00    +0.048 A 
ATOM      6  C   UNL     1      -1.633  -3.528   1.980  0.00  0.00    +0.116 A 
ATOM      7  N   UNL     1      -2.708  -3.156   1.202  0.00  0.00    -0.223 NA
ATOM      8  C   UNL     1      -2.909  -3.711  -0.048  0.00  0.00    +0.220 A 
ATOM      9  N   UNL     1      -3.988  -3.357  -0.845  0.00  0.00    -0.283 N 
ATOM     36  H   UNL     1      -4.097  -3.785  -1.764  0.00  0.00    +0.155 HD
ATOM     37  N   UNL     1      -2.046  -4.634  -0.523  0.00  0.00    -0.214 NA
BRANCH   4   3
ATOM      1  C   UNL     1       0.452  -8.451  -1.116  0.00  0.00    +0.020 A 
ATOM      2  C   UNL     1      -0.432  -7.495  -0.490  0.00  0.00    +0.013 A 
ATOM      3  C   UNL     1      -0.077  -6.082  -0.428  0.00  0.00    +0.019 A 
ATOM     38  C   UNL     1       1.188  -5.667  -1.014  0.00  0.00    +0.120 A 
ATOM     39  N   UNL     1       2.020  -6.611  -1.608  0.00  0.00    -0.263 NA
ATOM     40  C   UNL     1       1.690  -7.973  -1.672  0.00  0.00    +0.111 A 
ENDBRANCH   4   3
ENDBRANCH  10   9
BRANCH  12  13
ATOM     13  N   UNL     1      -5.438   1.384  -0.431  0.00  0.00    -0.281 N 
ATOM     14  C   UNL     1      -4.264   2.113  -0.332  0.00  0.00    +0.248 C 
ATOM     30  O   UNL     1      -3.234   1.698   0.177  0.00  0.00    -0.270 OA
ATOM     31  H   UNL     1      -6.271   1.909  -0.696  0.00  0.00    +0.155 HD
BRANCH  14  15
ATOM     15  C   UNL     1      -4.236   3.511  -0.861  0.00  0.00    +0.037 A 
ATOM     16  C   UNL     1      -2.969   4.211  -1.090  0.00  0.00    +0.013 A 
ATOM     17  C   UNL     1      -2.970   5.565  -1.584  0.00  0.00    +0.005 A 
ATOM     18  C   UNL     1      -4.244   6.227  -1.855  0.00  0.00    -0.033 A 
ATOM     28  C   UNL     1      -5.486   5.508  -1.624  0.00  0.00    +0.005 A 
ATOM     29  C   UNL     1      -5.488   4.181  -1.138  0.00  0.00    +0.013 A 
BRANCH  18  19
ATOM     19  C   UNL     1      -4.341   7.678  -2.365  0.00  0.00    +0.119 C 
BRANCH  19  20
ATOM     20  N   UNL     1      -3.684   8.737  -1.542  0.00  0.00    -0.302 NA
ATOM     21  C   UNL     1      -4.652   9.868  -1.183  0.00  0.00    +0.066 C 
ATOM     22  C   UNL     1      -3.954  10.956  -0.303  0.00  0.00    -0.064 C 
ATOM     23  N   UNL     1      -2.734  11.502  -1.045  0.00  0.00    +0.379 N 
ATOM     24  C   UNL     1      -2.109  12.567  -0.246  0.00  0.00    -0.096 C 
ATOM     25  H   UNL     1      -3.093  11.960  -1.996  0.00  0.00    -0.082 HD
ATOM     26  C   UNL     1      -1.767  10.384  -1.408  0.00  0.00    -0.064 C 
ATOM     27  C   UNL     1      -2.478   9.293  -2.258  0.00  0.00    +0.066 C 
ENDBRANCH  19  20
ENDBRANCH  18  19
ENDBRANCH  14  15
ENDBRANCH  12  13
TORSDOF 6
ENDMDL
MODEL 2
REMARK VINA RESULT:      -7.6      3.216     13.236
REMARK  Name = C:\Users\Docking\Desktop\test protocol\1iep_ligandH.pdb
REMARK  8 active torsions:
REMARK  status: ('A' for Active; 'I' for Inactive)
REMARK    1  A    between atoms: _5  and  _11
REMARK    2  A    between atoms: _19  and  _21
REMARK    3  A    between atoms: _22  and  _66
REMARK    4  A    between atoms: _27  and  _30
REMARK    5  A    between atoms: _32  and  _33
REMARK    6  A    between atoms: _38  and  _43
REMARK    7  A    between atoms: _43  and  _46
REMARK    8  A    between atoms: _53  and  _55
REMARK                            x       y       z     vdW  Elec       q    Type
REMARK                         _______ _______ _______ _____ _____    ______ ____
ROOT
ATOM     10  C   UNL     1      -6.981   1.031   0.122  0.00  0.00    +0.038 A 
ATOM     11  C   UNL     1      -6.387  -0.169  -0.345  0.00  0.00    +0.047 A 
ATOM     12  C   UNL     1      -7.132  -1.418  -0.371  0.00  0.00    +0.035 A 
ATOM     32  C   UNL     1      -8.482  -1.408   0.085  0.00  0.00    +0.024 A 
ATOM     33  C   UNL     1      -9.102  -0.198   0.565  0.00  0.00    +0.007 A 
ATOM     34  C   UNL     1      -8.371   1.037   0.594  0.00  0.00    -0.029 A 
ATOM     35  C   UNL     1      -9.084   2.302   1.125  0.00  0.00    +0.045 C 
ENDROOT
BRANCH  10   9
ATOM      4  C   UNL     1      -5.379   5.043  -1.969  0.00  0.00    +0.077 A 
ATOM      5  C   UNL     1      -6.099   4.770  -3.180  0.00  0.00    +0.048 A 
ATOM      6  C   UNL     1      -6.864   3.583  -3.226  0.00  0.00    +0.116 A 
ATOM      7  N   UNL     1      -6.900   2.740  -2.137  0.00  0.00    -0.223 NA
ATOM      8  C   UNL     1      -6.192   3.032  -0.985  0.00  0.00    +0.220 A 
ATOM      9  N   UNL     1      -6.219   2.202   0.125  0.00  0.00    -0.283 N 
ATOM     36  H   UNL     1      -5.678   2.449   0.953  0.00  0.00    +0.155 HD
ATOM     37  N   UNL     1      -5.452   4.158  -0.917  0.00  0.00    -0.214 NA
BRANCH   4   3
ATOM      1  C   UNL     1      -4.200   8.753  -1.589  0.00  0.00    +0.020 A 
ATOM      2  C   UNL     1      -5.064   7.613  -1.792  0.00  0.00    +0.013 A 
ATOM      3  C   UNL     1      -4.528   6.258  -1.766  0.00  0.00    +0.019 A 
ATOM     38  C   UNL     1      -3.103   6.090  -1.530  0.00  0.00    +0.120 A 
ATOM     39  N   UNL     1      -2.294   7.206  -1.339  0.00  0.00    -0.263 NA
ATOM     40  C   UNL     1      -2.799   8.515  -1.364  0.00  0.00    +0.111 A 
ENDBRANCH   4   3
ENDBRANCH  10   9
BRANCH  12  13
ATOM     13  N   UNL     1      -6.578  -2.668  -0.827  0.00  0.00    -0.281 N 
ATOM     14  C   UNL     1      -6.716  -3.921  -0.252  0.00  0.00    +0.248 C 
ATOM     30  O   UNL     1      -7.163  -4.122   0.868  0.00  0.00    -0.270 OA
ATOM     31  H   UNL     1      -6.017  -2.625  -1.678  0.00  0.00    +0.155 HD
BRANCH  14  15
ATOM     15  C   UNL     1      -6.282  -5.123  -1.027  0.00  0.00    +0.037 A 
ATOM     16  C   UNL     1      -7.251  -6.117  -1.494  0.00  0.00    +0.013 A 
ATOM     17  C   UNL     1      -6.804  -7.277  -2.224  0.00  0.00    +0.005 A 
ATOM     18  C   UNL     1      -5.378  -7.447  -2.493  0.00  0.00    -0.033 A 
ATOM     28  C   UNL     1      -4.438  -6.442  -2.023  0.00  0.00    +0.005 A 
ATOM     29  C   UNL     1      -4.873  -5.306  -1.306  0.00  0.00    +0.013 A 
BRANCH  18  19
ATOM     19  C   UNL     1      -4.809  -8.663  -3.247  0.00  0.00    +0.119 C 
BRANCH  19  20
ATOM     20  N   UNL     1      -3.604  -9.326  -2.665  0.00  0.00    -0.302 NA
ATOM     21  C   UNL     1      -2.387  -9.220  -3.587  0.00  0.00    +0.066 C 
ATOM     22  C   UNL     1      -1.130  -9.899  -2.952  0.00  0.00    -0.064 C 
ATOM     23  N   UNL     1      -1.447 -11.362  -2.641  0.00  0.00    +0.379 N 
ATOM     24  C   UNL     1      -0.249 -12.019  -2.098  0.00  0.00    -0.096 C 
ATOM     25  H   UNL     1      -1.701 -11.865  -3.603  0.00  0.00    -0.082 HD
ATOM     26  C   UNL     1      -2.658 -11.478  -1.726  0.00  0.00    -0.064 C 
ATOM     27  C   UNL     1      -3.894 -10.774  -2.354  0.00  0.00    +0.066 C 
ENDBRANCH  19  20
ENDBRANCH  18  19
ENDBRANCH  14  15
ENDBRANCH  12  13
TORSDOF 6
ENDMDL
MODEL 3
REMARK VINA RESULT:      -7.5      1.613      2.396
REMARK  Name = C:\Users\Docking\Desktop\test protocol\1iep_ligandH.pdb
REMARK  8 active torsions:
REMARK  status: ('A' for Active; 'I' for Inactive)
REMARK    1  A    between atoms: _5  and  _11
REMARK    2  A    between atoms: _19  and  _21
REMARK    3  A    between atoms: _22  and  _66
REMARK    4  A    between atoms: _27  and  _30
REMARK    5  A    between atoms: _32  and  _33
REMARK    6  A    between atoms: _38  and  _43
REMARK    7  A    between atoms: _43  and  _46
REMARK    8  A    between atoms: _53  and  _55
REMARK                            x       y       z     vdW  Elec       q    Type
REMARK                         _______ _______ _______ _____ _____    ______ ____
ROOT
ATOM     10  C   UNL     1      -5.448  -0.858   0.435  0.00  0.00    +0.038 A 
ATOM     11  C   UNL     1      -4.833   0.397   0.193  0.00  0.00    +0.047 A 
ATOM     12  C   UNL     1      -5.623   1.612   0.070  0.00  0.00    +0.035 A 
ATOM     32  C   UNL     1      -7.039   1.512   0.202  0.00  0.00    +0.024 A 
ATOM     33  C   UNL     1      -7.681   0.245   0.446  0.00  0.00    +0.007 A 
ATOM     34  C   UNL     1      -6.906  -0.957   0.566  0.00  0.00    -0.029 A 
ATOM     35  C   UNL     1      -7.648  -2.290   0.822  0.00  0.00    +0.045 C 
ENDROOT
BRANCH  10   9
ATOM      4  C   UNL     1      -2.957  -4.481  -1.490  0.00  0.00    +0.077 A 
ATOM      5  C   UNL     1      -3.318  -4.099  -2.824  0.00  0.00    +0.048 A 
ATOM      6  C   UNL     1      -4.152  -2.968  -2.972  0.00  0.00    +0.116 A 
ATOM      7  N   UNL     1      -4.586  -2.278  -1.861  0.00  0.00    -0.223 NA
ATOM      8  C   UNL     1      -4.221  -2.675  -0.587  0.00  0.00    +0.220 A 
ATOM      9  N   UNL     1      -4.640  -1.992   0.544  0.00  0.00    -0.283 N 
ATOM     36  H   UNL     1      -4.355  -2.321   1.466  0.00  0.00    +0.155 HD
ATOM     37  N   UNL     1      -3.427  -3.753  -0.420  0.00  0.00    -0.214 NA
BRANCH   4   3
ATOM      1  C   UNL     1      -1.280  -8.015  -1.546  0.00  0.00    +0.020 A 
ATOM      2  C   UNL     1      -2.151  -6.915  -1.894  0.00  0.00    +0.013 A 
ATOM      3  C   UNL     1      -2.080  -5.652  -1.170  0.00  0.00    +0.019 A 
ATOM     38  C   UNL     1      -1.109  -5.533  -0.093  0.00  0.00    +0.120 A 
ATOM     39  N   UNL     1      -0.285  -6.609   0.220  0.00  0.00    -0.263 NA
ATOM     40  C   UNL     1      -0.346  -7.830  -0.467  0.00  0.00    +0.111 A 
ENDBRANCH   4   3
ENDBRANCH  10   9
BRANCH  12  13
ATOM     13  N   UNL     1      -5.055   2.913  -0.183  0.00  0.00    -0.281 N 
ATOM     14  C   UNL     1      -4.434   3.361  -1.337  0.00  0.00    +0.248 C 
ATOM     30  O   UNL     1      -4.081   2.638  -2.257  0.00  0.00    -0.270 OA
ATOM     31  H   UNL     1      -5.118   3.585   0.582  0.00  0.00    +0.155 HD
BRANCH  14  15
ATOM     15  C   UNL     1      -4.151   4.821  -1.484  0.00  0.00    +0.037 A 
ATOM     16  C   UNL     1      -2.803   5.358  -1.281  0.00  0.00    +0.013 A 
ATOM     17  C   UNL     1      -2.561   6.773  -1.413  0.00  0.00    +0.005 A 
ATOM     18  C   UNL     1      -3.671   7.661  -1.751  0.00  0.00    -0.033 A 
ATOM     28  C   UNL     1      -4.997   7.101  -1.953  0.00  0.00    +0.005 A 
ATOM     29  C   UNL     1      -5.238   5.715  -1.823  0.00  0.00    +0.013 A 
BRANCH  18  19
ATOM     19  C   UNL     1      -3.508   9.186  -1.891  0.00  0.00    +0.119 C 
BRANCH  19  20
ATOM     20  N   UNL     1      -2.318   9.810  -1.241  0.00  0.00    -0.302 NA
ATOM     21  C   UNL     1      -2.714  10.758  -0.106  0.00  0.00    +0.066 C 
ATOM     22  C   UNL     1      -1.456  11.385   0.579  0.00  0.00    -0.064 C 
ATOM     23  N   UNL     1      -0.619  12.117  -0.472  0.00  0.00    +0.379 N 
ATOM     24  C   UNL     1       0.535  12.756   0.179  0.00  0.00    -0.096 C 
ATOM     25  H   UNL     1      -1.253  12.924  -0.906  0.00  0.00    -0.082 HD
ATOM     26  C   UNL     1      -0.222  11.181  -1.605  0.00  0.00    -0.064 C 
ATOM     27  C   UNL     1      -1.479  10.542  -2.259  0.00  0.00    +0.066 C 
ENDBRANCH  19  20
ENDBRANCH  18  19
ENDBRANCH  14  15
ENDBRANCH  12  13
TORSDOF 6
ENDMDL
MODEL 4
REMARK VINA RESULT:      -7.4      3.474      5.255
REMARK  Name = C:\Users\Docking\Desktop\test protocol\1iep_ligandH.pdb
REMARK  8 active torsions:
REMARK  status: ('A' for Active; 'I' for Inactive)
REMARK    1  A    between atoms: _5  and  _11
REMARK    2  A    between atoms: _19  and  _21
REMARK    3  A    between atoms: _22  and  _66
REMARK    4  A    between atoms: _27  and  _30
REMARK    5  A    between atoms: _32  and  _33
REMARK    6  A    between atoms: _38  and  _43
REMARK    7  A    between atoms: _43  and  _46
REMARK    8  A    between atoms: _53  and  _55
REMARK                            x       y       z     vdW  Elec       q    Type
REMARK                         _______ _______ _______ _____ _____    ______ ____
ROOT
ATOM     10  C   UNL     1      -7.432   2.095  -0.517  0.00  0.00    +0.038 A 
ATOM     11  C   UNL     1      -6.459   3.020  -0.975  0.00  0.00    +0.047 A 
ATOM     12  C   UNL     1      -6.479   4.409  -0.542  0.00  0.00    +0.035 A 
ATOM     32  C   UNL     1      -7.503   4.821   0.360  0.00  0.00    +0.024 A 
ATOM     33  C   UNL     1      -8.500   3.894   0.835  0.00  0.00    +0.007 A 
ATOM     34  C   UNL     1      -8.487   2.524   0.409  0.00  0.00    -0.029 A 
ATOM     35  C   UNL     1      -9.585   1.576   0.945  0.00  0.00    +0.045 C 
ENDROOT
BRANCH  10   9
ATOM      4  C   UNL     1      -5.940  -2.447  -0.094  0.00  0.00    +0.077 A 
ATOM      5  C   UNL     1      -5.210  -2.158   1.106  0.00  0.00    +0.048 A 
ATOM      6  C   UNL     1      -5.237  -0.826   1.578  0.00  0.00    +0.116 A 
ATOM      7  N   UNL     1      -5.947   0.136   0.892  0.00  0.00    -0.223 NA
ATOM      8  C   UNL     1      -6.639  -0.176  -0.263  0.00  0.00    +0.220 A 
ATOM      9  N   UNL     1      -7.366   0.774  -0.965  0.00  0.00    -0.283 N 
ATOM     36  H   UNL     1      -7.857   0.505  -1.817  0.00  0.00    +0.155 HD
ATOM     37  N   UNL     1      -6.627  -1.440  -0.735  0.00  0.00    -0.214 NA
BRANCH   4   3
ATOM      1  C   UNL     1      -7.276  -5.835  -1.523  0.00  0.00    +0.020 A 
ATOM      2  C   UNL     1      -7.264  -4.523  -0.918  0.00  0.00    +0.013 A 
ATOM      3  C   UNL     1      -6.010  -3.808  -0.715  0.00  0.00    +0.019 A 
ATOM     38  C   UNL     1      -4.777  -4.453  -1.140  0.00  0.00    +0.120 A 
ATOM     39  N   UNL     1      -4.819  -5.717  -1.718  0.00  0.00    -0.263 NA
ATOM     40  C   UNL     1      -6.020  -6.416  -1.917  0.00  0.00    +0.111 A 
ENDBRANCH   4   3
ENDBRANCH  10   9
BRANCH  12  13
ATOM     13  N   UNL     1      -5.523   5.395  -0.980  0.00  0.00    -0.281 N 
ATOM     14  C   UNL     1      -5.761   6.547  -1.712  0.00  0.00    +0.248 C 
ATOM     30  O   UNL     1      -6.810   6.795  -2.287  0.00  0.00    -0.270 OA
ATOM     31  H   UNL     1      -4.552   5.224  -0.718  0.00  0.00    +0.155 HD
BRANCH  14  15
ATOM     15  C   UNL     1      -4.673   7.563  -1.834  0.00  0.00    +0.037 A 
ATOM     16  C   UNL     1      -4.965   8.999  -1.797  0.00  0.00    +0.013 A 
ATOM     17  C   UNL     1      -3.898   9.958  -1.934  0.00  0.00    +0.005 A 
ATOM     18  C   UNL     1      -2.527   9.484  -2.108  0.00  0.00    -0.033 A 
ATOM     28  C   UNL     1      -2.264   8.055  -2.135  0.00  0.00    +0.005 A 
ATOM     29  C   UNL     1      -3.308   7.112  -2.002  0.00  0.00    +0.013 A 
BRANCH  18  19
ATOM     19  C   UNL     1      -1.329  10.437  -2.283  0.00  0.00    +0.119 C 
BRANCH  19  20
ATOM     20  N   UNL     1      -0.928  11.255  -1.100  0.00  0.00    -0.302 NA
ATOM     21  C   UNL     1      -1.502  12.674  -1.162  0.00  0.00    +0.066 C 
ATOM     22  C   UNL     1      -1.090  13.509   0.094  0.00  0.00    -0.064 C 
ATOM     23  N   UNL     1       0.435  13.546   0.201  0.00  0.00    +0.379 N 
ATOM     24  C   UNL     1       0.826  14.379   1.348  0.00  0.00    -0.096 C 
ATOM     25  H   UNL     1       0.827  14.034  -0.721  0.00  0.00    -0.082 HD
ATOM     26  C   UNL     1       1.014  12.140   0.261  0.00  0.00    -0.064 C 
ATOM     27  C   UNL     1       0.575  11.309  -0.977  0.00  0.00    +0.066 C 
ENDBRANCH  19  20
ENDBRANCH  18  19
ENDBRANCH  14  15
ENDBRANCH  12  13
TORSDOF 6
ENDMDL
MODEL 5
REMARK VINA RESULT:      -7.4     21.893     25.537
REMARK  Name = C:\Users\Docking\Desktop\test protocol\1iep_ligandH.pdb
REMARK  8 active torsions:
REMARK  status: ('A' for Active; 'I' for Inactive)
REMARK    1  A    between atoms: _5  and  _11
REMARK    2  A    between atoms: _19  and  _21
REMARK    3  A    between atoms: _22  and  _66
REMARK    4  A    between atoms: _27  and  _30
REMARK    5  A    between atoms: _32  and  _33
REMARK    6  A    between atoms: _38  and  _43
REMARK    7  A    between atoms: _43  and  _46
REMARK    8  A    between atoms: _53  and  _55
REMARK                            x       y       z     vdW  Elec       q    Type
REMARK                         _______ _______ _______ _____ _____    ______ ____
ROOT
ATOM     10  C   UNL     1       0.237  -6.798  21.440  0.00  0.00    +0.038 A 
ATOM     11  C   UNL     1      -1.090  -7.177  21.115  0.00  0.00    +0.047 A 
ATOM     12  C   UNL     1      -1.577  -8.521  21.387  0.00  0.00    +0.035 A 
ATOM     32  C   UNL     1      -0.684  -9.453  21.993  0.00  0.00    +0.024 A 
ATOM     33  C   UNL     1       0.669  -9.084  22.328  0.00  0.00    +0.007 A 
ATOM     34  C   UNL     1       1.155  -7.761  22.060  0.00  0.00    -0.029 A 
ATOM     35  C   UNL     1       2.617  -7.424  22.435  0.00  0.00    +0.045 C 
ENDROOT
BRANCH  10   9
ATOM      4  C   UNL     1       0.443  -2.109  22.446  0.00  0.00    +0.077 A 
ATOM      5  C   UNL     1      -0.366  -2.265  23.620  0.00  0.00    +0.048 A 
ATOM      6  C   UNL     1      -0.821  -3.568  23.926  0.00  0.00    +0.116 A 
ATOM      7  N   UNL     1      -0.485  -4.627  23.112  0.00  0.00    -0.223 NA
ATOM      8  C   UNL     1       0.295  -4.442  21.985  0.00  0.00    +0.220 A 
ATOM      9  N   UNL     1       0.652  -5.494  21.156  0.00  0.00    -0.283 N 
ATOM     36  H   UNL     1       1.223  -5.315  20.331  0.00  0.00    +0.155 HD
ATOM     37  N   UNL     1       0.741  -3.208  21.671  0.00  0.00    -0.214 NA
BRANCH   4   3
ATOM      1  C   UNL     1       2.195   1.388  22.403  0.00  0.00    +0.020 A 
ATOM      2  C   UNL     1       1.673   0.132  22.892  0.00  0.00    +0.013 A 
ATOM      3  C   UNL     1       1.002  -0.797  21.992  0.00  0.00    +0.019 A 
ATOM     38  C   UNL     1       0.875  -0.423  20.591  0.00  0.00    +0.120 A 
ATOM     39  N   UNL     1       1.387   0.793  20.149  0.00  0.00    -0.263 NA
ATOM     40  C   UNL     1       2.033   1.696  21.006  0.00  0.00    +0.111 A 
ENDBRANCH   4   3
ENDBRANCH  10   9
BRANCH  12  13
ATOM     13  N   UNL     1      -2.912  -8.965  21.073  0.00  0.00    -0.281 N 
ATOM     14  C   UNL     1      -3.448  -9.235  19.824  0.00  0.00    +0.248 C 
ATOM     30  O   UNL     1      -2.921  -8.927  18.765  0.00  0.00    -0.270 OA
ATOM     31  H   UNL     1      -3.538  -9.098  21.867  0.00  0.00    +0.155 HD
BRANCH  14  15
ATOM     15  C   UNL     1      -4.766  -9.934  19.740  0.00  0.00    +0.037 A 
ATOM     16  C   UNL     1      -5.811  -9.478  18.819  0.00  0.00    +0.013 A 
ATOM     17  C   UNL     1      -7.080 -10.160  18.770  0.00  0.00    +0.005 A 
ATOM     18  C   UNL     1      -7.310 -11.308  19.644  0.00  0.00    -0.033 A 
ATOM     28  C   UNL     1      -6.255 -11.742  20.544  0.00  0.00    +0.005 A 
ATOM     29  C   UNL     1      -5.010 -11.076  20.596  0.00  0.00    +0.013 A 
BRANCH  18  19
ATOM     19  C   UNL     1      -8.641 -12.082  19.674  0.00  0.00    +0.119 C 
BRANCH  19  20
ATOM     20  N   UNL     1      -9.271 -12.409  18.360  0.00  0.00    -0.302 NA
ATOM     21  C   UNL     1     -10.740 -11.977  18.304  0.00  0.00    +0.066 C 
ATOM     22  C   UNL     1     -11.377 -12.306  16.915  0.00  0.00    -0.064 C 
ATOM     23  N   UNL     1     -11.242 -13.804  16.637  0.00  0.00    +0.379 N 
ATOM     24  C   UNL     1     -11.892 -14.126  15.358  0.00  0.00    -0.096 C 
ATOM     25  H   UNL     1     -11.790 -14.348  17.441  0.00  0.00    -0.082 HD
ATOM     26  C   UNL     1      -9.785 -14.242  16.693  0.00  0.00    -0.064 C 
ATOM     27  C   UNL     1      -9.153 -13.884  18.067  0.00  0.00    +0.066 C 
ENDBRANCH  19  20
ENDBRANCH  18  19
ENDBRANCH  14  15
ENDBRANCH  12  13
TORSDOF 6
ENDMDL
