MODEL 1
REMARK VINA RESULT:      -8.2      0.000      0.000
REMARK  Name = C:\Users\Docking\Desktop\test protocol\1iep_ligandH.pdb
REMARK  8 active torsions:
REMARK  status: ('A' for Active; 'I' for Inactive)
REMARK    1  A    between atoms: _5  and  _11
REMARK    2  A    between atoms: _19  and  _21
REMARK    3  A    between atoms: _22  and  _66
REMARK    4  A    between atoms: _27  and  _30
REMARK    5  A    between atoms: _32  and  _33
REMARK    6  A    between atoms: _38  and  _43
REMARK    7  A    between atoms: _43  and  _46
REMARK    8  A    between atoms: _53  and  _55
REMARK                            x       y       z     vdW  Elec       q    Type
REMARK                         _______ _______ _______ _____ _____    ______ ____
ROOT
ATOM     10  C   UNL     1     -17.569  16.156  21.658  0.00  0.00    +0.038 A 
ATOM     11  C   UNL     1     -16.870  15.237  22.482  0.00  0.00    +0.047 A 
ATOM     12  C   UNL     1     -17.480  13.983  22.897  0.00  0.00    +0.035 A 
ATOM     32  C   UNL     1     -18.804  13.696  22.452  0.00  0.00    +0.024 A 
ATOM     33  C   UNL     1     -19.529  14.620  21.616  0.00  0.00    +0.007 A 
ATOM     34  C   UNL     1     -18.933  15.859  21.205  0.00  0.00    -0.029 A 
ATOM     35  C   UNL     1     -19.761  16.814  20.314  0.00  0.00    +0.045 C 
ENDROOT
BRANCH  10   9
ATOM      4  C   UNL     1     -15.871  20.533  22.656  0.00  0.00    +0.077 A 
ATOM      5  C   UNL     1     -16.308  20.456  24.021  0.00  0.00    +0.048 A 
ATOM      6  C   UNL     1     -16.972  19.275  24.424  0.00  0.00    +0.116 A 
ATOM      7  N   UNL     1     -17.178  18.255  23.521  0.00  0.00    -0.223 NA
ATOM      8  C   UNL     1     -16.746  18.362  22.212  0.00  0.00    +0.220 A 
ATOM      9  N   UNL     1     -16.935  17.344  21.290  0.00  0.00    -0.283 N 
ATOM     36  H   UNL     1     -16.608  17.465  20.332  0.00  0.00    +0.155 HD
ATOM     37  N   UNL     1     -16.110  19.479  21.802  0.00  0.00    -0.214 NA
BRANCH   4   3
ATOM      1  C   UNL     1     -13.097  22.847  21.155  0.00  0.00    +0.020 A 
ATOM      2  C   UNL     1     -13.744  21.679  21.708  0.00  0.00    +0.013 A 
ATOM      3  C   UNL     1     -15.152  21.713  22.081  0.00  0.00    +0.019 A 
ATOM     38  C   UNL     1     -15.884  22.955  21.879  0.00  0.00    +0.120 A 
ATOM     39  N   UNL     1     -15.235  24.064  21.346  0.00  0.00    -0.263 NA
ATOM     40  C   UNL     1     -13.879  24.043  20.986  0.00  0.00    +0.111 A 
ENDBRANCH   4   3
ENDBRANCH  10   9
BRANCH  12  13
ATOM     13  N   UNL     1     -16.822  13.015  23.738  0.00  0.00    -0.281 N 
ATOM     14  C   UNL     1     -17.366  12.283  24.781  0.00  0.00    +0.248 C 
ATOM     30  O   UNL     1     -18.455  12.508  25.289  0.00  0.00    -0.270 OA
ATOM     31  H   UNL     1     -15.835  12.849  23.542  0.00  0.00    +0.155 HD
BRANCH  14  15
ATOM     15  C   UNL     1     -16.582  11.146  25.352  0.00  0.00    +0.037 A 
ATOM     16  C   UNL     1     -15.303  10.735  24.766  0.00  0.00    +0.013 A 
ATOM     17  C   UNL     1     -14.575   9.624  25.325  0.00  0.00    +0.005 A 
ATOM     18  C   UNL     1     -15.124   8.916  26.480  0.00  0.00    -0.033 A 
ATOM     28  C   UNL     1     -16.392   9.348  27.044  0.00  0.00    +0.005 A 
ATOM     29  C   UNL     1     -17.109  10.436  26.498  0.00  0.00    +0.013 A 
BRANCH  18  19
ATOM     19  C   UNL     1     -14.426   7.706  27.129  0.00  0.00    +0.119 C 
BRANCH  19  20
ATOM     20  N   UNL     1     -15.173   6.413  27.144  0.00  0.00    -0.302 NA
ATOM     21  C   UNL     1     -14.331   5.270  27.718  0.00  0.00    +0.066 C 
ATOM     22  C   UNL     1     -15.135   3.930  27.748  0.00  0.00    -0.064 C 
ATOM     23  N   UNL     1     -15.613   3.594  26.334  0.00  0.00    +0.379 N 
ATOM     24  C   UNL     1     -16.320   2.305  26.349  0.00  0.00    -0.096 C 
ATOM     25  H   UNL     1     -14.710   3.477  25.691  0.00  0.00    -0.082 HD
ATOM     26  C   UNL     1     -16.449   4.726  25.755  0.00  0.00    -0.064 C 
ATOM     27  C   UNL     1     -15.651   6.060  25.757  0.00  0.00    +0.066 C 
ENDBRANCH  19  20
ENDBRANCH  18  19
ENDBRANCH  14  15
ENDBRANCH  12  13
TORSDOF 6
ENDMDL
MODEL 2
REMARK VINA RESULT:      -8.0      4.383      8.792
REMARK  Name = C:\Users\Docking\Desktop\test protocol\1iep_ligandH.pdb
REMARK  8 active torsions:
REMARK  status: ('A' for Active; 'I' for Inactive)
REMARK    1  A    between atoms: _5  and  _11
REMARK    2  A    between atoms: _19  and  _21
REMARK    3  A    between atoms: _22  and  _66
REMARK    4  A    between atoms: _27  and  _30
REMARK    5  A    between atoms: _32  and  _33
REMARK    6  A    between atoms: _38  and  _43
REMARK    7  A    between atoms: _43  and  _46
REMARK    8  A    between atoms: _53  and  _55
REMARK                            x       y       z     vdW  Elec       q    Type
REMARK                         _______ _______ _______ _____ _____    ______ ____
ROOT
ATOM     10  C   UNL     1     -12.778  23.448  21.506  0.00  0.00    +0.038 A 
ATOM     11  C   UNL     1     -13.162  22.116  21.806  0.00  0.00    +0.047 A 
ATOM     12  C   UNL     1     -14.304  21.497  21.152  0.00  0.00    +0.035 A 
ATOM     32  C   UNL     1     -15.033  22.264  20.197  0.00  0.00    +0.024 A 
ATOM     33  C   UNL     1     -14.657  23.619  19.881  0.00  0.00    +0.007 A 
ATOM     34  C   UNL     1     -13.532  24.236  20.524  0.00  0.00    -0.029 A 
ATOM     35  C   UNL     1     -13.179  25.694  20.152  0.00  0.00    +0.045 C 
ENDROOT
BRANCH  10   9
ATOM      4  C   UNL     1      -8.116  24.568  21.730  0.00  0.00    +0.077 A 
ATOM      5  C   UNL     1      -7.856  23.997  20.440  0.00  0.00    +0.048 A 
ATOM      6  C   UNL     1      -8.948  23.419  19.754  0.00  0.00    +0.116 A 
ATOM      7  N   UNL     1     -10.202  23.417  20.326  0.00  0.00    -0.223 NA
ATOM      8  C   UNL     1     -10.418  23.975  21.573  0.00  0.00    +0.220 A 
ATOM      9  N   UNL     1     -11.672  23.992  22.164  0.00  0.00    -0.283 N 
ATOM     36  H   UNL     1     -11.788  24.406  23.088  0.00  0.00    +0.155 HD
ATOM     37  N   UNL     1      -9.391  24.532  22.248  0.00  0.00    -0.214 NA
BRANCH   4   3
ATOM      1  C   UNL     1      -6.312  26.874  24.324  0.00  0.00    +0.020 A 
ATOM      2  C   UNL     1      -7.363  26.279  23.531  0.00  0.00    +0.013 A 
ATOM      3  C   UNL     1      -7.066  25.219  22.576  0.00  0.00    +0.019 A 
ATOM     38  C   UNL     1      -5.685  24.780  22.447  0.00  0.00    +0.120 A 
ATOM     39  N   UNL     1      -4.693  25.373  23.223  0.00  0.00    -0.263 NA
ATOM     40  C   UNL     1      -4.967  26.395  24.144  0.00  0.00    +0.111 A 
ENDBRANCH   4   3
ENDBRANCH  10   9
BRANCH  12  13
ATOM     13  N   UNL     1     -14.746  20.151  21.422  0.00  0.00    -0.281 N 
ATOM     14  C   UNL     1     -15.359  19.669  22.567  0.00  0.00    +0.248 C 
ATOM     30  O   UNL     1     -15.427  20.279  23.624  0.00  0.00    -0.270 OA
ATOM     31  H   UNL     1     -14.588  19.471  20.678  0.00  0.00    +0.155 HD
BRANCH  14  15
ATOM     15  C   UNL     1     -15.971  18.306  22.539  0.00  0.00    +0.037 A 
ATOM     16  C   UNL     1     -15.305  17.187  21.868  0.00  0.00    +0.013 A 
ATOM     17  C   UNL     1     -15.926  15.886  21.841  0.00  0.00    +0.005 A 
ATOM     18  C   UNL     1     -17.222  15.698  22.490  0.00  0.00    -0.033 A 
ATOM     28  C   UNL     1     -17.858  16.824  23.153  0.00  0.00    +0.005 A 
ATOM     29  C   UNL     1     -17.253  18.100  23.180  0.00  0.00    +0.013 A 
BRANCH  18  19
ATOM     19  C   UNL     1     -17.967  14.350  22.492  0.00  0.00    +0.119 C 
BRANCH  19  20
ATOM     20  N   UNL     1     -17.921  13.545  23.749  0.00  0.00    -0.302 NA
ATOM     21  C   UNL     1     -16.905  12.402  23.662  0.00  0.00    +0.066 C 
ATOM     22  C   UNL     1     -16.853  11.584  24.993  0.00  0.00    -0.064 C 
ATOM     23  N   UNL     1     -18.249  11.046  25.313  0.00  0.00    +0.379 N 
ATOM     24  C   UNL     1     -18.191  10.228  26.533  0.00  0.00    -0.096 C 
ATOM     25  H   UNL     1     -18.554  10.380  24.473  0.00  0.00    -0.082 HD
ATOM     26  C   UNL     1     -19.265  12.176  25.399  0.00  0.00    -0.064 C 
ATOM     27  C   UNL     1     -19.288  13.000  24.081  0.00  0.00    +0.066 C 
ENDBRANCH  19  20
ENDBRANCH  18  19
ENDBRANCH  14  15
ENDBRANCH  12  13
TORSDOF 6
ENDMDL
MODEL 3
REMARK VINA RESULT:      -7.8     23.422     26.075
REMARK  Name = C:\Users\Docking\Desktop\test protocol\1iep_ligandH.pdb
REMARK  8 active torsions:
REMARK  status: ('A' for Active; 'I' for Inactive)
REMARK    1  A    between atoms: _5  and  _11
REMARK    2  A    between atoms: _19  and  _21
REMARK    3  A    between atoms: _22  and  _66
REMARK    4  A    between atoms: _27  and  _30
REMARK    5  A    between atoms: _32  and  _33
REMARK    6  A    between atoms: _38  and  _43
REMARK    7  A    between atoms: _43  and  _46
REMARK    8  A    between atoms: _53  and  _55
REMARK                            x       y       z     vdW  Elec       q    Type
REMARK                         _______ _______ _______ _____ _____    ______ ____
ROOT
ATOM     10  C   UNL     1      -1.485  21.038  43.163  0.00  0.00    +0.038 A 
ATOM     11  C   UNL     1      -2.872  20.768  43.046  0.00  0.00    +0.047 A 
ATOM     12  C   UNL     1      -3.853  21.842  43.069  0.00  0.00    +0.035 A 
ATOM     32  C   UNL     1      -3.385  23.181  43.210  0.00  0.00    +0.024 A 
ATOM     33  C   UNL     1      -1.978  23.474  43.332  0.00  0.00    +0.007 A 
ATOM     34  C   UNL     1      -1.006  22.418  43.312  0.00  0.00    -0.029 A 
ATOM     35  C   UNL     1       0.488  22.790  43.452  0.00  0.00    +0.045 C 
ENDROOT
BRANCH  10   9
ATOM      4  C   UNL     1       1.011  17.548  45.314  0.00  0.00    +0.077 A 
ATOM      5  C   UNL     1       0.505  17.903  46.608  0.00  0.00    +0.048 A 
ATOM      6  C   UNL     1      -0.390  18.994  46.678  0.00  0.00    +0.116 A 
ATOM      7  N   UNL     1      -0.745  19.672  45.533  0.00  0.00    -0.223 NA
ATOM      8  C   UNL     1      -0.237  19.306  44.300  0.00  0.00    +0.220 A 
ATOM      9  N   UNL     1      -0.587  19.969  43.134  0.00  0.00    -0.283 N 
ATOM     36  H   UNL     1      -0.184  19.672  42.245  0.00  0.00    +0.155 HD
ATOM     37  N   UNL     1       0.620  18.268  44.207  0.00  0.00    -0.214 NA
BRANCH   4   3
ATOM      1  C   UNL     1       3.792  14.842  45.811  0.00  0.00    +0.020 A 
ATOM      2  C   UNL     1       2.894  15.939  46.091  0.00  0.00    +0.013 A 
ATOM      3  C   UNL     1       1.963  16.417  45.077  0.00  0.00    +0.019 A 
ATOM     38  C   UNL     1       1.965  15.758  43.779  0.00  0.00    +0.120 A 
ATOM     39  N   UNL     1       2.842  14.705  43.538  0.00  0.00    -0.263 NA
ATOM     40  C   UNL     1       3.744  14.238  44.506  0.00  0.00    +0.111 A 
ENDBRANCH   4   3
ENDBRANCH  10   9
BRANCH  12  13
ATOM     13  N   UNL     1      -5.274  21.627  42.963  0.00  0.00    -0.281 N 
ATOM     14  C   UNL     1      -6.077  20.830  43.762  0.00  0.00    +0.248 C 
ATOM     30  O   UNL     1      -5.657  20.008  44.562  0.00  0.00    -0.270 OA
ATOM     31  H   UNL     1      -5.746  22.124  42.207  0.00  0.00    +0.155 HD
BRANCH  14  15
ATOM     15  C   UNL     1      -7.562  20.953  43.644  0.00  0.00    +0.037 A 
ATOM     16  C   UNL     1      -8.392  19.807  43.260  0.00  0.00    +0.013 A 
ATOM     17  C   UNL     1      -9.820  19.958  43.137  0.00  0.00    +0.005 A 
ATOM     18  C   UNL     1     -10.428  21.259  43.400  0.00  0.00    -0.033 A 
ATOM     28  C   UNL     1      -9.583  22.377  43.784  0.00  0.00    +0.005 A 
ATOM     29  C   UNL     1      -8.182  22.234  43.905  0.00  0.00    +0.013 A 
BRANCH  18  19
ATOM     19  C   UNL     1     -11.942  21.516  43.273  0.00  0.00    +0.119 C 
BRANCH  19  20
ATOM     20  N   UNL     1     -12.859  20.396  43.640  0.00  0.00    -0.302 NA
ATOM     21  C   UNL     1     -13.849  20.073  42.518  0.00  0.00    +0.066 C 
ATOM     22  C   UNL     1     -14.786  18.885  42.910  0.00  0.00    -0.064 C 
ATOM     23  N   UNL     1     -15.526  19.228  44.203  0.00  0.00    +0.379 N 
ATOM     24  C   UNL     1     -16.451  18.137  44.544  0.00  0.00    -0.096 C 
ATOM     25  H   UNL     1     -16.136  20.141  44.011  0.00  0.00    -0.082 HD
ATOM     26  C   UNL     1     -14.549  19.553  45.324  0.00  0.00    -0.064 C 
ATOM     27  C   UNL     1     -13.604  20.716  44.913  0.00  0.00    +0.066 C 
ENDBRANCH  19  20
ENDBRANCH  18  19
ENDBRANCH  14  15
ENDBRANCH  12  13
TORSDOF 6
ENDMDL
MODEL 4
REMARK VINA RESULT:      -7.7     23.355     25.175
REMARK  Name = C:\Users\Docking\Desktop\test protocol\1iep_ligandH.pdb
REMARK  8 active torsions:
REMARK  status: ('A' for Active; 'I' for Inactive)
REMARK    1  A    between atoms: _5  and  _11
REMARK    2  A    between atoms: _19  and  _21
REMARK    3  A    between atoms: _22  and  _66
REMARK    4  A    between atoms: _27  and  _30
REMARK    5  A    between atoms: _32  and  _33
REMARK    6  A    between atoms: _38  and  _43
REMARK    7  A    between atoms: _43  and  _46
REMARK    8  A    between atoms: _53  and  _55
REMARK                            x       y       z     vdW  Elec       q    Type
REMARK                         _______ _______ _______ _____ _____    ______ ____
ROOT
ATOM     10  C   UNL     1      -3.667  21.663  42.964  0.00  0.00    +0.038 A 
ATOM     11  C   UNL     1      -2.807  20.540  43.064  0.00  0.00    +0.047 A 
ATOM     12  C   UNL     1      -1.397  20.699  43.387  0.00  0.00    +0.035 A 
ATOM     32  C   UNL     1      -0.899  22.016  43.605  0.00  0.00    +0.024 A 
ATOM     33  C   UNL     1      -1.759  23.169  43.507  0.00  0.00    +0.007 A 
ATOM     34  C   UNL     1      -3.150  23.018  43.186  0.00  0.00    -0.029 A 
ATOM     35  C   UNL     1      -4.024  24.290  43.087  0.00  0.00    +0.045 C 
ENDROOT
BRANCH  10   9
ATOM      4  C   UNL     1      -8.150  20.432  44.160  0.00  0.00    +0.077 A 
ATOM      5  C   UNL     1      -7.776  20.160  45.518  0.00  0.00    +0.048 A 
ATOM      6  C   UNL     1      -6.418  20.342  45.866  0.00  0.00    +0.116 A 
ATOM      7  N   UNL     1      -5.512  20.766  44.919  0.00  0.00    -0.223 NA
ATOM      8  C   UNL     1      -5.905  21.018  43.618  0.00  0.00    +0.220 A 
ATOM      9  N   UNL     1      -5.012  21.452  42.651  0.00  0.00    -0.283 N 
ATOM     36  H   UNL     1      -5.341  21.620  41.700  0.00  0.00    +0.155 HD
ATOM     37  N   UNL     1      -7.196  20.850  43.260  0.00  0.00    -0.214 NA
BRANCH   4   3
ATOM      1  C   UNL     1     -11.884  21.153  43.244  0.00  0.00    +0.020 A 
ATOM      2  C   UNL     1     -10.549  21.341  43.764  0.00  0.00    +0.013 A 
ATOM      3  C   UNL     1      -9.546  20.290  43.640  0.00  0.00    +0.019 A 
ATOM     38  C   UNL     1      -9.929  19.052  42.979  0.00  0.00    +0.120 A 
ATOM     39  N   UNL     1     -11.223  18.898  42.489  0.00  0.00    -0.263 NA
ATOM     40  C   UNL     1     -12.196  19.902  42.604  0.00  0.00    +0.111 A 
ENDBRANCH   4   3
ENDBRANCH  10   9
BRANCH  12  13
ATOM     13  N   UNL     1      -0.473  19.597  43.494  0.00  0.00    -0.281 N 
ATOM     14  C   UNL     1      -0.058  18.943  44.642  0.00  0.00    +0.248 C 
ATOM     30  O   UNL     1      -0.256  19.347  45.779  0.00  0.00    -0.270 OA
ATOM     31  H   UNL     1      -0.078  19.258  42.617  0.00  0.00    +0.155 HD
BRANCH  14  15
ATOM     15  C   UNL     1       0.699  17.661  44.509  0.00  0.00    +0.037 A 
ATOM     16  C   UNL     1       1.010  16.836  45.680  0.00  0.00    +0.013 A 
ATOM     17  C   UNL     1       1.757  15.613  45.525  0.00  0.00    +0.005 A 
ATOM     18  C   UNL     1       2.197  15.206  44.193  0.00  0.00    -0.033 A 
ATOM     28  C   UNL     1       1.870  16.040  43.048  0.00  0.00    +0.005 A 
ATOM     29  C   UNL     1       1.139  17.240  43.196  0.00  0.00    +0.013 A 
BRANCH  18  19
ATOM     19  C   UNL     1       3.016  13.927  43.937  0.00  0.00    +0.119 C 
BRANCH  19  20
ATOM     20  N   UNL     1       2.439  12.922  42.995  0.00  0.00    -0.302 NA
ATOM     21  C   UNL     1       1.346  12.077  43.656  0.00  0.00    +0.066 C 
ATOM     22  C   UNL     1       0.738  11.046  42.650  0.00  0.00    -0.064 C 
ATOM     23  N   UNL     1       1.853  10.156  42.099  0.00  0.00    +0.379 N 
ATOM     24  C   UNL     1       1.276   9.148  41.197  0.00  0.00    -0.096 C 
ATOM     25  H   UNL     1       2.311   9.616  42.961  0.00  0.00    -0.082 HD
ATOM     26  C   UNL     1       2.945  10.989  41.443  0.00  0.00    -0.064 C 
ATOM     27  C   UNL     1       3.523  12.029  42.443  0.00  0.00    +0.066 C 
ENDBRANCH  19  20
ENDBRANCH  18  19
ENDBRANCH  14  15
ENDBRANCH  12  13
TORSDOF 6
ENDMDL
MODEL 5
REMARK VINA RESULT:      -7.6     22.355     26.755
REMARK  Name = C:\Users\Docking\Desktop\test protocol\1iep_ligandH.pdb
REMARK  8 active torsions:
REMARK  status: ('A' for Active; 'I' for Inactive)
REMARK    1  A    between atoms: _5  and  _11
REMARK    2  A    between atoms: _19  and  _21
REMARK    3  A    between atoms: _22  and  _66
REMARK    4  A    between atoms: _27  and  _30
REMARK    5  A    between atoms: _32  and  _33
REMARK    6  A    between atoms: _38  and  _43
REMARK    7  A    between atoms: _43  and  _46
REMARK    8  A    between atoms: _53  and  _55
REMARK                            x       y       z     vdW  Elec       q    Type
REMARK                         _______ _______ _______ _____ _____    ______ ____
ROOT
ATOM     10  C   UNL     1      -7.920  19.592  44.289  0.00  0.00    +0.038 A 
ATOM     11  C   UNL     1      -7.822  21.007  44.309  0.00  0.00    +0.047 A 
ATOM     12  C   UNL     1      -6.770  21.699  43.581  0.00  0.00    +0.035 A 
ATOM     32  C   UNL     1      -5.834  20.919  42.842  0.00  0.00    +0.024 A 
ATOM     33  C   UNL     1      -5.917  19.480  42.812  0.00  0.00    +0.007 A 
ATOM     34  C   UNL     1      -6.952  18.791  43.529  0.00  0.00    -0.029 A 
ATOM     35  C   UNL     1      -6.989  17.246  43.467  0.00  0.00    +0.045 C 
ENDROOT
BRANCH  10   9
ATOM      4  C   UNL     1     -12.470  18.135  44.748  0.00  0.00    +0.077 A 
ATOM      5  C   UNL     1     -12.830  18.662  43.464  0.00  0.00    +0.048 A 
ATOM      6  C   UNL     1     -11.817  19.307  42.719  0.00  0.00    +0.116 A 
ATOM      7  N   UNL     1     -10.542  19.411  43.231  0.00  0.00    -0.223 NA
ATOM      8  C   UNL     1     -10.228  18.893  44.474  0.00  0.00    +0.220 A 
ATOM      9  N   UNL     1      -8.950  18.979  45.005  0.00  0.00    -0.283 N 
ATOM     36  H   UNL     1      -8.761  18.591  45.929  0.00  0.00    +0.155 HD
ATOM     37  N   UNL     1     -11.178  18.274  45.205  0.00  0.00    -0.214 NA
BRANCH   4   3
ATOM      1  C   UNL     1     -15.729  17.035  46.611  0.00  0.00    +0.020 A 
ATOM      2  C   UNL     1     -14.846  17.754  45.722  0.00  0.00    +0.013 A 
ATOM      3  C   UNL     1     -13.428  17.423  45.652  0.00  0.00    +0.019 A 
ATOM     38  C   UNL     1     -12.932  16.350  46.501  0.00  0.00    +0.120 A 
ATOM     39  N   UNL     1     -13.806  15.677  47.349  0.00  0.00    -0.263 NA
ATOM     40  C   UNL     1     -15.172  15.988  47.426  0.00  0.00    +0.111 A 
ENDBRANCH   4   3
ENDBRANCH  10   9
BRANCH  12  13
ATOM     13  N   UNL     1      -6.616  23.133  43.571  0.00  0.00    -0.281 N 
ATOM     14  C   UNL     1      -6.366  23.970  44.646  0.00  0.00    +0.248 C 
ATOM     30  O   UNL     1      -6.447  23.634  45.818  0.00  0.00    -0.270 OA
ATOM     31  H   UNL     1      -6.703  23.585  42.661  0.00  0.00    +0.155 HD
BRANCH  14  15
ATOM     15  C   UNL     1      -5.982  25.390  44.380  0.00  0.00    +0.037 A 
ATOM     16  C   UNL     1      -4.579  25.782  44.224  0.00  0.00    +0.013 A 
ATOM     17  C   UNL     1      -4.236  27.162  43.986  0.00  0.00    +0.005 A 
ATOM     18  C   UNL     1      -5.299  28.160  43.901  0.00  0.00    -0.033 A 
ATOM     28  C   UNL     1      -6.683  27.743  44.055  0.00  0.00    +0.005 A 
ATOM     29  C   UNL     1      -7.023  26.392  44.290  0.00  0.00    +0.013 A 
BRANCH  18  19
ATOM     19  C   UNL     1      -5.024  29.658  43.670  0.00  0.00    +0.119 C 
BRANCH  19  20
ATOM     20  N   UNL     1      -6.054  30.434  42.917  0.00  0.00    -0.302 NA
ATOM     21  C   UNL     1      -5.587  30.786  41.502  0.00  0.00    +0.066 C 
ATOM     22  C   UNL     1      -6.685  31.578  40.721  0.00  0.00    -0.064 C 
ATOM     23  N   UNL     1      -7.049  32.843  41.501  0.00  0.00    +0.379 N 
ATOM     24  C   UNL     1      -8.039  33.620  40.741  0.00  0.00    -0.096 C 
ATOM     25  H   UNL     1      -6.127  33.463  41.588  0.00  0.00    -0.082 HD
ATOM     26  C   UNL     1      -7.512  32.503  42.910  0.00  0.00    -0.064 C 
ATOM     27  C   UNL     1      -6.425  31.690  43.668  0.00  0.00    +0.066 C 
ENDBRANCH  19  20
ENDBRANCH  18  19
ENDBRANCH  14  15
ENDBRANCH  12  13
TORSDOF 6
ENDMDL
