MODEL 1
REMARK VINA RESULT:      -7.6      0.000      0.000
REMARK  Name = C:\Users\Docking\Desktop\test protocol\1iep_ligandH.pdb
REMARK  8 active torsions:
REMARK  status: ('A' for Active; 'I' for Inactive)
REMARK    1  A    between atoms: _5  and  _11
REMARK    2  A    between atoms: _19  and  _21
REMARK    3  A    between atoms: _22  and  _66
REMARK    4  A    between atoms: _27  and  _30
REMARK    5  A    between atoms: _32  and  _33
REMARK    6  A    between atoms: _38  and  _43
REMARK    7  A    between atoms: _43  and  _46
REMARK    8  A    between atoms: _53  and  _55
REMARK                            x       y       z     vdW  Elec       q    Type
REMARK                         _______ _______ _______ _____ _____    ______ ____
ROOT
ATOM     10  C   UNL     1      12.922   5.993  31.941  0.00  0.00    +0.038 A 
ATOM     11  C   UNL     1      12.090   4.877  31.673  0.00  0.00    +0.047 A 
ATOM     12  C   UNL     1      11.520   4.087  32.754  0.00  0.00    +0.035 A 
ATOM     32  C   UNL     1      11.815   4.465  34.096  0.00  0.00    +0.024 A 
ATOM     33  C   UNL     1      12.660   5.597  34.386  0.00  0.00    +0.007 A 
ATOM     34  C   UNL     1      13.228   6.378  33.324  0.00  0.00    -0.029 A 
ATOM     35  C   UNL     1      14.132   7.577  33.694  0.00  0.00    +0.045 C 
ENDROOT
BRANCH  10   9
ATOM      4  C   UNL     1      12.626   9.450  28.624  0.00  0.00    +0.077 A 
ATOM      5  C   UNL     1      11.311   9.831  29.053  0.00  0.00    +0.048 A 
ATOM      6  C   UNL     1      10.744   9.107  30.126  0.00  0.00    +0.116 A 
ATOM      7  N   UNL     1      11.448   8.082  30.718  0.00  0.00    -0.223 NA
ATOM      8  C   UNL     1      12.714   7.739  30.279  0.00  0.00    +0.220 A 
ATOM      9  N   UNL     1      13.443   6.716  30.865  0.00  0.00    -0.283 N 
ATOM     36  H   UNL     1      14.371   6.489  30.507  0.00  0.00    +0.155 HD
ATOM     37  N   UNL     1      13.277   8.413  29.255  0.00  0.00    -0.214 NA
BRANCH   4   3
ATOM      1  C   UNL     1      14.766  10.079  25.410  0.00  0.00    +0.020 A 
ATOM      2  C   UNL     1      14.072   9.383  26.469  0.00  0.00    +0.013 A 
ATOM      3  C   UNL     1      13.361  10.121  27.505  0.00  0.00    +0.019 A 
ATOM     38  C   UNL     1      13.370  11.575  27.440  0.00  0.00    +0.120 A 
ATOM     39  N   UNL     1      14.048  12.218  26.409  0.00  0.00    -0.263 NA
ATOM     40  C   UNL     1      14.737  11.518  25.407  0.00  0.00    +0.111 A 
ENDBRANCH   4   3
ENDBRANCH  10   9
BRANCH  12  13
ATOM     13  N   UNL     1      10.674   2.938  32.543  0.00  0.00    -0.281 N 
ATOM     14  C   UNL     1      11.004   1.739  31.932  0.00  0.00    +0.248 C 
ATOM     30  O   UNL     1      12.021   1.552  31.281  0.00  0.00    -0.270 OA
ATOM     31  H   UNL     1       9.717   3.019  32.885  0.00  0.00    +0.155 HD
BRANCH  14  15
ATOM     15  C   UNL     1      10.061   0.586  32.051  0.00  0.00    +0.037 A 
ATOM     16  C   UNL     1       8.636   0.793  32.323  0.00  0.00    +0.013 A 
ATOM     17  C   UNL     1       7.751  -0.338  32.449  0.00  0.00    +0.005 A 
ATOM     18  C   UNL     1       8.290  -1.688  32.302  0.00  0.00    -0.033 A 
ATOM     28  C   UNL     1       9.706  -1.865  32.027  0.00  0.00    +0.005 A 
ATOM     29  C   UNL     1      10.576  -0.759  31.904  0.00  0.00    +0.013 A 
BRANCH  18  19
ATOM     19  C   UNL     1       7.423  -2.953  32.442  0.00  0.00    +0.119 C 
BRANCH  19  20
ATOM     20  N   UNL     1       7.778  -3.908  33.534  0.00  0.00    -0.302 NA
ATOM     21  C   UNL     1       6.878  -5.146  33.530  0.00  0.00    +0.066 C 
ATOM     22  C   UNL     1       7.278  -6.145  34.665  0.00  0.00    -0.064 C 
ATOM     23  N   UNL     1       7.210  -5.430  36.016  0.00  0.00    +0.379 N 
ATOM     24  C   UNL     1       7.529  -6.381  37.091  0.00  0.00    -0.096 C 
ATOM     25  H   UNL     1       6.159  -5.090  36.166  0.00  0.00    -0.082 HD
ATOM     26  C   UNL     1       8.100  -4.196  36.028  0.00  0.00    -0.064 C 
ATOM     27  C   UNL     1       7.714  -3.224  34.878  0.00  0.00    +0.066 C 
ENDBRANCH  19  20
ENDBRANCH  18  19
ENDBRANCH  14  15
ENDBRANCH  12  13
TORSDOF 6
ENDMDL
MODEL 2
REMARK VINA RESULT:      -7.4      1.943      2.803
REMARK  Name = C:\Users\Docking\Desktop\test protocol\1iep_ligandH.pdb
REMARK  8 active torsions:
REMARK  status: ('A' for Active; 'I' for Inactive)
REMARK    1  A    between atoms: _5  and  _11
REMARK    2  A    between atoms: _19  and  _21
REMARK    3  A    between atoms: _22  and  _66
REMARK    4  A    between atoms: _27  and  _30
REMARK    5  A    between atoms: _32  and  _33
REMARK    6  A    between atoms: _38  and  _43
REMARK    7  A    between atoms: _43  and  _46
REMARK    8  A    between atoms: _53  and  _55
REMARK                            x       y       z     vdW  Elec       q    Type
REMARK                         _______ _______ _______ _____ _____    ______ ____
ROOT
ATOM     10  C   UNL     1      12.911   5.986  32.065  0.00  0.00    +0.038 A 
ATOM     11  C   UNL     1      12.078   4.882  31.752  0.00  0.00    +0.047 A 
ATOM     12  C   UNL     1      11.486   4.065  32.800  0.00  0.00    +0.035 A 
ATOM     32  C   UNL     1      11.762   4.404  34.157  0.00  0.00    +0.024 A 
ATOM     33  C   UNL     1      12.607   5.522  34.493  0.00  0.00    +0.007 A 
ATOM     34  C   UNL     1      13.196   6.329  33.463  0.00  0.00    -0.029 A 
ATOM     35  C   UNL     1      14.100   7.512  33.882  0.00  0.00    +0.045 C 
ENDROOT
BRANCH  10   9
ATOM      4  C   UNL     1      12.634   9.448  28.752  0.00  0.00    +0.077 A 
ATOM      5  C   UNL     1      11.285   9.773  29.119  0.00  0.00    +0.048 A 
ATOM      6  C   UNL     1      10.697   9.020  30.160  0.00  0.00    +0.116 A 
ATOM      7  N   UNL     1      11.413   8.020  30.782  0.00  0.00    -0.223 NA
ATOM      8  C   UNL     1      12.712   7.732  30.402  0.00  0.00    +0.220 A 
ATOM      9  N   UNL     1      13.453   6.736  31.019  0.00  0.00    -0.283 N 
ATOM     36  H   UNL     1      14.405   6.549  30.705  0.00  0.00    +0.155 HD
ATOM     37  N   UNL     1      13.295   8.435  29.410  0.00  0.00    -0.214 NA
BRANCH   4   3
ATOM      1  C   UNL     1      14.750  10.188  25.547  0.00  0.00    +0.020 A 
ATOM      2  C   UNL     1      14.029   9.457  26.563  0.00  0.00    +0.013 A 
ATOM      3  C   UNL     1      13.393  10.156  27.674  0.00  0.00    +0.019 A 
ATOM     38  C   UNL     1      13.507  11.606  27.726  0.00  0.00    +0.120 A 
ATOM     39  N   UNL     1      14.210  12.283  26.734  0.00  0.00    -0.263 NA
ATOM     40  C   UNL     1      14.826  11.621  25.662  0.00  0.00    +0.111 A 
ENDBRANCH   4   3
ENDBRANCH  10   9
BRANCH  12  13
ATOM     13  N   UNL     1      10.638   2.927  32.543  0.00  0.00    -0.281 N 
ATOM     14  C   UNL     1      11.009   1.680  32.068  0.00  0.00    +0.248 C 
ATOM     30  O   UNL     1      12.102   1.420  31.587  0.00  0.00    -0.270 OA
ATOM     31  H   UNL     1       9.645   3.057  32.735  0.00  0.00    +0.155 HD
BRANCH  14  15
ATOM     15  C   UNL     1      10.017   0.563  32.122  0.00  0.00    +0.037 A 
ATOM     16  C   UNL     1      10.429  -0.830  31.931  0.00  0.00    +0.013 A 
ATOM     17  C   UNL     1       9.449  -1.886  31.971  0.00  0.00    +0.005 A 
ATOM     18  C   UNL     1       8.046  -1.553  32.204  0.00  0.00    -0.033 A 
ATOM     28  C   UNL     1       7.665  -0.163  32.395  0.00  0.00    +0.005 A 
ATOM     29  C   UNL     1       8.623   0.875  32.356  0.00  0.00    +0.013 A 
BRANCH  18  19
ATOM     19  C   UNL     1       6.930  -2.614  32.241  0.00  0.00    +0.119 C 
BRANCH  19  20
ATOM     20  N   UNL     1       5.523  -2.122  32.333  0.00  0.00    -0.302 NA
ATOM     21  C   UNL     1       4.647  -3.044  33.185  0.00  0.00    +0.066 C 
ATOM     22  C   UNL     1       3.183  -2.503  33.289  0.00  0.00    -0.064 C 
ATOM     23  N   UNL     1       2.599  -2.348  31.884  0.00  0.00    +0.379 N 
ATOM     24  C   UNL     1       1.204  -1.895  31.980  0.00  0.00    -0.096 C 
ATOM     25  H   UNL     1       2.596  -3.355  31.406  0.00  0.00    -0.082 HD
ATOM     26  C   UNL     1       3.466  -1.435  31.029  0.00  0.00    -0.064 C 
ATOM     27  C   UNL     1       4.925  -1.966  30.956  0.00  0.00    +0.066 C 
ENDBRANCH  19  20
ENDBRANCH  18  19
ENDBRANCH  14  15
ENDBRANCH  12  13
TORSDOF 6
ENDMDL
MODEL 3
REMARK VINA RESULT:      -7.4     18.899     23.987
REMARK  Name = C:\Users\Docking\Desktop\test protocol\1iep_ligandH.pdb
REMARK  8 active torsions:
REMARK  status: ('A' for Active; 'I' for Inactive)
REMARK    1  A    between atoms: _5  and  _11
REMARK    2  A    between atoms: _19  and  _21
REMARK    3  A    between atoms: _22  and  _66
REMARK    4  A    between atoms: _27  and  _30
REMARK    5  A    between atoms: _32  and  _33
REMARK    6  A    between atoms: _38  and  _43
REMARK    7  A    between atoms: _43  and  _46
REMARK    8  A    between atoms: _53  and  _55
REMARK                            x       y       z     vdW  Elec       q    Type
REMARK                         _______ _______ _______ _____ _____    ______ ____
ROOT
ATOM     10  C   UNL     1      10.413   7.147  10.173  0.00  0.00    +0.038 A 
ATOM     11  C   UNL     1      10.506   8.302  10.991  0.00  0.00    +0.047 A 
ATOM     12  C   UNL     1      11.293   9.454  10.580  0.00  0.00    +0.035 A 
ATOM     32  C   UNL     1      11.972   9.397   9.328  0.00  0.00    +0.024 A 
ATOM     33  C   UNL     1      11.889   8.230   8.485  0.00  0.00    +0.007 A 
ATOM     34  C   UNL     1      11.116   7.090   8.886  0.00  0.00    -0.029 A 
ATOM     35  C   UNL     1      11.068   5.864   7.945  0.00  0.00    +0.045 C 
ENDROOT
BRANCH  10   9
ATOM      4  C   UNL     1       6.232   4.832  10.617  0.00  0.00    +0.077 A 
ATOM      5  C   UNL     1       5.518   5.869   9.930  0.00  0.00    +0.048 A 
ATOM      6  C   UNL     1       6.262   6.984   9.485  0.00  0.00    +0.116 A 
ATOM      7  N   UNL     1       7.619   7.047   9.715  0.00  0.00    -0.223 NA
ATOM      8  C   UNL     1       8.277   6.031  10.382  0.00  0.00    +0.220 A 
ATOM      9  N   UNL     1       9.643   6.070  10.617  0.00  0.00    -0.283 N 
ATOM     36  H   UNL     1      10.090   5.304  11.120  0.00  0.00    +0.155 HD
ATOM     37  N   UNL     1       7.589   4.956  10.819  0.00  0.00    -0.214 NA
BRANCH   4   3
ATOM      1  C   UNL     1       5.061   1.954  12.993  0.00  0.00    +0.020 A 
ATOM      2  C   UNL     1       5.705   3.163  12.534  0.00  0.00    +0.013 A 
ATOM      3  C   UNL     1       5.587   3.589  11.145  0.00  0.00    +0.019 A 
ATOM     38  C   UNL     1       4.803   2.762  10.240  0.00  0.00    +0.120 A 
ATOM     39  N   UNL     1       4.195   1.602  10.710  0.00  0.00    -0.263 NA
ATOM     40  C   UNL     1       4.304   1.182  12.044  0.00  0.00    +0.111 A 
ENDBRANCH   4   3
ENDBRANCH  10   9
BRANCH  12  13
ATOM     13  N   UNL     1      11.431  10.651  11.372  0.00  0.00    -0.281 N 
ATOM     14  C   UNL     1      12.589  11.189  11.909  0.00  0.00    +0.248 C 
ATOM     30  O   UNL     1      13.660  10.603  11.969  0.00  0.00    -0.270 OA
ATOM     31  H   UNL     1      10.570  11.165  11.560  0.00  0.00    +0.155 HD
BRANCH  14  15
ATOM     15  C   UNL     1      12.549  12.572  12.474  0.00  0.00    +0.037 A 
ATOM     16  C   UNL     1      12.149  12.815  13.862  0.00  0.00    +0.013 A 
ATOM     17  C   UNL     1      12.103  14.160  14.377  0.00  0.00    +0.005 A 
ATOM     18  C   UNL     1      12.459  15.274  13.502  0.00  0.00    -0.033 A 
ATOM     28  C   UNL     1      12.858  15.005  12.130  0.00  0.00    +0.005 A 
ATOM     29  C   UNL     1      12.904  13.687  11.622  0.00  0.00    +0.013 A 
BRANCH  18  19
ATOM     19  C   UNL     1      12.418  16.744  13.960  0.00  0.00    +0.119 C 
BRANCH  19  20
ATOM     20  N   UNL     1      12.678  17.018  15.405  0.00  0.00    -0.302 NA
ATOM     21  C   UNL     1      12.120  18.375  15.842  0.00  0.00    +0.066 C 
ATOM     22  C   UNL     1      12.381  18.635  17.362  0.00  0.00    -0.064 C 
ATOM     23  N   UNL     1      13.883  18.551  17.640  0.00  0.00    +0.379 N 
ATOM     24  C   UNL     1      14.137  18.853  19.056  0.00  0.00    -0.096 C 
ATOM     25  H   UNL     1      14.384  19.340  17.031  0.00  0.00    -0.082 HD
ATOM     26  C   UNL     1      14.446  17.206  17.205  0.00  0.00    -0.064 C 
ATOM     27  C   UNL     1      14.156  16.944  15.701  0.00  0.00    +0.066 C 
ENDBRANCH  19  20
ENDBRANCH  18  19
ENDBRANCH  14  15
ENDBRANCH  12  13
TORSDOF 6
ENDMDL
MODEL 4
REMARK VINA RESULT:      -7.3     18.551     26.957
REMARK  Name = C:\Users\Docking\Desktop\test protocol\1iep_ligandH.pdb
REMARK  8 active torsions:
REMARK  status: ('A' for Active; 'I' for Inactive)
REMARK    1  A    between atoms: _5  and  _11
REMARK    2  A    between atoms: _19  and  _21
REMARK    3  A    between atoms: _22  and  _66
REMARK    4  A    between atoms: _27  and  _30
REMARK    5  A    between atoms: _32  and  _33
REMARK    6  A    between atoms: _38  and  _43
REMARK    7  A    between atoms: _43  and  _46
REMARK    8  A    between atoms: _53  and  _55
REMARK                            x       y       z     vdW  Elec       q    Type
REMARK                         _______ _______ _______ _____ _____    ______ ____
ROOT
ATOM     10  C   UNL     1      12.384  14.531  13.391  0.00  0.00    +0.038 A 
ATOM     11  C   UNL     1      12.890  14.583  12.067  0.00  0.00    +0.047 A 
ATOM     12  C   UNL     1      13.733  15.683  11.625  0.00  0.00    +0.035 A 
ATOM     32  C   UNL     1      14.043  16.713  12.560  0.00  0.00    +0.024 A 
ATOM     33  C   UNL     1      13.536  16.678  13.909  0.00  0.00    +0.007 A 
ATOM     34  C   UNL     1      12.702  15.596  14.350  0.00  0.00    -0.029 A 
ATOM     35  C   UNL     1      12.182  15.613  15.806  0.00  0.00    +0.045 C 
ENDROOT
BRANCH  10   9
ATOM      4  C   UNL     1      11.422   9.832  13.561  0.00  0.00    +0.077 A 
ATOM      5  C   UNL     1      12.609   9.502  12.826  0.00  0.00    +0.048 A 
ATOM      6  C   UNL     1      13.437  10.572  12.417  0.00  0.00    +0.116 A 
ATOM      7  N   UNL     1      13.094  11.870  12.725  0.00  0.00    -0.223 NA
ATOM      8  C   UNL     1      11.940  12.154  13.433  0.00  0.00    +0.220 A 
ATOM      9  N   UNL     1      11.579  13.452  13.761  0.00  0.00    -0.283 N 
ATOM     36  H   UNL     1      10.717  13.620  14.278  0.00  0.00    +0.155 HD
ATOM     37  N   UNL     1      11.132  11.150  13.834  0.00  0.00    -0.214 NA
BRANCH   4   3
ATOM      1  C   UNL     1       9.693   6.435  14.438  0.00  0.00    +0.020 A 
ATOM      2  C   UNL     1      10.665   7.377  13.933  0.00  0.00    +0.013 A 
ATOM      3  C   UNL     1      10.448   8.813  14.065  0.00  0.00    +0.019 A 
ATOM     38  C   UNL     1       9.229   9.265  14.718  0.00  0.00    +0.120 A 
ATOM     39  N   UNL     1       8.310   8.334  15.192  0.00  0.00    -0.263 NA
ATOM     40  C   UNL     1       8.507   6.950  15.070  0.00  0.00    +0.111 A 
ENDBRANCH   4   3
ENDBRANCH  10   9
BRANCH  12  13
ATOM     13  N   UNL     1      14.269  15.793  10.291  0.00  0.00    -0.281 N 
ATOM     14  C   UNL     1      13.658  16.329   9.169  0.00  0.00    +0.248 C 
ATOM     30  O   UNL     1      12.470  16.603   9.094  0.00  0.00    -0.270 OA
ATOM     31  H   UNL     1      15.214  15.431  10.158  0.00  0.00    +0.155 HD
BRANCH  14  15
ATOM     15  C   UNL     1      14.484  16.583   7.950  0.00  0.00    +0.037 A 
ATOM     16  C   UNL     1      13.895  17.168   6.742  0.00  0.00    +0.013 A 
ATOM     17  C   UNL     1      14.710  17.388   5.574  0.00  0.00    +0.005 A 
ATOM     18  C   UNL     1      16.125  17.023   5.608  0.00  0.00    -0.033 A 
ATOM     28  C   UNL     1      16.684  16.449   6.821  0.00  0.00    +0.005 A 
ATOM     29  C   UNL     1      15.888  16.231   7.968  0.00  0.00    +0.013 A 
BRANCH  18  19
ATOM     19  C   UNL     1      17.064  17.202   4.401  0.00  0.00    +0.119 C 
BRANCH  19  20
ATOM     20  N   UNL     1      17.766  15.985   3.895  0.00  0.00    -0.302 NA
ATOM     21  C   UNL     1      18.862  16.333   2.884  0.00  0.00    +0.066 C 
ATOM     22  C   UNL     1      19.601  15.050   2.381  0.00  0.00    -0.064 C 
ATOM     23  N   UNL     1      18.584  14.087   1.767  0.00  0.00    +0.379 N 
ATOM     24  C   UNL     1      19.283  12.905   1.241  0.00  0.00    -0.096 C 
ATOM     25  H   UNL     1      18.104  14.607   0.906  0.00  0.00    -0.082 HD
ATOM     26  C   UNL     1      17.489  13.737   2.764  0.00  0.00    -0.064 C 
ATOM     27  C   UNL     1      16.781  15.021   3.280  0.00  0.00    +0.066 C 
ENDBRANCH  19  20
ENDBRANCH  18  19
ENDBRANCH  14  15
ENDBRANCH  12  13
TORSDOF 6
ENDMDL
MODEL 5
REMARK VINA RESULT:      -7.1     24.265     28.195
REMARK  Name = C:\Users\Docking\Desktop\test protocol\1iep_ligandH.pdb
REMARK  8 active torsions:
REMARK  status: ('A' for Active; 'I' for Inactive)
REMARK    1  A    between atoms: _5  and  _11
REMARK    2  A    between atoms: _19  and  _21
REMARK    3  A    between atoms: _22  and  _66
REMARK    4  A    between atoms: _27  and  _30
REMARK    5  A    between atoms: _32  and  _33
REMARK    6  A    between atoms: _38  and  _43
REMARK    7  A    between atoms: _43  and  _46
REMARK    8  A    between atoms: _53  and  _55
REMARK                            x       y       z     vdW  Elec       q    Type
REMARK                         _______ _______ _______ _____ _____    ______ ____
ROOT
ATOM     10  C   UNL     1      27.149 -11.169  14.918  0.00  0.00    +0.038 A 
ATOM     11  C   UNL     1      27.418  -9.779  14.832  0.00  0.00    +0.047 A 
ATOM     12  C   UNL     1      28.430  -9.156  15.671  0.00  0.00    +0.035 A 
ATOM     32  C   UNL     1      29.151  -9.979  16.584  0.00  0.00    +0.024 A 
ATOM     33  C   UNL     1      28.889 -11.393  16.685  0.00  0.00    +0.007 A 
ATOM     34  C   UNL     1      27.890 -12.013  15.862  0.00  0.00    -0.029 A 
ATOM     35  C   UNL     1      27.647 -13.532  16.018  0.00  0.00    +0.045 C 
ENDROOT
BRANCH  10   9
ATOM      4  C   UNL     1      22.699 -11.260  13.120  0.00  0.00    +0.077 A 
ATOM      5  C   UNL     1      22.290 -10.142  13.920  0.00  0.00    +0.048 A 
ATOM      6  C   UNL     1      23.252  -9.577  14.786  0.00  0.00    +0.116 A 
ATOM      7  N   UNL     1      24.526 -10.099  14.840  0.00  0.00    -0.223 NA
ATOM      8  C   UNL     1      24.888 -11.179  14.056  0.00  0.00    +0.220 A 
ATOM      9  N   UNL     1      26.166 -11.715  14.088  0.00  0.00    -0.283 N 
ATOM     36  H   UNL     1      26.392 -12.516  13.500  0.00  0.00    +0.155 HD
ATOM     37  N   UNL     1      23.987 -11.737  13.222  0.00  0.00    -0.214 NA
BRANCH   4   3
ATOM      1  C   UNL     1      20.465 -12.076  10.014  0.00  0.00    +0.020 A 
ATOM      2  C   UNL     1      21.335 -11.353  10.913  0.00  0.00    +0.013 A 
ATOM      3  C   UNL     1      21.798 -11.963  12.153  0.00  0.00    +0.019 A 
ATOM     38  C   UNL     1      21.360 -13.318  12.456  0.00  0.00    +0.120 A 
ATOM     39  N   UNL     1      20.521 -13.989  11.571  0.00  0.00    -0.263 NA
ATOM     40  C   UNL     1      20.068 -13.411  10.376  0.00  0.00    +0.111 A 
ENDBRANCH   4   3
ENDBRANCH  10   9
BRANCH  12  13
ATOM     13  N   UNL     1      28.742  -7.749  15.634  0.00  0.00    -0.281 N 
ATOM     14  C   UNL     1      29.528  -7.074  14.713  0.00  0.00    +0.248 C 
ATOM     30  O   UNL     1      30.260  -7.618  13.900  0.00  0.00    -0.270 OA
ATOM     31  H   UNL     1      28.334  -7.180  16.376  0.00  0.00    +0.155 HD
BRANCH  14  15
ATOM     15  C   UNL     1      29.509  -5.580  14.705  0.00  0.00    +0.037 A 
ATOM     16  C   UNL     1      30.739  -4.803  14.877  0.00  0.00    +0.013 A 
ATOM     17  C   UNL     1      30.690  -3.362  14.882  0.00  0.00    +0.005 A 
ATOM     18  C   UNL     1      29.405  -2.689  14.713  0.00  0.00    -0.033 A 
ATOM     28  C   UNL     1      28.200  -3.484  14.540  0.00  0.00    +0.005 A 
ATOM     29  C   UNL     1      28.244  -4.896  14.535  0.00  0.00    +0.013 A 
BRANCH  18  19
ATOM     19  C   UNL     1      29.256  -1.156  14.727  0.00  0.00    +0.119 C 
BRANCH  19  20
ATOM     20  N   UNL     1      29.571  -0.450  16.005  0.00  0.00    -0.302 NA
ATOM     21  C   UNL     1      28.305  -0.052  16.769  0.00  0.00    +0.066 C 
ATOM     22  C   UNL     1      28.654   0.665  18.114  0.00  0.00    -0.064 C 
ATOM     23  N   UNL     1      29.519   1.893  17.824  0.00  0.00    +0.379 N 
ATOM     24  C   UNL     1      29.801   2.602  19.080  0.00  0.00    -0.096 C 
ATOM     25  H   UNL     1      28.927   2.578  17.173  0.00  0.00    -0.082 HD
ATOM     26  C   UNL     1      30.779   1.507  17.062  0.00  0.00    -0.064 C 
ATOM     27  C   UNL     1      30.422   0.768  15.741  0.00  0.00    +0.066 C 
ENDBRANCH  19  20
ENDBRANCH  18  19
ENDBRANCH  14  15
ENDBRANCH  12  13
TORSDOF 6
ENDMDL
