MODEL 1
REMARK VINA RESULT:      -7.0      0.000      0.000
REMARK  Name = C:\Users\Docking\Desktop\test protocol\1iep_ligandH.pdb
REMARK  8 active torsions:
REMARK  status: ('A' for Active; 'I' for Inactive)
REMARK    1  A    between atoms: _5  and  _11
REMARK    2  A    between atoms: _19  and  _21
REMARK    3  A    between atoms: _22  and  _66
REMARK    4  A    between atoms: _27  and  _30
REMARK    5  A    between atoms: _32  and  _33
REMARK    6  A    between atoms: _38  and  _43
REMARK    7  A    between atoms: _43  and  _46
REMARK    8  A    between atoms: _53  and  _55
REMARK                            x       y       z     vdW  Elec       q    Type
REMARK                         _______ _______ _______ _____ _____    ______ ____
ROOT
ATOM     10  C   UNL     1      23.376  34.070  14.143  0.00  0.00    +0.038 A 
ATOM     11  C   UNL     1      24.554  33.281  14.100  0.00  0.00    +0.047 A 
ATOM     12  C   UNL     1      25.869  33.883  14.263  0.00  0.00    +0.035 A 
ATOM     32  C   UNL     1      25.946  35.291  14.472  0.00  0.00    +0.024 A 
ATOM     33  C   UNL     1      24.759  36.107  14.518  0.00  0.00    +0.007 A 
ATOM     34  C   UNL     1      23.460  35.520  14.355  0.00  0.00    -0.029 A 
ATOM     35  C   UNL     1      22.221  36.445  14.407  0.00  0.00    +0.045 C 
ENDROOT
BRANCH  10   9
ATOM      4  C   UNL     1      19.533  31.776  15.878  0.00  0.00    +0.077 A 
ATOM      5  C   UNL     1      20.044  31.811  17.219  0.00  0.00    +0.048 A 
ATOM      6  C   UNL     1      21.302  32.423  17.418  0.00  0.00    +0.116 A 
ATOM      7  N   UNL     1      21.990  32.956  16.349  0.00  0.00    -0.223 NA
ATOM      8  C   UNL     1      21.470  32.903  15.069  0.00  0.00    +0.220 A 
ATOM      9  N   UNL     1      22.140  33.440  13.981  0.00  0.00    -0.283 N 
ATOM     36  H   UNL     1      21.726  33.375  13.051  0.00  0.00    +0.155 HD
ATOM     37  N   UNL     1      20.271  32.324  14.852  0.00  0.00    -0.214 NA
BRANCH   4   3
ATOM      1  C   UNL     1      16.805  29.348  14.478  0.00  0.00    +0.020 A 
ATOM      2  C   UNL     1      18.101  29.892  14.812  0.00  0.00    +0.013 A 
ATOM      3  C   UNL     1      18.217  31.168  15.508  0.00  0.00    +0.019 A 
ATOM     38  C   UNL     1      16.992  31.872  15.855  0.00  0.00    +0.120 A 
ATOM     39  N   UNL     1      15.758  31.325  15.519  0.00  0.00    -0.263 NA
ATOM     40  C   UNL     1      15.634  30.099  14.848  0.00  0.00    +0.111 A 
ENDBRANCH   4   3
ENDBRANCH  10   9
BRANCH  12  13
ATOM     13  N   UNL     1      27.100  33.134  14.220  0.00  0.00    -0.281 N 
ATOM     14  C   UNL     1      27.494  32.094  15.046  0.00  0.00    +0.248 C 
ATOM     30  O   UNL     1      26.934  31.790  16.089  0.00  0.00    -0.270 OA
ATOM     31  H   UNL     1      27.762  33.404  13.492  0.00  0.00    +0.155 HD
BRANCH  14  15
ATOM     15  C   UNL     1      28.692  31.285  14.667  0.00  0.00    +0.037 A 
ATOM     16  C   UNL     1      28.940  29.970  15.264  0.00  0.00    +0.013 A 
ATOM     17  C   UNL     1      30.112  29.217  14.893  0.00  0.00    +0.005 A 
ATOM     18  C   UNL     1      31.045  29.778  13.918  0.00  0.00    -0.033 A 
ATOM     28  C   UNL     1      30.771  31.082  13.337  0.00  0.00    +0.005 A 
ATOM     29  C   UNL     1      29.624  31.823  13.699  0.00  0.00    +0.013 A 
BRANCH  18  19
ATOM     19  C   UNL     1      32.331  29.054  13.479  0.00  0.00    +0.119 C 
BRANCH  19  20
ATOM     20  N   UNL     1      32.841  29.338  12.105  0.00  0.00    -0.302 NA
ATOM     21  C   UNL     1      32.833  28.089  11.219  0.00  0.00    +0.066 C 
ATOM     22  C   UNL     1      33.348  28.410   9.778  0.00  0.00    -0.064 C 
ATOM     23  N   UNL     1      34.754  29.004   9.863  0.00  0.00    +0.379 N 
ATOM     24  C   UNL     1      35.264  29.253   8.506  0.00  0.00    -0.096 C 
ATOM     25  H   UNL     1      35.415  28.243  10.338  0.00  0.00    -0.082 HD
ATOM     26  C   UNL     1      34.772  30.245  10.743  0.00  0.00    -0.064 C 
ATOM     27  C   UNL     1      34.231  29.923  12.164  0.00  0.00    +0.066 C 
ENDBRANCH  19  20
ENDBRANCH  18  19
ENDBRANCH  14  15
ENDBRANCH  12  13
TORSDOF 6
ENDMDL
MODEL 2
REMARK VINA RESULT:      -6.6      1.859      2.647
REMARK  Name = C:\Users\Docking\Desktop\test protocol\1iep_ligandH.pdb
REMARK  8 active torsions:
REMARK  status: ('A' for Active; 'I' for Inactive)
REMARK    1  A    between atoms: _5  and  _11
REMARK    2  A    between atoms: _19  and  _21
REMARK    3  A    between atoms: _22  and  _66
REMARK    4  A    between atoms: _27  and  _30
REMARK    5  A    between atoms: _32  and  _33
REMARK    6  A    between atoms: _38  and  _43
REMARK    7  A    between atoms: _43  and  _46
REMARK    8  A    between atoms: _53  and  _55
REMARK                            x       y       z     vdW  Elec       q    Type
REMARK                         _______ _______ _______ _____ _____    ______ ____
ROOT
ATOM     10  C   UNL     1      23.307  34.021  14.160  0.00  0.00    +0.038 A 
ATOM     11  C   UNL     1      24.471  33.210  14.159  0.00  0.00    +0.047 A 
ATOM     12  C   UNL     1      25.793  33.791  14.332  0.00  0.00    +0.035 A 
ATOM     32  C   UNL     1      25.893  35.203  14.505  0.00  0.00    +0.024 A 
ATOM     33  C   UNL     1      24.721  36.042  14.507  0.00  0.00    +0.007 A 
ATOM     34  C   UNL     1      23.414  35.475  14.335  0.00  0.00    -0.029 A 
ATOM     35  C   UNL     1      22.193  36.423  14.339  0.00  0.00    +0.045 C 
ENDROOT
BRANCH  10   9
ATOM      4  C   UNL     1      19.434  31.760  15.869  0.00  0.00    +0.077 A 
ATOM      5  C   UNL     1      19.945  31.773  17.210  0.00  0.00    +0.048 A 
ATOM      6  C   UNL     1      21.211  32.364  17.416  0.00  0.00    +0.116 A 
ATOM      7  N   UNL     1      21.906  32.901  16.353  0.00  0.00    -0.223 NA
ATOM      8  C   UNL     1      21.385  32.870  15.072  0.00  0.00    +0.220 A 
ATOM      9  N   UNL     1      22.063  33.410  13.990  0.00  0.00    -0.283 N 
ATOM     36  H   UNL     1      21.648  33.361  13.060  0.00  0.00    +0.155 HD
ATOM     37  N   UNL     1      20.178  32.309  14.849  0.00  0.00    -0.214 NA
BRANCH   4   3
ATOM      1  C   UNL     1      16.670  29.363  14.484  0.00  0.00    +0.020 A 
ATOM      2  C   UNL     1      17.973  29.885  14.826  0.00  0.00    +0.013 A 
ATOM      3  C   UNL     1      18.109  31.174  15.492  0.00  0.00    +0.019 A 
ATOM     38  C   UNL     1      16.896  31.916  15.801  0.00  0.00    +0.120 A 
ATOM     39  N   UNL     1      15.654  31.390  15.458  0.00  0.00    -0.263 NA
ATOM     40  C   UNL     1      15.512  30.151  14.815  0.00  0.00    +0.111 A 
ENDBRANCH   4   3
ENDBRANCH  10   9
BRANCH  12  13
ATOM     13  N   UNL     1      27.011  33.019  14.332  0.00  0.00    -0.281 N 
ATOM     14  C   UNL     1      27.369  31.994  15.192  0.00  0.00    +0.248 C 
ATOM     30  O   UNL     1      26.784  31.728  16.231  0.00  0.00    -0.270 OA
ATOM     31  H   UNL     1      27.691  33.257  13.610  0.00  0.00    +0.155 HD
BRANCH  14  15
ATOM     15  C   UNL     1      28.558  31.153  14.857  0.00  0.00    +0.037 A 
ATOM     16  C   UNL     1      28.808  29.883  15.544  0.00  0.00    +0.013 A 
ATOM     17  C   UNL     1      29.972  29.099  15.214  0.00  0.00    +0.005 A 
ATOM     18  C   UNL     1      30.894  29.583  14.189  0.00  0.00    -0.033 A 
ATOM     28  C   UNL     1      30.619  30.844  13.520  0.00  0.00    +0.005 A 
ATOM     29  C   UNL     1      29.480  31.615  13.842  0.00  0.00    +0.013 A 
BRANCH  18  19
ATOM     19  C   UNL     1      32.172  28.823  13.787  0.00  0.00    +0.119 C 
BRANCH  19  20
ATOM     20  N   UNL     1      33.017  28.275  14.890  0.00  0.00    -0.302 NA
ATOM     21  C   UNL     1      33.583  29.383  15.784  0.00  0.00    +0.066 C 
ATOM     22  C   UNL     1      34.446  28.791  16.946  0.00  0.00    -0.064 C 
ATOM     23  N   UNL     1      35.573  27.941  16.358  0.00  0.00    +0.379 N 
ATOM     24  C   UNL     1      36.421  27.430  17.445  0.00  0.00    -0.096 C 
ATOM     25  H   UNL     1      36.202  28.606  15.722  0.00  0.00    -0.082 HD
ATOM     26  C   UNL     1      35.020  26.839  15.465  0.00  0.00    -0.064 C 
ATOM     27  C   UNL     1      34.140  27.436  14.332  0.00  0.00    +0.066 C 
ENDBRANCH  19  20
ENDBRANCH  18  19
ENDBRANCH  14  15
ENDBRANCH  12  13
TORSDOF 6
ENDMDL
MODEL 3
REMARK VINA RESULT:      -6.3      2.209     12.721
REMARK  Name = C:\Users\Docking\Desktop\test protocol\1iep_ligandH.pdb
REMARK  8 active torsions:
REMARK  status: ('A' for Active; 'I' for Inactive)
REMARK    1  A    between atoms: _5  and  _11
REMARK    2  A    between atoms: _19  and  _21
REMARK    3  A    between atoms: _22  and  _66
REMARK    4  A    between atoms: _27  and  _30
REMARK    5  A    between atoms: _32  and  _33
REMARK    6  A    between atoms: _38  and  _43
REMARK    7  A    between atoms: _43  and  _46
REMARK    8  A    between atoms: _53  and  _55
REMARK                            x       y       z     vdW  Elec       q    Type
REMARK                         _______ _______ _______ _____ _____    ______ ____
ROOT
ATOM     10  C   UNL     1      26.606  34.281  14.007  0.00  0.00    +0.038 A 
ATOM     11  C   UNL     1      25.330  33.745  14.316  0.00  0.00    +0.047 A 
ATOM     12  C   UNL     1      24.223  34.609  14.694  0.00  0.00    +0.035 A 
ATOM     32  C   UNL     1      24.450  36.015  14.745  0.00  0.00    +0.024 A 
ATOM     33  C   UNL     1      25.741  36.577  14.435  0.00  0.00    +0.007 A 
ATOM     34  C   UNL     1      26.838  35.730  14.064  0.00  0.00    -0.029 A 
ATOM     35  C   UNL     1      28.202  36.387  13.748  0.00  0.00    +0.045 C 
ENDROOT
BRANCH  10   9
ATOM      4  C   UNL     1      29.911  30.971  15.081  0.00  0.00    +0.077 A 
ATOM      5  C   UNL     1      29.581  31.009  16.477  0.00  0.00    +0.048 A 
ATOM      6  C   UNL     1      28.560  31.899  16.878  0.00  0.00    +0.116 A 
ATOM      7  N   UNL     1      27.923  32.687  15.944  0.00  0.00    -0.223 NA
ATOM      8  C   UNL     1      28.267  32.628  14.607  0.00  0.00    +0.220 A 
ATOM      9  N   UNL     1      27.634  33.406  13.649  0.00  0.00    -0.283 N 
ATOM     36  H   UNL     1      27.922  33.338  12.674  0.00  0.00    +0.155 HD
ATOM     37  N   UNL     1      29.240  31.787  14.198  0.00  0.00    -0.214 NA
BRANCH   4   3
ATOM      1  C   UNL     1      32.391  29.250  12.592  0.00  0.00    +0.020 A 
ATOM      2  C   UNL     1      31.366  30.133  13.101  0.00  0.00    +0.013 A 
ATOM      3  C   UNL     1      30.966  30.080  14.502  0.00  0.00    +0.019 A 
ATOM     38  C   UNL     1      31.628  29.116  15.368  0.00  0.00    +0.120 A 
ATOM     39  N   UNL     1      32.610  28.278  14.849  0.00  0.00    -0.263 NA
ATOM     40  C   UNL     1      33.002  28.318  13.503  0.00  0.00    +0.111 A 
ENDBRANCH   4   3
ENDBRANCH  10   9
BRANCH  12  13
ATOM     13  N   UNL     1      22.907  34.122  15.027  0.00  0.00    -0.281 N 
ATOM     14  C   UNL     1      22.069  33.335  14.253  0.00  0.00    +0.248 C 
ATOM     30  O   UNL     1      22.239  33.108  13.064  0.00  0.00    -0.270 OA
ATOM     31  H   UNL     1      22.550  34.388  15.944  0.00  0.00    +0.155 HD
BRANCH  14  15
ATOM     15  C   UNL     1      20.862  32.725  14.887  0.00  0.00    +0.037 A 
ATOM     16  C   UNL     1      20.359  33.201  16.179  0.00  0.00    +0.013 A 
ATOM     17  C   UNL     1      19.202  32.583  16.777  0.00  0.00    +0.005 A 
ATOM     18  C   UNL     1      18.539  31.483  16.082  0.00  0.00    -0.033 A 
ATOM     28  C   UNL     1      19.055  31.034  14.800  0.00  0.00    +0.005 A 
ATOM     29  C   UNL     1      20.190  31.636  14.211  0.00  0.00    +0.013 A 
BRANCH  18  19
ATOM     19  C   UNL     1      17.311  30.751  16.656  0.00  0.00    +0.119 C 
BRANCH  19  20
ATOM     20  N   UNL     1      15.974  31.376  16.429  0.00  0.00    -0.302 NA
ATOM     21  C   UNL     1      14.952  30.948  17.486  0.00  0.00    +0.066 C 
ATOM     22  C   UNL     1      13.566  31.629  17.246  0.00  0.00    -0.064 C 
ATOM     23  N   UNL     1      13.068  31.286  15.841  0.00  0.00    +0.379 N 
ATOM     24  C   UNL     1      11.738  31.877  15.634  0.00  0.00    -0.096 C 
ATOM     25  H   UNL     1      12.959  30.178  15.783  0.00  0.00    -0.082 HD
ATOM     26  C   UNL     1      14.079  31.706  14.784  0.00  0.00    -0.064 C 
ATOM     27  C   UNL     1      15.461  31.046  15.049  0.00  0.00    +0.066 C 
ENDBRANCH  19  20
ENDBRANCH  18  19
ENDBRANCH  14  15
ENDBRANCH  12  13
TORSDOF 6
ENDMDL
MODEL 4
REMARK VINA RESULT:      -6.3      2.429     13.297
REMARK  Name = C:\Users\Docking\Desktop\test protocol\1iep_ligandH.pdb
REMARK  8 active torsions:
REMARK  status: ('A' for Active; 'I' for Inactive)
REMARK    1  A    between atoms: _5  and  _11
REMARK    2  A    between atoms: _19  and  _21
REMARK    3  A    between atoms: _22  and  _66
REMARK    4  A    between atoms: _27  and  _30
REMARK    5  A    between atoms: _32  and  _33
REMARK    6  A    between atoms: _38  and  _43
REMARK    7  A    between atoms: _43  and  _46
REMARK    8  A    between atoms: _53  and  _55
REMARK                            x       y       z     vdW  Elec       q    Type
REMARK                         _______ _______ _______ _____ _____    ______ ____
ROOT
ATOM     10  C   UNL     1      24.802  33.863  14.463  0.00  0.00    +0.038 A 
ATOM     11  C   UNL     1      23.652  33.033  14.464  0.00  0.00    +0.047 A 
ATOM     12  C   UNL     1      22.324  33.588  14.679  0.00  0.00    +0.035 A 
ATOM     32  C   UNL     1      22.205  34.993  14.886  0.00  0.00    +0.024 A 
ATOM     33  C   UNL     1      23.363  35.851  14.888  0.00  0.00    +0.007 A 
ATOM     34  C   UNL     1      24.676  35.309  14.680  0.00  0.00    -0.029 A 
ATOM     35  C   UNL     1      25.883  36.275  14.699  0.00  0.00    +0.045 C 
ENDROOT
BRANCH  10   9
ATOM      4  C   UNL     1      28.291  30.789  15.653  0.00  0.00    +0.077 A 
ATOM      5  C   UNL     1      27.574  30.330  16.807  0.00  0.00    +0.048 A 
ATOM      6  C   UNL     1      26.314  30.915  17.064  0.00  0.00    +0.116 A 
ATOM      7  N   UNL     1      25.818  31.886  16.221  0.00  0.00    -0.223 NA
ATOM      8  C   UNL     1      26.536  32.307  15.117  0.00  0.00    +0.220 A 
ATOM      9  N   UNL     1      26.052  33.277  14.252  0.00  0.00    -0.283 N 
ATOM     36  H   UNL     1      26.616  33.566  13.453  0.00  0.00    +0.155 HD
ATOM     37  N   UNL     1      27.742  31.765  14.851  0.00  0.00    -0.214 NA
BRANCH   4   3
ATOM      1  C   UNL     1      31.834  29.134  15.739  0.00  0.00    +0.020 A 
ATOM      2  C   UNL     1      30.549  29.624  16.182  0.00  0.00    +0.013 A 
ATOM      3  C   UNL     1      29.633  30.264  15.247  0.00  0.00    +0.019 A 
ATOM     38  C   UNL     1      30.051  30.394  13.859  0.00  0.00    +0.120 A 
ATOM     39  N   UNL     1      31.295  29.914  13.461  0.00  0.00    -0.263 NA
ATOM     40  C   UNL     1      32.185  29.297  14.353  0.00  0.00    +0.111 A 
ENDBRANCH   4   3
ENDBRANCH  10   9
BRANCH  12  13
ATOM     13  N   UNL     1      21.121  32.794  14.699  0.00  0.00    -0.281 N 
ATOM     14  C   UNL     1      20.408  32.356  15.803  0.00  0.00    +0.248 C 
ATOM     30  O   UNL     1      20.819  32.401  16.954  0.00  0.00    -0.270 OA
ATOM     31  H   UNL     1      20.749  32.521  13.789  0.00  0.00    +0.155 HD
BRANCH  14  15
ATOM     15  C   UNL     1      19.049  31.769  15.599  0.00  0.00    +0.037 A 
ATOM     16  C   UNL     1      18.864  30.518  14.860  0.00  0.00    +0.013 A 
ATOM     17  C   UNL     1      17.540  29.983  14.662  0.00  0.00    +0.005 A 
ATOM     18  C   UNL     1      16.390  30.700  15.208  0.00  0.00    -0.033 A 
ATOM     28  C   UNL     1      16.602  31.936  15.942  0.00  0.00    +0.005 A 
ATOM     29  C   UNL     1      17.898  32.464  16.136  0.00  0.00    +0.013 A 
BRANCH  18  19
ATOM     19  C   UNL     1      14.939  30.214  15.027  0.00  0.00    +0.119 C 
BRANCH  19  20
ATOM     20  N   UNL     1      13.870  30.973  15.741  0.00  0.00    -0.302 NA
ATOM     21  C   UNL     1      12.698  30.074  16.144  0.00  0.00    +0.066 C 
ATOM     22  C   UNL     1      11.598  30.880  16.909  0.00  0.00    -0.064 C 
ATOM     23  N   UNL     1      11.116  32.038  16.033  0.00  0.00    +0.379 N 
ATOM     24  C   UNL     1      10.042  32.763  16.726  0.00  0.00    -0.096 C 
ATOM     25  H   UNL     1      10.684  31.600  15.103  0.00  0.00    -0.082 HD
ATOM     26  C   UNL     1      12.276  32.935  15.625  0.00  0.00    -0.064 C 
ATOM     27  C   UNL     1      13.376  32.119  14.891  0.00  0.00    +0.066 C 
ENDBRANCH  19  20
ENDBRANCH  18  19
ENDBRANCH  14  15
ENDBRANCH  12  13
TORSDOF 6
ENDMDL
MODEL 5
REMARK VINA RESULT:      -6.2      3.987      8.077
REMARK  Name = C:\Users\Docking\Desktop\test protocol\1iep_ligandH.pdb
REMARK  8 active torsions:
REMARK  status: ('A' for Active; 'I' for Inactive)
REMARK    1  A    between atoms: _5  and  _11
REMARK    2  A    between atoms: _19  and  _21
REMARK    3  A    between atoms: _22  and  _66
REMARK    4  A    between atoms: _27  and  _30
REMARK    5  A    between atoms: _32  and  _33
REMARK    6  A    between atoms: _38  and  _43
REMARK    7  A    between atoms: _43  and  _46
REMARK    8  A    between atoms: _53  and  _55
REMARK                            x       y       z     vdW  Elec       q    Type
REMARK                         _______ _______ _______ _____ _____    ______ ____
ROOT
ATOM     10  C   UNL     1      17.229  29.500  14.965  0.00  0.00    +0.038 A 
ATOM     11  C   UNL     1      18.374  30.218  14.534  0.00  0.00    +0.047 A 
ATOM     12  C   UNL     1      18.993  31.226  15.381  0.00  0.00    +0.035 A 
ATOM     32  C   UNL     1      18.420  31.476  16.662  0.00  0.00    +0.024 A 
ATOM     33  C   UNL     1      17.256  30.757  17.115  0.00  0.00    +0.007 A 
ATOM     34  C   UNL     1      16.640  29.763  16.283  0.00  0.00    -0.029 A 
ATOM     35  C   UNL     1      15.389  29.027  16.818  0.00  0.00    +0.045 C 
ENDROOT
BRANCH  10   9
ATOM      4  C   UNL     1      17.028  25.063  13.145  0.00  0.00    +0.077 A 
ATOM      5  C   UNL     1      18.136  24.622  13.943  0.00  0.00    +0.048 A 
ATOM      6  C   UNL     1      18.735  25.570  14.803  0.00  0.00    +0.116 A 
ATOM      7  N   UNL     1      18.252  26.860  14.854  0.00  0.00    -0.223 NA
ATOM      8  C   UNL     1      17.183  27.253  14.070  0.00  0.00    +0.220 A 
ATOM      9  N   UNL     1      16.676  28.543  14.111  0.00  0.00    -0.283 N 
ATOM     36  H   UNL     1      15.891  28.795  13.512  0.00  0.00    +0.155 HD
ATOM     37  N   UNL     1      16.595  26.367  13.240  0.00  0.00    -0.214 NA
BRANCH   4   3
ATOM      1  C   UNL     1      14.172  23.310  11.128  0.00  0.00    +0.020 A 
ATOM      2  C   UNL     1      14.837  24.184  12.067  0.00  0.00    +0.013 A 
ATOM      3  C   UNL     1      16.289  24.178  12.190  0.00  0.00    +0.019 A 
ATOM     38  C   UNL     1      17.045  23.269  11.343  0.00  0.00    +0.120 A 
ATOM     39  N   UNL     1      16.378  22.437  10.449  0.00  0.00    -0.263 NA
ATOM     40  C   UNL     1      14.981  22.433  10.323  0.00  0.00    +0.111 A 
ENDBRANCH   4   3
ENDBRANCH  10   9
BRANCH  12  13
ATOM     13  N   UNL     1      20.152  31.992  14.994  0.00  0.00    -0.281 N 
ATOM     14  C   UNL     1      20.401  33.335  15.224  0.00  0.00    +0.248 C 
ATOM     30  O   UNL     1      19.564  34.136  15.613  0.00  0.00    -0.270 OA
ATOM     31  H   UNL     1      20.877  31.482  14.489  0.00  0.00    +0.155 HD
BRANCH  14  15
ATOM     15  C   UNL     1      21.774  33.868  14.971  0.00  0.00    +0.037 A 
ATOM     16  C   UNL     1      22.168  35.202  15.433  0.00  0.00    +0.013 A 
ATOM     17  C   UNL     1      23.493  35.699  15.161  0.00  0.00    +0.005 A 
ATOM     18  C   UNL     1      24.435  34.860  14.424  0.00  0.00    -0.033 A 
ATOM     28  C   UNL     1      24.020  33.540  13.982  0.00  0.00    +0.005 A 
ATOM     29  C   UNL     1      22.721  33.049  14.246  0.00  0.00    +0.013 A 
BRANCH  18  19
ATOM     19  C   UNL     1      25.863  35.318  14.071  0.00  0.00    +0.119 C 
BRANCH  19  20
ATOM     20  N   UNL     1      26.846  34.260  13.691  0.00  0.00    -0.302 NA
ATOM     21  C   UNL     1      27.536  33.650  14.914  0.00  0.00    +0.066 C 
ATOM     22  C   UNL     1      28.544  32.529  14.499  0.00  0.00    -0.064 C 
ATOM     23  N   UNL     1      29.574  33.108  13.528  0.00  0.00    +0.379 N 
ATOM     24  C   UNL     1      30.558  32.071  13.181  0.00  0.00    -0.096 C 
ATOM     25  H   UNL     1      30.117  33.925  14.059  0.00  0.00    -0.082 HD
ATOM     26  C   UNL     1      28.897  33.719  12.310  0.00  0.00    -0.064 C 
ATOM     27  C   UNL     1      27.876  34.811  12.735  0.00  0.00    +0.066 C 
ENDBRANCH  19  20
ENDBRANCH  18  19
ENDBRANCH  14  15
ENDBRANCH  12  13
TORSDOF 6
ENDMDL
