MODEL 1
REMARK VINA RESULT:      -8.0      0.000      0.000
REMARK  Name = C:\Users\Docking\Desktop\test protocol\1iep_ligandH.pdb
REMARK  8 active torsions:
REMARK  status: ('A' for Active; 'I' for Inactive)
REMARK    1  A    between atoms: _5  and  _11
REMARK    2  A    between atoms: _19  and  _21
REMARK    3  A    between atoms: _22  and  _66
REMARK    4  A    between atoms: _27  and  _30
REMARK    5  A    between atoms: _32  and  _33
REMARK    6  A    between atoms: _38  and  _43
REMARK    7  A    between atoms: _43  and  _46
REMARK    8  A    between atoms: _53  and  _55
REMARK                            x       y       z     vdW  Elec       q    Type
REMARK                         _______ _______ _______ _____ _____    ______ ____
ROOT
ATOM     10  C   UNL     1      -5.073  12.935  15.872  0.00  0.00    +0.038 A 
ATOM     11  C   UNL     1      -4.864  13.112  14.481  0.00  0.00    +0.047 A 
ATOM     12  C   UNL     1      -5.982  13.294  13.569  0.00  0.00    +0.035 A 
ATOM     32  C   UNL     1      -7.301  13.292  14.108  0.00  0.00    +0.024 A 
ATOM     33  C   UNL     1      -7.533  13.112  15.520  0.00  0.00    +0.007 A 
ATOM     34  C   UNL     1      -6.433  12.930  16.424  0.00  0.00    -0.029 A 
ATOM     35  C   UNL     1      -6.741  12.735  17.927  0.00  0.00    +0.045 C 
ENDROOT
BRANCH  10   9
ATOM      4  C   UNL     1      -1.878  10.175  18.155  0.00  0.00    +0.077 A 
ATOM      5  C   UNL     1      -2.489   8.968  17.674  0.00  0.00    +0.048 A 
ATOM      6  C   UNL     1      -3.627   9.102  16.849  0.00  0.00    +0.116 A 
ATOM      7  N   UNL     1      -4.110  10.353  16.533  0.00  0.00    -0.223 NA
ATOM      8  C   UNL     1      -3.499  11.496  17.014  0.00  0.00    +0.220 A 
ATOM      9  N   UNL     1      -3.963  12.765  16.702  0.00  0.00    -0.283 N 
ATOM     36  H   UNL     1      -3.488  13.583  17.083  0.00  0.00    +0.155 HD
ATOM     37  N   UNL     1      -2.411  11.395  17.806  0.00  0.00    -0.214 NA
BRANCH   4   3
ATOM      1  C   UNL     1       1.721   9.584  19.568  0.00  0.00    +0.020 A 
ATOM      2  C   UNL     1       0.580   9.530  18.683  0.00  0.00    +0.013 A 
ATOM      3  C   UNL     1      -0.667  10.198  19.034  0.00  0.00    +0.019 A 
ATOM     38  C   UNL     1      -0.727  10.918  20.297  0.00  0.00    +0.120 A 
ATOM     39  N   UNL     1       0.388  10.951  21.130  0.00  0.00    -0.263 NA
ATOM     40  C   UNL     1       1.593  10.311  20.803  0.00  0.00    +0.111 A 
ENDBRANCH   4   3
ENDBRANCH  10   9
BRANCH  12  13
ATOM     13  N   UNL     1      -5.831  13.470  12.145  0.00  0.00    -0.281 N 
ATOM     14  C   UNL     1      -6.396  12.717  11.129  0.00  0.00    +0.248 C 
ATOM     30  O   UNL     1      -6.949  11.640  11.293  0.00  0.00    -0.270 OA
ATOM     31  H   UNL     1      -5.236  14.245  11.852  0.00  0.00    +0.155 HD
BRANCH  14  15
ATOM     15  C   UNL     1      -6.324  13.227   9.726  0.00  0.00    +0.037 A 
ATOM     16  C   UNL     1      -5.313  14.210   9.326  0.00  0.00    +0.013 A 
ATOM     17  C   UNL     1      -5.276  14.698   7.971  0.00  0.00    +0.005 A 
ATOM     18  C   UNL     1      -6.253  14.203   7.004  0.00  0.00    -0.033 A 
ATOM     28  C   UNL     1      -7.241  13.225   7.426  0.00  0.00    +0.005 A 
ATOM     29  C   UNL     1      -7.282  12.745   8.755  0.00  0.00    +0.013 A 
BRANCH  18  19
ATOM     19  C   UNL     1      -6.301  14.685   5.542  0.00  0.00    +0.119 C 
BRANCH  19  20
ATOM     20  N   UNL     1      -5.063  15.309   4.987  0.00  0.00    -0.302 NA
ATOM     21  C   UNL     1      -5.378  16.340   3.899  0.00  0.00    +0.066 C 
ATOM     22  C   UNL     1      -4.073  16.999   3.345  0.00  0.00    -0.064 C 
ATOM     23  N   UNL     1      -3.143  15.911   2.807  0.00  0.00    +0.379 N 
ATOM     24  C   UNL     1      -1.941  16.532   2.233  0.00  0.00    -0.096 C 
ATOM     25  H   UNL     1      -3.679  15.385   1.982  0.00  0.00    -0.082 HD
ATOM     26  C   UNL     1      -2.827  14.880   3.882  0.00  0.00    -0.064 C 
ATOM     27  C   UNL     1      -4.132  14.252   4.446  0.00  0.00    +0.066 C 
ENDBRANCH  19  20
ENDBRANCH  18  19
ENDBRANCH  14  15
ENDBRANCH  12  13
TORSDOF 6
ENDMDL
MODEL 2
REMARK VINA RESULT:      -7.9      7.182     10.180
REMARK  Name = C:\Users\Docking\Desktop\test protocol\1iep_ligandH.pdb
REMARK  8 active torsions:
REMARK  status: ('A' for Active; 'I' for Inactive)
REMARK    1  A    between atoms: _5  and  _11
REMARK    2  A    between atoms: _19  and  _21
REMARK    3  A    between atoms: _22  and  _66
REMARK    4  A    between atoms: _27  and  _30
REMARK    5  A    between atoms: _32  and  _33
REMARK    6  A    between atoms: _38  and  _43
REMARK    7  A    between atoms: _43  and  _46
REMARK    8  A    between atoms: _53  and  _55
REMARK                            x       y       z     vdW  Elec       q    Type
REMARK                         _______ _______ _______ _____ _____    ______ ____
ROOT
ATOM     10  C   UNL     1      -3.392  17.501  22.674  0.00  0.00    +0.038 A 
ATOM     11  C   UNL     1      -3.428  16.805  21.439  0.00  0.00    +0.047 A 
ATOM     12  C   UNL     1      -4.688  16.369  20.857  0.00  0.00    +0.035 A 
ATOM     32  C   UNL     1      -5.893  16.663  21.559  0.00  0.00    +0.024 A 
ATOM     33  C   UNL     1      -5.875  17.368  22.816  0.00  0.00    +0.007 A 
ATOM     34  C   UNL     1      -4.635  17.798  23.396  0.00  0.00    -0.029 A 
ATOM     35  C   UNL     1      -4.674  18.546  24.749  0.00  0.00    +0.045 C 
ENDROOT
BRANCH  10   9
ATOM      4  C   UNL     1       0.302  20.555  22.935  0.00  0.00    +0.077 A 
ATOM      5  C   UNL     1      -0.270  21.424  21.947  0.00  0.00    +0.048 A 
ATOM      6  C   UNL     1      -1.512  21.045  21.391  0.00  0.00    +0.116 A 
ATOM      7  N   UNL     1      -2.128  19.882  21.800  0.00  0.00    -0.223 NA
ATOM      8  C   UNL     1      -1.549  19.066  22.754  0.00  0.00    +0.220 A 
ATOM      9  N   UNL     1      -2.154  17.896  23.186  0.00  0.00    -0.283 N 
ATOM     36  H   UNL     1      -1.691  17.317  23.887  0.00  0.00    +0.155 HD
ATOM     37  N   UNL     1      -0.362  19.404  23.300  0.00  0.00    -0.214 NA
BRANCH   4   3
ATOM      1  C   UNL     1       3.119  22.196  25.096  0.00  0.00    +0.020 A 
ATOM      2  C   UNL     1       1.839  21.987  24.460  0.00  0.00    +0.013 A 
ATOM      3  C   UNL     1       1.608  20.820  23.618  0.00  0.00    +0.019 A 
ATOM     38  C   UNL     1       2.701  19.876  23.439  0.00  0.00    +0.120 A 
ATOM     39  N   UNL     1       3.923  20.105  24.064  0.00  0.00    -0.263 NA
ATOM     40  C   UNL     1       4.158  21.225  24.875  0.00  0.00    +0.111 A 
ENDBRANCH   4   3
ENDBRANCH  10   9
BRANCH  12  13
ATOM     13  N   UNL     1      -4.786  15.652  19.610  0.00  0.00    -0.281 N 
ATOM     14  C   UNL     1      -4.442  14.334  19.356  0.00  0.00    +0.248 C 
ATOM     30  O   UNL     1      -3.793  13.631  20.117  0.00  0.00    -0.270 OA
ATOM     31  H   UNL     1      -5.154  16.179  18.818  0.00  0.00    +0.155 HD
BRANCH  14  15
ATOM     15  C   UNL     1      -4.866  13.713  18.065  0.00  0.00    +0.037 A 
ATOM     16  C   UNL     1      -6.180  13.997  17.481  0.00  0.00    +0.013 A 
ATOM     17  C   UNL     1      -6.571  13.370  16.243  0.00  0.00    +0.005 A 
ATOM     18  C   UNL     1      -5.646  12.454  15.580  0.00  0.00    -0.033 A 
ATOM     28  C   UNL     1      -4.347  12.194  16.179  0.00  0.00    +0.005 A 
ATOM     29  C   UNL     1      -3.961  12.805  17.393  0.00  0.00    +0.013 A 
BRANCH  18  19
ATOM     19  C   UNL     1      -5.988  11.725  14.267  0.00  0.00    +0.119 C 
BRANCH  19  20
ATOM     20  N   UNL     1      -7.242  12.132  13.566  0.00  0.00    -0.302 NA
ATOM     21  C   UNL     1      -8.297  11.022  13.583  0.00  0.00    +0.066 C 
ATOM     22  C   UNL     1      -9.610  11.473  12.864  0.00  0.00    -0.064 C 
ATOM     23  N   UNL     1      -9.285  11.890  11.428  0.00  0.00    +0.379 N 
ATOM     24  C   UNL     1     -10.526  12.259  10.732  0.00  0.00    -0.096 C 
ATOM     25  H   UNL     1      -8.856  11.002  10.908  0.00  0.00    -0.082 HD
ATOM     26  C   UNL     1      -8.235  12.991  11.402  0.00  0.00    -0.064 C 
ATOM     27  C   UNL     1      -6.945  12.544  12.145  0.00  0.00    +0.066 C 
ENDBRANCH  19  20
ENDBRANCH  18  19
ENDBRANCH  14  15
ENDBRANCH  12  13
TORSDOF 6
ENDMDL
MODEL 3
REMARK VINA RESULT:      -7.7      3.274     12.592
REMARK  Name = C:\Users\Docking\Desktop\test protocol\1iep_ligandH.pdb
REMARK  8 active torsions:
REMARK  status: ('A' for Active; 'I' for Inactive)
REMARK    1  A    between atoms: _5  and  _11
REMARK    2  A    between atoms: _19  and  _21
REMARK    3  A    between atoms: _22  and  _66
REMARK    4  A    between atoms: _27  and  _30
REMARK    5  A    between atoms: _32  and  _33
REMARK    6  A    between atoms: _38  and  _43
REMARK    7  A    between atoms: _43  and  _46
REMARK    8  A    between atoms: _53  and  _55
REMARK                            x       y       z     vdW  Elec       q    Type
REMARK                         _______ _______ _______ _____ _____    ______ ____
ROOT
ATOM     10  C   UNL     1      -6.498  12.664   9.155  0.00  0.00    +0.038 A 
ATOM     11  C   UNL     1      -6.089  12.866  10.498  0.00  0.00    +0.047 A 
ATOM     12  C   UNL     1      -7.059  12.920  11.580  0.00  0.00    +0.035 A 
ATOM     32  C   UNL     1      -8.439  12.761  11.259  0.00  0.00    +0.024 A 
ATOM     33  C   UNL     1      -8.872  12.556   9.900  0.00  0.00    +0.007 A 
ATOM     34  C   UNL     1      -7.920  12.505   8.828  0.00  0.00    -0.029 A 
ATOM     35  C   UNL     1      -8.442  12.289   7.388  0.00  0.00    +0.045 C 
ENDROOT
BRANCH  10   9
ATOM      4  C   UNL     1      -3.912  14.721   5.674  0.00  0.00    +0.077 A 
ATOM      5  C   UNL     1      -4.576  15.981   5.844  0.00  0.00    +0.048 A 
ATOM      6  C   UNL     1      -5.583  16.056   6.833  0.00  0.00    +0.116 A 
ATOM      7  N   UNL     1      -5.893  14.947   7.590  0.00  0.00    -0.223 NA
ATOM      8  C   UNL     1      -5.234  13.747   7.400  0.00  0.00    +0.220 A 
ATOM      9  N   UNL     1      -5.524  12.621   8.155  0.00  0.00    -0.283 N 
ATOM     36  H   UNL     1      -5.020  11.752   7.979  0.00  0.00    +0.155 HD
ATOM     37  N   UNL     1      -4.270  13.649   6.461  0.00  0.00    -0.214 NA
BRANCH   4   3
ATOM      1  C   UNL     1      -1.736  14.848   2.426  0.00  0.00    +0.020 A 
ATOM      2  C   UNL     1      -2.810  15.110   3.356  0.00  0.00    +0.013 A 
ATOM      3  C   UNL     1      -2.824  14.485   4.673  0.00  0.00    +0.019 A 
ATOM     38  C   UNL     1      -1.727  13.594   5.020  0.00  0.00    +0.120 A 
ATOM     39  N   UNL     1      -0.707  13.360   4.103  0.00  0.00    -0.263 NA
ATOM     40  C   UNL     1      -0.684  13.954   2.833  0.00  0.00    +0.111 A 
ENDBRANCH   4   3
ENDBRANCH  10   9
BRANCH  12  13
ATOM     13  N   UNL     1      -6.703  13.131  12.962  0.00  0.00    -0.281 N 
ATOM     14  C   UNL     1      -6.389  12.176  13.915  0.00  0.00    +0.248 C 
ATOM     30  O   UNL     1      -6.575  10.976  13.779  0.00  0.00    -0.270 OA
ATOM     31  H   UNL     1      -6.680  14.101  13.275  0.00  0.00    +0.155 HD
BRANCH  14  15
ATOM     15  C   UNL     1      -5.796  12.620  15.213  0.00  0.00    +0.037 A 
ATOM     16  C   UNL     1      -4.551  12.036  15.719  0.00  0.00    +0.013 A 
ATOM     17  C   UNL     1      -4.009  12.471  16.982  0.00  0.00    +0.005 A 
ATOM     18  C   UNL     1      -4.713  13.497  17.748  0.00  0.00    -0.033 A 
ATOM     28  C   UNL     1      -5.943  14.063  17.220  0.00  0.00    +0.005 A 
ATOM     29  C   UNL     1      -6.477  13.639  15.983  0.00  0.00    +0.013 A 
BRANCH  18  19
ATOM     19  C   UNL     1      -4.219  14.006  19.116  0.00  0.00    +0.119 C 
BRANCH  19  20
ATOM     20  N   UNL     1      -5.107  14.951  19.855  0.00  0.00    -0.302 NA
ATOM     21  C   UNL     1      -4.320  16.098  20.496  0.00  0.00    +0.066 C 
ATOM     22  C   UNL     1      -5.268  17.089  21.246  0.00  0.00    -0.064 C 
ATOM     23  N   UNL     1      -6.068  16.325  22.302  0.00  0.00    +0.379 N 
ATOM     24  C   UNL     1      -6.917  17.265  23.049  0.00  0.00    -0.096 C 
ATOM     25  H   UNL     1      -5.340  15.882  23.022  0.00  0.00    -0.082 HD
ATOM     26  C   UNL     1      -6.851  15.182  21.674  0.00  0.00    -0.064 C 
ATOM     27  C   UNL     1      -5.904  14.218  20.907  0.00  0.00    +0.066 C 
ENDBRANCH  19  20
ENDBRANCH  18  19
ENDBRANCH  14  15
ENDBRANCH  12  13
TORSDOF 6
ENDMDL
MODEL 4
REMARK VINA RESULT:      -7.6      3.217     12.476
REMARK  Name = C:\Users\Docking\Desktop\test protocol\1iep_ligandH.pdb
REMARK  8 active torsions:
REMARK  status: ('A' for Active; 'I' for Inactive)
REMARK    1  A    between atoms: _5  and  _11
REMARK    2  A    between atoms: _19  and  _21
REMARK    3  A    between atoms: _22  and  _66
REMARK    4  A    between atoms: _27  and  _30
REMARK    5  A    between atoms: _32  and  _33
REMARK    6  A    between atoms: _38  and  _43
REMARK    7  A    between atoms: _43  and  _46
REMARK    8  A    between atoms: _53  and  _55
REMARK                            x       y       z     vdW  Elec       q    Type
REMARK                         _______ _______ _______ _____ _____    ______ ____
ROOT
ATOM     10  C   UNL     1      -6.417  13.625   8.167  0.00  0.00    +0.038 A 
ATOM     11  C   UNL     1      -6.036  13.717   9.530  0.00  0.00    +0.047 A 
ATOM     12  C   UNL     1      -6.882  13.181  10.585  0.00  0.00    +0.035 A 
ATOM     32  C   UNL     1      -8.108  12.556  10.216  0.00  0.00    +0.024 A 
ATOM     33  C   UNL     1      -8.511  12.455   8.835  0.00  0.00    +0.007 A 
ATOM     34  C   UNL     1      -7.682  12.984   7.790  0.00  0.00    -0.029 A 
ATOM     35  C   UNL     1      -8.168  12.854   6.328  0.00  0.00    +0.045 C 
ENDROOT
BRANCH  10   9
ATOM      4  C   UNL     1      -2.663  13.302   5.193  0.00  0.00    +0.077 A 
ATOM      5  C   UNL     1      -2.354  11.972   5.633  0.00  0.00    +0.048 A 
ATOM      6  C   UNL     1      -3.181  11.410   6.631  0.00  0.00    +0.116 A 
ATOM      7  N   UNL     1      -4.236  12.133   7.144  0.00  0.00    -0.223 NA
ATOM      8  C   UNL     1      -4.506  13.414   6.699  0.00  0.00    +0.220 A 
ATOM      9  N   UNL     1      -5.566  14.157   7.195  0.00  0.00    -0.283 N 
ATOM     36  H   UNL     1      -5.727  15.101   6.846  0.00  0.00    +0.155 HD
ATOM     37  N   UNL     1      -3.730  13.974   5.747  0.00  0.00    -0.214 NA
BRANCH   4   3
ATOM      1  C   UNL     1      -1.616  15.851   2.417  0.00  0.00    +0.020 A 
ATOM      2  C   UNL     1      -2.411  15.182   3.421  0.00  0.00    +0.013 A 
ATOM      3  C   UNL     1      -1.884  14.031   4.143  0.00  0.00    +0.019 A 
ATOM     38  C   UNL     1      -0.538  13.578   3.822  0.00  0.00    +0.120 A 
ATOM     39  N   UNL     1       0.203  14.241   2.849  0.00  0.00    -0.263 NA
ATOM     40  C   UNL     1      -0.295  15.349   2.146  0.00  0.00    +0.111 A 
ENDBRANCH   4   3
ENDBRANCH  10   9
BRANCH  12  13
ATOM     13  N   UNL     1      -6.551  13.252  11.987  0.00  0.00    -0.281 N 
ATOM     14  C   UNL     1      -6.417  12.205  12.884  0.00  0.00    +0.248 C 
ATOM     30  O   UNL     1      -6.773  11.057  12.665  0.00  0.00    -0.270 OA
ATOM     31  H   UNL     1      -6.397  14.188  12.363  0.00  0.00    +0.155 HD
BRANCH  14  15
ATOM     15  C   UNL     1      -5.815  12.476  14.225  0.00  0.00    +0.037 A 
ATOM     16  C   UNL     1      -4.929  11.504  14.870  0.00  0.00    +0.013 A 
ATOM     17  C   UNL     1      -4.374  11.783  16.171  0.00  0.00    +0.005 A 
ATOM     18  C   UNL     1      -4.703  13.042  16.835  0.00  0.00    -0.033 A 
ATOM     28  C   UNL     1      -5.580  13.991  16.170  0.00  0.00    +0.005 A 
ATOM     29  C   UNL     1      -6.127  13.720  14.895  0.00  0.00    +0.013 A 
BRANCH  18  19
ATOM     19  C   UNL     1      -4.174  13.413  18.233  0.00  0.00    +0.119 C 
BRANCH  19  20
ATOM     20  N   UNL     1      -5.016  14.326  19.063  0.00  0.00    -0.302 NA
ATOM     21  C   UNL     1      -4.167  15.271  19.918  0.00  0.00    +0.066 C 
ATOM     22  C   UNL     1      -5.064  16.234  20.762  0.00  0.00    -0.064 C 
ATOM     23  N   UNL     1      -6.007  15.410  21.640  0.00  0.00    +0.379 N 
ATOM     24  C   UNL     1      -6.811  16.311  22.478  0.00  0.00    -0.096 C 
ATOM     25  H   UNL     1      -5.379  14.787  22.319  0.00  0.00    -0.082 HD
ATOM     26  C   UNL     1      -6.853  14.465  20.798  0.00  0.00    -0.064 C 
ATOM     27  C   UNL     1      -5.952  13.532  19.940  0.00  0.00    +0.066 C 
ENDBRANCH  19  20
ENDBRANCH  18  19
ENDBRANCH  14  15
ENDBRANCH  12  13
TORSDOF 6
ENDMDL
MODEL 5
REMARK VINA RESULT:      -7.5      5.759     13.079
REMARK  Name = C:\Users\Docking\Desktop\test protocol\1iep_ligandH.pdb
REMARK  8 active torsions:
REMARK  status: ('A' for Active; 'I' for Inactive)
REMARK    1  A    between atoms: _5  and  _11
REMARK    2  A    between atoms: _19  and  _21
REMARK    3  A    between atoms: _22  and  _66
REMARK    4  A    between atoms: _27  and  _30
REMARK    5  A    between atoms: _32  and  _33
REMARK    6  A    between atoms: _38  and  _43
REMARK    7  A    between atoms: _43  and  _46
REMARK    8  A    between atoms: _53  and  _55
REMARK                            x       y       z     vdW  Elec       q    Type
REMARK                         _______ _______ _______ _____ _____    ______ ____
ROOT
ATOM     10  C   UNL     1      -4.517  11.891  15.451  0.00  0.00    +0.038 A 
ATOM     11  C   UNL     1      -4.280  13.010  16.290  0.00  0.00    +0.047 A 
ATOM     12  C   UNL     1      -3.944  12.839  17.695  0.00  0.00    +0.035 A 
ATOM     32  C   UNL     1      -3.855  11.514  18.212  0.00  0.00    +0.024 A 
ATOM     33  C   UNL     1      -4.094  10.366  17.374  0.00  0.00    +0.007 A 
ATOM     34  C   UNL     1      -4.428  10.528  15.988  0.00  0.00    -0.029 A 
ATOM     35  C   UNL     1      -4.680   9.261  15.138  0.00  0.00    +0.045 C 
ENDROOT
BRANCH  10   9
ATOM      4  C   UNL     1      -7.686  12.427  11.887  0.00  0.00    +0.077 A 
ATOM      5  C   UNL     1      -8.800  12.221  12.767  0.00  0.00    +0.048 A 
ATOM      6  C   UNL     1      -8.514  11.972  14.128  0.00  0.00    +0.116 A 
ATOM      7  N   UNL     1      -7.208  11.936  14.566  0.00  0.00    -0.223 NA
ATOM      8  C   UNL     1      -6.156  12.138  13.690  0.00  0.00    +0.220 A 
ATOM      9  N   UNL     1      -4.835  12.113  14.110  0.00  0.00    -0.283 N 
ATOM     36  H   UNL     1      -4.088  12.259  13.432  0.00  0.00    +0.155 HD
ATOM     37  N   UNL     1      -6.403  12.375  12.385  0.00  0.00    -0.214 NA
BRANCH   4   3
ATOM      1  C   UNL     1      -9.151  12.774   8.276  0.00  0.00    +0.020 A 
ATOM      2  C   UNL     1      -9.068  12.491   9.691  0.00  0.00    +0.013 A 
ATOM      3  C   UNL     1      -7.826  12.703  10.422  0.00  0.00    +0.019 A 
ATOM     38  C   UNL     1      -6.676  13.208   9.687  0.00  0.00    +0.120 A 
ATOM     39  N   UNL     1      -6.784  13.471   8.325  0.00  0.00    -0.263 NA
ATOM     40  C   UNL     1      -7.974  13.268   7.610  0.00  0.00    +0.111 A 
ENDBRANCH   4   3
ENDBRANCH  10   9
BRANCH  12  13
ATOM     13  N   UNL     1      -3.700  13.938  18.597  0.00  0.00    -0.281 N 
ATOM     14  C   UNL     1      -4.625  14.642  19.351  0.00  0.00    +0.248 C 
ATOM     30  O   UNL     1      -5.836  14.572  19.201  0.00  0.00    -0.270 OA
ATOM     31  H   UNL     1      -2.728  14.232  18.691  0.00  0.00    +0.155 HD
BRANCH  14  15
ATOM     15  C   UNL     1      -4.134  15.568  20.416  0.00  0.00    +0.037 A 
ATOM     16  C   UNL     1      -4.544  16.974  20.450  0.00  0.00    +0.013 A 
ATOM     17  C   UNL     1      -4.042  17.850  21.478  0.00  0.00    +0.005 A 
ATOM     18  C   UNL     1      -3.123  17.320  22.484  0.00  0.00    -0.033 A 
ATOM     28  C   UNL     1      -2.737  15.920  22.430  0.00  0.00    +0.005 A 
ATOM     29  C   UNL     1      -3.226  15.059  21.423  0.00  0.00    +0.013 A 
BRANCH  18  19
ATOM     19  C   UNL     1      -2.521  18.188  23.605  0.00  0.00    +0.119 C 
BRANCH  19  20
ATOM     20  N   UNL     1      -1.877  19.474  23.204  0.00  0.00    -0.302 NA
ATOM     21  C   UNL     1      -0.349  19.372  23.192  0.00  0.00    +0.066 C 
ATOM     22  C   UNL     1       0.307  20.720  22.748  0.00  0.00    -0.064 C 
ATOM     23  N   UNL     1      -0.153  21.840  23.682  0.00  0.00    +0.379 N 
ATOM     24  C   UNL     1       0.508  23.097  23.303  0.00  0.00    -0.096 C 
ATOM     25  H   UNL     1       0.181  21.579  24.713  0.00  0.00    -0.082 HD
ATOM     26  C   UNL     1      -1.672  21.946  23.702  0.00  0.00    -0.064 C 
ATOM     27  C   UNL     1      -2.315  20.593  24.116  0.00  0.00    +0.066 C 
ENDBRANCH  19  20
ENDBRANCH  18  19
ENDBRANCH  14  15
ENDBRANCH  12  13
TORSDOF 6
ENDMDL
