MODEL 1
REMARK VINA RESULT:      -8.0      0.000      0.000
REMARK  Name = C:\Users\Docking\Desktop\test protocol\1iep_ligandH.pdb
REMARK  8 active torsions:
REMARK  status: ('A' for Active; 'I' for Inactive)
REMARK    1  A    between atoms: _5  and  _11
REMARK    2  A    between atoms: _19  and  _21
REMARK    3  A    between atoms: _22  and  _66
REMARK    4  A    between atoms: _27  and  _30
REMARK    5  A    between atoms: _32  and  _33
REMARK    6  A    between atoms: _38  and  _43
REMARK    7  A    between atoms: _43  and  _46
REMARK    8  A    between atoms: _53  and  _55
REMARK                            x       y       z     vdW  Elec       q    Type
REMARK                         _______ _______ _______ _____ _____    ______ ____
ROOT
ATOM     10  C   UNL     1      46.129  60.104  37.675  0.00  0.00    +0.038 A 
ATOM     11  C   UNL     1      45.567  59.216  36.723  0.00  0.00    +0.047 A 
ATOM     12  C   UNL     1      44.508  59.648  35.824  0.00  0.00    +0.035 A 
ATOM     32  C   UNL     1      44.047  60.993  35.921  0.00  0.00    +0.024 A 
ATOM     33  C   UNL     1      44.606  61.909  36.884  0.00  0.00    +0.007 A 
ATOM     34  C   UNL     1      45.649  61.488  37.775  0.00  0.00    -0.029 A 
ATOM     35  C   UNL     1      46.207  62.510  38.792  0.00  0.00    +0.045 C 
ENDROOT
BRANCH  10   9
ATOM      4  C   UNL     1      47.666  58.197  41.803  0.00  0.00    +0.077 A 
ATOM      5  C   UNL     1      46.339  58.154  42.346  0.00  0.00    +0.048 A 
ATOM      6  C   UNL     1      45.289  58.639  41.534  0.00  0.00    +0.116 A 
ATOM      7  N   UNL     1      45.559  59.127  40.274  0.00  0.00    -0.223 NA
ATOM      8  C   UNL     1      46.850  59.156  39.781  0.00  0.00    +0.220 A 
ATOM      9  N   UNL     1      47.143  59.636  38.514  0.00  0.00    -0.283 N 
ATOM     36  H   UNL     1      48.110  59.647  38.190  0.00  0.00    +0.155 HD
ATOM     37  N   UNL     1      47.870  58.700  40.538  0.00  0.00    -0.214 NA
BRANCH   4   3
ATOM      1  C   UNL     1      50.372  55.895  43.441  0.00  0.00    +0.020 A 
ATOM      2  C   UNL     1      49.187  56.305  42.724  0.00  0.00    +0.013 A 
ATOM      3  C   UNL     1      48.879  57.718  42.538  0.00  0.00    +0.019 A 
ATOM     38  C   UNL     1      49.799  58.698  43.094  0.00  0.00    +0.120 A 
ATOM     39  N   UNL     1      50.932  58.274  43.782  0.00  0.00    -0.263 NA
ATOM     40  C   UNL     1      51.237  56.917  43.969  0.00  0.00    +0.111 A 
ENDBRANCH   4   3
ENDBRANCH  10   9
BRANCH  12  13
ATOM     13  N   UNL     1      43.894  58.789  34.842  0.00  0.00    -0.281 N 
ATOM     14  C   UNL     1      42.962  57.785  35.053  0.00  0.00    +0.248 C 
ATOM     30  O   UNL     1      42.674  57.329  36.149  0.00  0.00    -0.270 OA
ATOM     31  H   UNL     1      44.180  58.939  33.875  0.00  0.00    +0.155 HD
BRANCH  14  15
ATOM     15  C   UNL     1      42.260  57.193  33.873  0.00  0.00    +0.037 A 
ATOM     16  C   UNL     1      41.862  58.021  32.732  0.00  0.00    +0.013 A 
ATOM     17  C   UNL     1      41.171  57.427  31.614  0.00  0.00    +0.005 A 
ATOM     18  C   UNL     1      40.875  55.997  31.634  0.00  0.00    -0.033 A 
ATOM     28  C   UNL     1      41.285  55.199  32.777  0.00  0.00    +0.005 A 
ATOM     29  C   UNL     1      41.962  55.777  33.874  0.00  0.00    +0.013 A 
BRANCH  18  19
ATOM     19  C   UNL     1      40.122  55.283  30.495  0.00  0.00    +0.119 C 
BRANCH  19  20
ATOM     20  N   UNL     1      40.778  54.088  29.886  0.00  0.00    -0.302 NA
ATOM     21  C   UNL     1      42.173  54.411  29.343  0.00  0.00    +0.066 C 
ATOM     22  C   UNL     1      42.853  53.144  28.730  0.00  0.00    -0.064 C 
ATOM     23  N   UNL     1      41.962  52.573  27.626  0.00  0.00    +0.379 N 
ATOM     24  C   UNL     1      42.625  51.416  27.009  0.00  0.00    -0.096 C 
ATOM     25  H   UNL     1      41.850  53.358  26.842  0.00  0.00    -0.082 HD
ATOM     26  C   UNL     1      40.572  52.251  28.157  0.00  0.00    -0.064 C 
ATOM     27  C   UNL     1      39.916  53.510  28.790  0.00  0.00    +0.066 C 
ENDBRANCH  19  20
ENDBRANCH  18  19
ENDBRANCH  14  15
ENDBRANCH  12  13
TORSDOF 6
ENDMDL
MODEL 2
REMARK VINA RESULT:      -7.8     26.788     28.734
REMARK  Name = C:\Users\Docking\Desktop\test protocol\1iep_ligandH.pdb
REMARK  8 active torsions:
REMARK  status: ('A' for Active; 'I' for Inactive)
REMARK    1  A    between atoms: _5  and  _11
REMARK    2  A    between atoms: _19  and  _21
REMARK    3  A    between atoms: _22  and  _66
REMARK    4  A    between atoms: _27  and  _30
REMARK    5  A    between atoms: _32  and  _33
REMARK    6  A    between atoms: _38  and  _43
REMARK    7  A    between atoms: _43  and  _46
REMARK    8  A    between atoms: _53  and  _55
REMARK                            x       y       z     vdW  Elec       q    Type
REMARK                         _______ _______ _______ _____ _____    ______ ____
ROOT
ATOM     10  C   UNL     1      32.143  33.078  43.323  0.00  0.00    +0.038 A 
ATOM     11  C   UNL     1      32.670  32.948  42.012  0.00  0.00    +0.047 A 
ATOM     12  C   UNL     1      34.105  32.943  41.776  0.00  0.00    +0.035 A 
ATOM     32  C   UNL     1      34.975  33.069  42.898  0.00  0.00    +0.024 A 
ATOM     33  C   UNL     1      34.456  33.203  44.236  0.00  0.00    +0.007 A 
ATOM     34  C   UNL     1      33.042  33.211  44.476  0.00  0.00    -0.029 A 
ATOM     35  C   UNL     1      32.541  33.364  45.931  0.00  0.00    +0.045 C 
ENDROOT
BRANCH  10   9
ATOM      4  C   UNL     1      27.881  35.285  43.353  0.00  0.00    +0.077 A 
ATOM      5  C   UNL     1      28.469  36.553  43.030  0.00  0.00    +0.048 A 
ATOM      6  C   UNL     1      29.872  36.596  42.872  0.00  0.00    +0.116 A 
ATOM      7  N   UNL     1      30.621  35.450  43.027  0.00  0.00    -0.223 NA
ATOM      8  C   UNL     1      30.023  34.243  43.340  0.00  0.00    +0.220 A 
ATOM      9  N   UNL     1      30.756  33.077  43.492  0.00  0.00    -0.283 N 
ATOM     36  H   UNL     1      30.278  32.208  43.730  0.00  0.00    +0.155 HD
ATOM     37  N   UNL     1      28.685  34.176  43.497  0.00  0.00    -0.214 NA
BRANCH   4   3
ATOM      1  C   UNL     1      24.107  35.876  44.194  0.00  0.00    +0.020 A 
ATOM      2  C   UNL     1      25.519  36.128  44.022  0.00  0.00    +0.013 A 
ATOM      3  C   UNL     1      26.411  35.078  43.548  0.00  0.00    +0.019 A 
ATOM     38  C   UNL     1      25.838  33.773  43.254  0.00  0.00    +0.120 A 
ATOM     39  N   UNL     1      24.474  33.559  43.430  0.00  0.00    -0.263 NA
ATOM     40  C   UNL     1      23.606  34.562  43.887  0.00  0.00    +0.111 A 
ENDBRANCH   4   3
ENDBRANCH  10   9
BRANCH  12  13
ATOM     13  N   UNL     1      34.698  32.822  40.467  0.00  0.00    -0.281 N 
ATOM     14  C   UNL     1      34.661  31.733  39.612  0.00  0.00    +0.248 C 
ATOM     30  O   UNL     1      34.289  30.615  39.934  0.00  0.00    -0.270 OA
ATOM     31  H   UNL     1      35.208  33.639  40.130  0.00  0.00    +0.155 HD
BRANCH  14  15
ATOM     15  C   UNL     1      35.114  31.909  38.199  0.00  0.00    +0.037 A 
ATOM     16  C   UNL     1      34.217  32.448  37.174  0.00  0.00    +0.013 A 
ATOM     17  C   UNL     1      34.675  32.591  35.814  0.00  0.00    +0.005 A 
ATOM     18  C   UNL     1      36.039  32.195  35.473  0.00  0.00    -0.033 A 
ATOM     28  C   UNL     1      36.910  31.668  36.510  0.00  0.00    +0.005 A 
ATOM     29  C   UNL     1      36.464  31.526  37.844  0.00  0.00    +0.013 A 
BRANCH  18  19
ATOM     19  C   UNL     1      36.605  32.293  34.044  0.00  0.00    +0.119 C 
BRANCH  19  20
ATOM     20  N   UNL     1      35.980  31.427  33.000  0.00  0.00    -0.302 NA
ATOM     21  C   UNL     1      34.790  32.112  32.322  0.00  0.00    +0.066 C 
ATOM     22  C   UNL     1      34.163  31.200  31.217  0.00  0.00    -0.064 C 
ATOM     23  N   UNL     1      33.739  29.868  31.839  0.00  0.00    +0.379 N 
ATOM     24  C   UNL     1      33.096  29.032  30.815  0.00  0.00    -0.096 C 
ATOM     25  H   UNL     1      32.978  30.088  32.623  0.00  0.00    -0.082 HD
ATOM     26  C   UNL     1      34.916  29.182  32.517  0.00  0.00    -0.064 C 
ATOM     27  C   UNL     1      35.551  30.108  33.593  0.00  0.00    +0.066 C 
ENDBRANCH  19  20
ENDBRANCH  18  19
ENDBRANCH  14  15
ENDBRANCH  12  13
TORSDOF 6
ENDMDL
MODEL 3
REMARK VINA RESULT:      -7.8     29.185     32.435
REMARK  Name = C:\Users\Docking\Desktop\test protocol\1iep_ligandH.pdb
REMARK  8 active torsions:
REMARK  status: ('A' for Active; 'I' for Inactive)
REMARK    1  A    between atoms: _5  and  _11
REMARK    2  A    between atoms: _19  and  _21
REMARK    3  A    between atoms: _22  and  _66
REMARK    4  A    between atoms: _27  and  _30
REMARK    5  A    between atoms: _32  and  _33
REMARK    6  A    between atoms: _38  and  _43
REMARK    7  A    between atoms: _43  and  _46
REMARK    8  A    between atoms: _53  and  _55
REMARK                            x       y       z     vdW  Elec       q    Type
REMARK                         _______ _______ _______ _____ _____    ______ ____
ROOT
ATOM     10  C   UNL     1      56.859  46.053  59.846  0.00  0.00    +0.038 A 
ATOM     11  C   UNL     1      57.341  47.299  60.322  0.00  0.00    +0.047 A 
ATOM     12  C   UNL     1      56.623  48.042  61.346  0.00  0.00    +0.035 A 
ATOM     32  C   UNL     1      55.419  47.484  61.866  0.00  0.00    +0.024 A 
ATOM     33  C   UNL     1      54.914  46.219  61.393  0.00  0.00    +0.007 A 
ATOM     34  C   UNL     1      55.617  45.483  60.381  0.00  0.00    -0.029 A 
ATOM     35  C   UNL     1      55.026  44.135  59.907  0.00  0.00    +0.045 C 
ENDROOT
BRANCH  10   9
ATOM      4  C   UNL     1      60.069  42.765  58.458  0.00  0.00    +0.077 A 
ATOM      5  C   UNL     1      60.334  42.367  59.811  0.00  0.00    +0.048 A 
ATOM      6  C   UNL     1      59.629  43.039  60.835  0.00  0.00    +0.116 A 
ATOM      7  N   UNL     1      58.728  44.032  60.518  0.00  0.00    -0.223 NA
ATOM      8  C   UNL     1      58.496  44.392  59.203  0.00  0.00    +0.220 A 
ATOM      9  N   UNL     1      57.589  45.382  58.861  0.00  0.00    -0.283 N 
ATOM     36  H   UNL     1      57.452  45.624  57.880  0.00  0.00    +0.155 HD
ATOM     37  N   UNL     1      59.158  43.767  58.207  0.00  0.00    -0.214 NA
BRANCH   4   3
ATOM      1  C   UNL     1      62.753  41.641  55.845  0.00  0.00    +0.020 A 
ATOM      2  C   UNL     1      62.162  42.256  57.011  0.00  0.00    +0.013 A 
ATOM      3  C   UNL     1      60.732  42.147  57.267  0.00  0.00    +0.019 A 
ATOM     38  C   UNL     1      59.921  41.401  56.316  0.00  0.00    +0.120 A 
ATOM     39  N   UNL     1      60.517  40.820  55.202  0.00  0.00    -0.263 NA
ATOM     40  C   UNL     1      61.892  40.920  54.944  0.00  0.00    +0.111 A 
ENDBRANCH   4   3
ENDBRANCH  10   9
BRANCH  12  13
ATOM     13  N   UNL     1      57.059  49.316  61.862  0.00  0.00    -0.281 N 
ATOM     14  C   UNL     1      56.812  50.575  61.340  0.00  0.00    +0.248 C 
ATOM     30  O   UNL     1      56.356  50.785  60.226  0.00  0.00    -0.270 OA
ATOM     31  H   UNL     1      57.617  49.285  62.715  0.00  0.00    +0.155 HD
BRANCH  14  15
ATOM     15  C   UNL     1      57.132  51.776  62.171  0.00  0.00    +0.037 A 
ATOM     16  C   UNL     1      56.260  52.953  62.174  0.00  0.00    +0.013 A 
ATOM     17  C   UNL     1      56.601  54.104  62.971  0.00  0.00    +0.005 A 
ATOM     18  C   UNL     1      57.821  54.084  63.774  0.00  0.00    -0.033 A 
ATOM     28  C   UNL     1      58.666  52.901  63.757  0.00  0.00    +0.005 A 
ATOM     29  C   UNL     1      58.335  51.771  62.976  0.00  0.00    +0.013 A 
BRANCH  18  19
ATOM     19  C   UNL     1      58.274  55.275  64.638  0.00  0.00    +0.119 C 
BRANCH  19  20
ATOM     20  N   UNL     1      58.154  55.130  66.120  0.00  0.00    -0.302 NA
ATOM     21  C   UNL     1      56.905  55.827  66.666  0.00  0.00    +0.066 C 
ATOM     22  C   UNL     1      56.784  55.646  68.214  0.00  0.00    -0.064 C 
ATOM     23  N   UNL     1      58.045  56.188  68.889  0.00  0.00    +0.379 N 
ATOM     24  C   UNL     1      57.909  56.072  70.348  0.00  0.00    -0.096 C 
ATOM     25  H   UNL     1      58.121  57.272  68.641  0.00  0.00    -0.082 HD
ATOM     26  C   UNL     1      59.292  55.502  68.349  0.00  0.00    -0.064 C 
ATOM     27  C   UNL     1      59.388  55.663  66.806  0.00  0.00    +0.066 C 
ENDBRANCH  19  20
ENDBRANCH  18  19
ENDBRANCH  14  15
ENDBRANCH  12  13
TORSDOF 6
ENDMDL
MODEL 4
REMARK VINA RESULT:      -7.7     11.861     17.946
REMARK  Name = C:\Users\Docking\Desktop\test protocol\1iep_ligandH.pdb
REMARK  8 active torsions:
REMARK  status: ('A' for Active; 'I' for Inactive)
REMARK    1  A    between atoms: _5  and  _11
REMARK    2  A    between atoms: _19  and  _21
REMARK    3  A    between atoms: _22  and  _66
REMARK    4  A    between atoms: _27  and  _30
REMARK    5  A    between atoms: _32  and  _33
REMARK    6  A    between atoms: _38  and  _43
REMARK    7  A    between atoms: _43  and  _46
REMARK    8  A    between atoms: _53  and  _55
REMARK                            x       y       z     vdW  Elec       q    Type
REMARK                         _______ _______ _______ _____ _____    ______ ____
ROOT
ATOM     10  C   UNL     1      48.131  65.766  42.885  0.00  0.00    +0.038 A 
ATOM     11  C   UNL     1      49.224  66.664  42.994  0.00  0.00    +0.047 A 
ATOM     12  C   UNL     1      49.505  67.637  41.950  0.00  0.00    +0.035 A 
ATOM     32  C   UNL     1      48.649  67.671  40.810  0.00  0.00    +0.024 A 
ATOM     33  C   UNL     1      47.535  66.765  40.683  0.00  0.00    +0.007 A 
ATOM     34  C   UNL     1      47.255  65.801  41.708  0.00  0.00    -0.029 A 
ATOM     35  C   UNL     1      46.050  64.851  41.517  0.00  0.00    +0.045 C 
ENDROOT
BRANCH  10   9
ATOM      4  C   UNL     1      46.284  64.565  47.149  0.00  0.00    +0.077 A 
ATOM      5  C   UNL     1      45.740  65.877  47.350  0.00  0.00    +0.048 A 
ATOM      6  C   UNL     1      45.964  66.835  46.335  0.00  0.00    +0.116 A 
ATOM      7  N   UNL     1      46.680  66.494  45.208  0.00  0.00    -0.223 NA
ATOM      8  C   UNL     1      47.192  65.219  45.047  0.00  0.00    +0.220 A 
ATOM      9  N   UNL     1      47.908  64.852  43.918  0.00  0.00    -0.283 N 
ATOM     36  H   UNL     1      48.276  63.904  43.840  0.00  0.00    +0.155 HD
ATOM     37  N   UNL     1      46.993  64.288  46.002  0.00  0.00    -0.214 NA
BRANCH   4   3
ATOM      1  C   UNL     1      46.319  61.020  48.803  0.00  0.00    +0.020 A 
ATOM      2  C   UNL     1      46.488  62.066  47.820  0.00  0.00    +0.013 A 
ATOM      3  C   UNL     1      46.129  63.444  48.130  0.00  0.00    +0.019 A 
ATOM     38  C   UNL     1      45.598  63.733  49.453  0.00  0.00    +0.120 A 
ATOM     39  N   UNL     1      45.445  62.706  50.379  0.00  0.00    -0.263 NA
ATOM     40  C   UNL     1      45.785  61.375  50.092  0.00  0.00    +0.111 A 
ENDBRANCH   4   3
ENDBRANCH  10   9
BRANCH  12  13
ATOM     13  N   UNL     1      50.604  68.568  42.001  0.00  0.00    -0.281 N 
ATOM     14  C   UNL     1      50.825  69.576  42.925  0.00  0.00    +0.248 C 
ATOM     30  O   UNL     1      49.993  69.970  43.730  0.00  0.00    -0.270 OA
ATOM     31  H   UNL     1      51.305  68.473  41.266  0.00  0.00    +0.155 HD
BRANCH  14  15
ATOM     15  C   UNL     1      52.156  70.255  42.950  0.00  0.00    +0.037 A 
ATOM     16  C   UNL     1      52.625  70.966  44.142  0.00  0.00    +0.013 A 
ATOM     17  C   UNL     1      53.906  71.627  44.133  0.00  0.00    +0.005 A 
ATOM     18  C   UNL     1      54.728  71.578  42.927  0.00  0.00    -0.033 A 
ATOM     28  C   UNL     1      54.241  70.862  41.760  0.00  0.00    +0.005 A 
ATOM     29  C   UNL     1      52.986  70.214  41.764  0.00  0.00    +0.013 A 
BRANCH  18  19
ATOM     19  C   UNL     1      56.099  72.273  42.821  0.00  0.00    +0.119 C 
BRANCH  19  20
ATOM     20  N   UNL     1      56.163  73.542  42.037  0.00  0.00    -0.302 NA
ATOM     21  C   UNL     1      57.370  73.574  41.094  0.00  0.00    +0.066 C 
ATOM     22  C   UNL     1      57.409  74.899  40.265  0.00  0.00    -0.064 C 
ATOM     23  N   UNL     1      57.436  76.094  41.220  0.00  0.00    +0.379 N 
ATOM     24  C   UNL     1      57.532  77.340  40.445  0.00  0.00    -0.096 C 
ATOM     25  H   UNL     1      58.358  76.010  41.840  0.00  0.00    -0.082 HD
ATOM     26  C   UNL     1      56.242  76.068  42.163  0.00  0.00    -0.064 C 
ATOM     27  C   UNL     1      56.195  74.735  42.960  0.00  0.00    +0.066 C 
ENDBRANCH  19  20
ENDBRANCH  18  19
ENDBRANCH  14  15
ENDBRANCH  12  13
TORSDOF 6
ENDMDL
MODEL 5
REMARK VINA RESULT:      -7.7     22.484     28.135
REMARK  Name = C:\Users\Docking\Desktop\test protocol\1iep_ligandH.pdb
REMARK  8 active torsions:
REMARK  status: ('A' for Active; 'I' for Inactive)
REMARK    1  A    between atoms: _5  and  _11
REMARK    2  A    between atoms: _19  and  _21
REMARK    3  A    between atoms: _22  and  _66
REMARK    4  A    between atoms: _27  and  _30
REMARK    5  A    between atoms: _32  and  _33
REMARK    6  A    between atoms: _38  and  _43
REMARK    7  A    between atoms: _43  and  _46
REMARK    8  A    between atoms: _53  and  _55
REMARK                            x       y       z     vdW  Elec       q    Type
REMARK                         _______ _______ _______ _____ _____    ______ ____
ROOT
ATOM     10  C   UNL     1      35.036  65.539  59.627  0.00  0.00    +0.038 A 
ATOM     11  C   UNL     1      35.545  66.832  59.340  0.00  0.00    +0.047 A 
ATOM     12  C   UNL     1      34.679  68.001  59.352  0.00  0.00    +0.035 A 
ATOM     32  C   UNL     1      33.300  67.817  59.664  0.00  0.00    +0.024 A 
ATOM     33  C   UNL     1      32.766  66.510  59.957  0.00  0.00    +0.007 A 
ATOM     34  C   UNL     1      33.615  65.353  59.944  0.00  0.00    -0.029 A 
ATOM     35  C   UNL     1      32.987  63.976  60.260  0.00  0.00    +0.045 C 
ENDROOT
BRANCH  10   9
ATOM      4  C   UNL     1      37.125  61.838  57.397  0.00  0.00    +0.077 A 
ATOM      5  C   UNL     1      36.388  62.074  56.189  0.00  0.00    +0.048 A 
ATOM      6  C   UNL     1      35.477  63.153  56.185  0.00  0.00    +0.116 A 
ATOM      7  N   UNL     1      35.322  63.932  57.311  0.00  0.00    -0.223 NA
ATOM      8  C   UNL     1      36.047  63.677  58.461  0.00  0.00    +0.220 A 
ATOM      9  N   UNL     1      35.913  64.452  59.602  0.00  0.00    -0.283 N 
ATOM     36  H   UNL     1      36.460  64.226  60.432  0.00  0.00    +0.155 HD
ATOM     37  N   UNL     1      36.922  62.651  58.490  0.00  0.00    -0.214 NA
BRANCH   4   3
ATOM      1  C   UNL     1      39.339  58.996  58.921  0.00  0.00    +0.020 A 
ATOM      2  C   UNL     1      38.359  60.053  58.822  0.00  0.00    +0.013 A 
ATOM      3  C   UNL     1      38.128  60.738  57.556  0.00  0.00    +0.019 A 
ATOM     38  C   UNL     1      38.910  60.325  56.401  0.00  0.00    +0.120 A 
ATOM     39  N   UNL     1      39.848  59.305  56.527  0.00  0.00    -0.263 NA
ATOM     40  C   UNL     1      40.081  58.640  57.740  0.00  0.00    +0.111 A 
ENDBRANCH   4   3
ENDBRANCH  10   9
BRANCH  12  13
ATOM     13  N   UNL     1      35.137  69.337  59.061  0.00  0.00    -0.281 N 
ATOM     14  C   UNL     1      36.191  70.021  59.642  0.00  0.00    +0.248 C 
ATOM     30  O   UNL     1      36.771  69.664  60.657  0.00  0.00    -0.270 OA
ATOM     31  H   UNL     1      34.621  69.839  58.338  0.00  0.00    +0.155 HD
BRANCH  14  15
ATOM     15  C   UNL     1      36.660  71.293  59.014  0.00  0.00    +0.037 A 
ATOM     16  C   UNL     1      35.843  71.998  58.022  0.00  0.00    +0.013 A 
ATOM     17  C   UNL     1      36.327  73.214  57.419  0.00  0.00    +0.005 A 
ATOM     18  C   UNL     1      37.636  73.735  57.807  0.00  0.00    -0.033 A 
ATOM     28  C   UNL     1      38.423  73.019  58.797  0.00  0.00    +0.005 A 
ATOM     29  C   UNL     1      37.953  71.826  59.390  0.00  0.00    +0.013 A 
BRANCH  18  19
ATOM     19  C   UNL     1      38.241  75.014  57.199  0.00  0.00    +0.119 C 
BRANCH  19  20
ATOM     20  N   UNL     1      39.309  75.704  57.982  0.00  0.00    -0.302 NA
ATOM     21  C   UNL     1      38.729  76.606  59.076  0.00  0.00    +0.066 C 
ATOM     22  C   UNL     1      39.860  77.302  59.899  0.00  0.00    -0.064 C 
ATOM     23  N   UNL     1      40.755  78.105  58.954  0.00  0.00    +0.379 N 
ATOM     24  C   UNL     1      41.786  78.808  59.732  0.00  0.00    -0.096 C 
ATOM     25  H   UNL     1      40.119  78.876  58.460  0.00  0.00    -0.082 HD
ATOM     26  C   UNL     1      41.334  77.217  57.862  0.00  0.00    -0.064 C 
ATOM     27  C   UNL     1      40.202  76.507  57.068  0.00  0.00    +0.066 C 
ENDBRANCH  19  20
ENDBRANCH  18  19
ENDBRANCH  14  15
ENDBRANCH  12  13
TORSDOF 6
ENDMDL
