MODEL 1
REMARK VINA RESULT:      -8.9      0.000      0.000
REMARK  Name = C:\Users\Docking\Desktop\test protocol\1iep_ligandH.pdb
REMARK  8 active torsions:
REMARK  status: ('A' for Active; 'I' for Inactive)
REMARK    1  A    between atoms: _5  and  _11
REMARK    2  A    between atoms: _19  and  _21
REMARK    3  A    between atoms: _22  and  _66
REMARK    4  A    between atoms: _27  and  _30
REMARK    5  A    between atoms: _32  and  _33
REMARK    6  A    between atoms: _38  and  _43
REMARK    7  A    between atoms: _43  and  _46
REMARK    8  A    between atoms: _53  and  _55
REMARK                            x       y       z     vdW  Elec       q    Type
REMARK                         _______ _______ _______ _____ _____    ______ ____
ROOT
ATOM     10  C   UNL     1       4.405  67.741  35.146  0.00  0.00    +0.038 A 
ATOM     11  C   UNL     1       4.699  68.755  34.199  0.00  0.00    +0.047 A 
ATOM     12  C   UNL     1       5.529  68.480  33.036  0.00  0.00    +0.035 A 
ATOM     32  C   UNL     1       6.039  67.160  32.867  0.00  0.00    +0.024 A 
ATOM     33  C   UNL     1       5.751  66.118  33.821  0.00  0.00    +0.007 A 
ATOM     34  C   UNL     1       4.936  66.384  34.971  0.00  0.00    -0.029 A 
ATOM     35  C   UNL     1       4.665  65.230  35.964  0.00  0.00    +0.045 C 
ENDROOT
BRANCH  10   9
ATOM      4  C   UNL     1       3.823  69.260  39.662  0.00  0.00    +0.077 A 
ATOM      5  C   UNL     1       5.237  69.405  39.858  0.00  0.00    +0.048 A 
ATOM      6  C   UNL     1       6.080  69.071  38.775  0.00  0.00    +0.116 A 
ATOM      7  N   UNL     1       5.538  68.627  37.588  0.00  0.00    -0.223 NA
ATOM      8  C   UNL     1       4.171  68.497  37.432  0.00  0.00    +0.220 A 
ATOM      9  N   UNL     1       3.604  68.060  36.245  0.00  0.00    -0.283 N 
ATOM     36  H   UNL     1       2.591  67.971  36.173  0.00  0.00    +0.155 HD
ATOM     37  N   UNL     1       3.344  68.808  38.453  0.00  0.00    -0.214 NA
BRANCH   4   3
ATOM      1  C   UNL     1       1.566  71.179  42.217  0.00  0.00    +0.020 A 
ATOM      2  C   UNL     1       2.564  70.928  41.202  0.00  0.00    +0.013 A 
ATOM      3  C   UNL     1       2.803  69.576  40.712  0.00  0.00    +0.019 A 
ATOM     38  C   UNL     1       2.010  68.493  41.272  0.00  0.00    +0.120 A 
ATOM     39  N   UNL     1       1.057  68.765  42.249  0.00  0.00    -0.263 NA
ATOM     40  C   UNL     1       0.819  70.061  42.730  0.00  0.00    +0.111 A 
ENDBRANCH   4   3
ENDBRANCH  10   9
BRANCH  12  13
ATOM     13  N   UNL     1       5.868  69.471  32.045  0.00  0.00    -0.281 N 
ATOM     14  C   UNL     1       5.019  70.116  31.160  0.00  0.00    +0.248 C 
ATOM     30  O   UNL     1       3.865  69.780  30.941  0.00  0.00    -0.270 OA
ATOM     31  H   UNL     1       6.853  69.728  31.989  0.00  0.00    +0.155 HD
BRANCH  14  15
ATOM     15  C   UNL     1       5.531  71.296  30.399  0.00  0.00    +0.037 A 
ATOM     16  C   UNL     1       4.677  72.018  29.453  0.00  0.00    +0.013 A 
ATOM     17  C   UNL     1       5.201  73.142  28.718  0.00  0.00    +0.005 A 
ATOM     18  C   UNL     1       6.587  73.552  28.929  0.00  0.00    -0.033 A 
ATOM     28  C   UNL     1       7.411  72.821  29.877  0.00  0.00    +0.005 A 
ATOM     29  C   UNL     1       6.901  71.718  30.598  0.00  0.00    +0.013 A 
BRANCH  18  19
ATOM     19  C   UNL     1       7.236  74.727  28.173  0.00  0.00    +0.119 C 
BRANCH  19  20
ATOM     20  N   UNL     1       7.574  75.947  28.965  0.00  0.00    -0.302 NA
ATOM     21  C   UNL     1       6.527  77.051  28.794  0.00  0.00    +0.066 C 
ATOM     22  C   UNL     1       6.884  78.311  29.647  0.00  0.00    -0.064 C 
ATOM     23  N   UNL     1       8.273  78.815  29.251  0.00  0.00    +0.379 N 
ATOM     24  C   UNL     1       8.587  80.034  30.010  0.00  0.00    -0.096 C 
ATOM     25  H   UNL     1       8.237  79.089  28.171  0.00  0.00    -0.082 HD
ATOM     26  C   UNL     1       9.319  77.723  29.416  0.00  0.00    -0.064 C 
ATOM     27  C   UNL     1       8.940  76.464  28.587  0.00  0.00    +0.066 C 
ENDBRANCH  19  20
ENDBRANCH  18  19
ENDBRANCH  14  15
ENDBRANCH  12  13
TORSDOF 6
ENDMDL
MODEL 2
REMARK VINA RESULT:      -8.8      2.112      2.684
REMARK  Name = C:\Users\Docking\Desktop\test protocol\1iep_ligandH.pdb
REMARK  8 active torsions:
REMARK  status: ('A' for Active; 'I' for Inactive)
REMARK    1  A    between atoms: _5  and  _11
REMARK    2  A    between atoms: _19  and  _21
REMARK    3  A    between atoms: _22  and  _66
REMARK    4  A    between atoms: _27  and  _30
REMARK    5  A    between atoms: _32  and  _33
REMARK    6  A    between atoms: _38  and  _43
REMARK    7  A    between atoms: _43  and  _46
REMARK    8  A    between atoms: _53  and  _55
REMARK                            x       y       z     vdW  Elec       q    Type
REMARK                         _______ _______ _______ _____ _____    ______ ____
ROOT
ATOM     10  C   UNL     1       5.301  67.639  36.937  0.00  0.00    +0.038 A 
ATOM     11  C   UNL     1       5.453  68.484  35.808  0.00  0.00    +0.047 A 
ATOM     12  C   UNL     1       5.088  68.031  34.475  0.00  0.00    +0.035 A 
ATOM     32  C   UNL     1       4.569  66.711  34.328  0.00  0.00    +0.024 A 
ATOM     33  C   UNL     1       4.408  65.839  35.465  0.00  0.00    +0.007 A 
ATOM     34  C   UNL     1       4.769  66.280  36.782  0.00  0.00    -0.029 A 
ATOM     35  C   UNL     1       4.581  65.300  37.964  0.00  0.00    +0.045 C 
ENDROOT
BRANCH  10   9
ATOM      4  C   UNL     1       4.295  69.849  41.077  0.00  0.00    +0.077 A 
ATOM      5  C   UNL     1       2.932  70.078  40.693  0.00  0.00    +0.048 A 
ATOM      6  C   UNL     1       2.532  69.618  39.418  0.00  0.00    +0.116 A 
ATOM      7  N   UNL     1       3.435  68.977  38.598  0.00  0.00    -0.223 NA
ATOM      8  C   UNL     1       4.743  68.774  38.999  0.00  0.00    +0.220 A 
ATOM      9  N   UNL     1       5.667  68.126  38.194  0.00  0.00    -0.283 N 
ATOM     36  H   UNL     1       6.624  68.002  38.524  0.00  0.00    +0.155 HD
ATOM     37  N   UNL     1       5.151  69.206  40.211  0.00  0.00    -0.214 NA
BRANCH   4   3
ATOM      1  C   UNL     1       4.664  70.832  44.845  0.00  0.00    +0.020 A 
ATOM      2  C   UNL     1       4.062  70.420  43.599  0.00  0.00    +0.013 A 
ATOM      3  C   UNL     1       4.868  70.274  42.394  0.00  0.00    +0.019 A 
ATOM     38  C   UNL     1       6.293  70.555  42.485  0.00  0.00    +0.120 A 
ATOM     39  N   UNL     1       6.845  70.952  43.698  0.00  0.00    -0.263 NA
ATOM     40  C   UNL     1       6.079  71.098  44.864  0.00  0.00    +0.111 A 
ENDBRANCH   4   3
ENDBRANCH  10   9
BRANCH  12  13
ATOM     13  N   UNL     1       5.228  68.841  33.290  0.00  0.00    -0.281 N 
ATOM     14  C   UNL     1       4.311  69.729  32.752  0.00  0.00    +0.248 C 
ATOM     30  O   UNL     1       3.139  69.802  33.092  0.00  0.00    -0.270 OA
ATOM     31  H   UNL     1       6.111  68.748  32.787  0.00  0.00    +0.155 HD
BRANCH  14  15
ATOM     15  C   UNL     1       4.755  70.659  31.671  0.00  0.00    +0.037 A 
ATOM     16  C   UNL     1       3.842  71.074  30.602  0.00  0.00    +0.013 A 
ATOM     17  C   UNL     1       4.302  71.959  29.562  0.00  0.00    +0.005 A 
ATOM     18  C   UNL     1       5.682  72.437  29.585  0.00  0.00    -0.033 A 
ATOM     28  C   UNL     1       6.565  72.013  30.659  0.00  0.00    +0.005 A 
ATOM     29  C   UNL     1       6.119  71.145  31.681  0.00  0.00    +0.013 A 
BRANCH  18  19
ATOM     19  C   UNL     1       6.264  73.366  28.504  0.00  0.00    +0.119 C 
BRANCH  19  20
ATOM     20  N   UNL     1       7.165  74.467  28.961  0.00  0.00    -0.302 NA
ATOM     21  C   UNL     1       6.868  75.787  28.244  0.00  0.00    +0.066 C 
ATOM     22  C   UNL     1       7.804  76.932  28.750  0.00  0.00    -0.064 C 
ATOM     23  N   UNL     1       9.264  76.522  28.547  0.00  0.00    +0.379 N 
ATOM     24  C   UNL     1      10.145  77.620  28.968  0.00  0.00    -0.096 C 
ATOM     25  H   UNL     1       9.420  76.362  27.455  0.00  0.00    -0.082 HD
ATOM     26  C   UNL     1       9.566  75.209  29.254  0.00  0.00    -0.064 C 
ATOM     27  C   UNL     1       8.611  74.084  28.765  0.00  0.00    +0.066 C 
ENDBRANCH  19  20
ENDBRANCH  18  19
ENDBRANCH  14  15
ENDBRANCH  12  13
TORSDOF 6
ENDMDL
MODEL 3
REMARK VINA RESULT:      -8.4      5.779     14.227
REMARK  Name = C:\Users\Docking\Desktop\test protocol\1iep_ligandH.pdb
REMARK  8 active torsions:
REMARK  status: ('A' for Active; 'I' for Inactive)
REMARK    1  A    between atoms: _5  and  _11
REMARK    2  A    between atoms: _19  and  _21
REMARK    3  A    between atoms: _22  and  _66
REMARK    4  A    between atoms: _27  and  _30
REMARK    5  A    between atoms: _32  and  _33
REMARK    6  A    between atoms: _38  and  _43
REMARK    7  A    between atoms: _43  and  _46
REMARK    8  A    between atoms: _53  and  _55
REMARK                            x       y       z     vdW  Elec       q    Type
REMARK                         _______ _______ _______ _____ _____    ______ ____
ROOT
ATOM     10  C   UNL     1      12.691  77.526  29.884  0.00  0.00    +0.038 A 
ATOM     11  C   UNL     1      11.576  76.654  29.811  0.00  0.00    +0.047 A 
ATOM     12  C   UNL     1      10.221  77.172  29.706  0.00  0.00    +0.035 A 
ATOM     32  C   UNL     1      10.038  78.585  29.675  0.00  0.00    +0.024 A 
ATOM     33  C   UNL     1      11.161  79.487  29.749  0.00  0.00    +0.007 A 
ATOM     34  C   UNL     1      12.500  78.981  29.855  0.00  0.00    -0.029 A 
ATOM     35  C   UNL     1      13.665  79.995  29.938  0.00  0.00    +0.045 C 
ENDROOT
BRANCH  10   9
ATOM      4  C   UNL     1      16.937  76.314  28.002  0.00  0.00    +0.077 A 
ATOM      5  C   UNL     1      16.565  76.796  26.703  0.00  0.00    +0.048 A 
ATOM      6  C   UNL     1      15.270  77.342  26.559  0.00  0.00    +0.116 A 
ATOM      7  N   UNL     1      14.419  77.397  27.641  0.00  0.00    -0.223 NA
ATOM      8  C   UNL     1      14.808  76.922  28.880  0.00  0.00    +0.220 A 
ATOM      9  N   UNL     1      13.971  76.974  29.984  0.00  0.00    -0.283 N 
ATOM     36  H   UNL     1      14.292  76.606  30.879  0.00  0.00    +0.155 HD
ATOM     37  N   UNL     1      16.039  76.394  29.043  0.00  0.00    -0.214 NA
BRANCH   4   3
ATOM      1  C   UNL     1      20.607  75.820  29.261  0.00  0.00    +0.020 A 
ATOM      2  C   UNL     1      19.336  76.448  28.984  0.00  0.00    +0.013 A 
ATOM      3  C   UNL     1      18.272  75.712  28.313  0.00  0.00    +0.019 A 
ATOM     38  C   UNL     1      18.528  74.331  27.933  0.00  0.00    +0.120 A 
ATOM     39  N   UNL     1      19.763  73.753  28.212  0.00  0.00    -0.263 NA
ATOM     40  C   UNL     1      20.795  74.452  28.856  0.00  0.00    +0.111 A 
ENDBRANCH   4   3
ENDBRANCH  10   9
BRANCH  12  13
ATOM     13  N   UNL     1       9.049  76.334  29.637  0.00  0.00    -0.281 N 
ATOM     14  C   UNL     1       8.394  75.878  28.505  0.00  0.00    +0.248 C 
ATOM     30  O   UNL     1       8.593  76.298  27.374  0.00  0.00    -0.270 OA
ATOM     31  H   UNL     1       8.654  76.043  30.531  0.00  0.00    +0.155 HD
BRANCH  14  15
ATOM     15  C   UNL     1       7.358  74.810  28.651  0.00  0.00    +0.037 A 
ATOM     16  C   UNL     1       6.015  74.973  28.089  0.00  0.00    +0.013 A 
ATOM     17  C   UNL     1       5.029  73.934  28.259  0.00  0.00    +0.005 A 
ATOM     18  C   UNL     1       5.385  72.723  28.994  0.00  0.00    -0.033 A 
ATOM     28  C   UNL     1       6.726  72.586  29.536  0.00  0.00    +0.005 A 
ATOM     29  C   UNL     1       7.695  73.602  29.372  0.00  0.00    +0.013 A 
BRANCH  18  19
ATOM     19  C   UNL     1       4.391  71.573  29.242  0.00  0.00    +0.119 C 
BRANCH  19  20
ATOM     20  N   UNL     1       4.247  71.084  30.645  0.00  0.00    -0.302 NA
ATOM     21  C   UNL     1       4.950  69.741  30.860  0.00  0.00    +0.066 C 
ATOM     22  C   UNL     1       4.809  69.255  32.340  0.00  0.00    -0.064 C 
ATOM     23  N   UNL     1       3.326  69.154  32.701  0.00  0.00    +0.379 N 
ATOM     24  C   UNL     1       3.189  68.643  34.073  0.00  0.00    -0.096 C 
ATOM     25  H   UNL     1       2.860  68.410  32.014  0.00  0.00    -0.082 HD
ATOM     26  C   UNL     1       2.619  70.485  32.488  0.00  0.00    -0.064 C 
ATOM     27  C   UNL     1       2.790  70.973  31.022  0.00  0.00    +0.066 C 
ENDBRANCH  19  20
ENDBRANCH  18  19
ENDBRANCH  14  15
ENDBRANCH  12  13
TORSDOF 6
ENDMDL
MODEL 4
REMARK VINA RESULT:      -8.4      1.155      1.708
REMARK  Name = C:\Users\Docking\Desktop\test protocol\1iep_ligandH.pdb
REMARK  8 active torsions:
REMARK  status: ('A' for Active; 'I' for Inactive)
REMARK    1  A    between atoms: _5  and  _11
REMARK    2  A    between atoms: _19  and  _21
REMARK    3  A    between atoms: _22  and  _66
REMARK    4  A    between atoms: _27  and  _30
REMARK    5  A    between atoms: _32  and  _33
REMARK    6  A    between atoms: _38  and  _43
REMARK    7  A    between atoms: _43  and  _46
REMARK    8  A    between atoms: _53  and  _55
REMARK                            x       y       z     vdW  Elec       q    Type
REMARK                         _______ _______ _______ _____ _____    ______ ____
ROOT
ATOM     10  C   UNL     1       4.219  67.445  35.457  0.00  0.00    +0.038 A 
ATOM     11  C   UNL     1       4.507  68.442  34.491  0.00  0.00    +0.047 A 
ATOM     12  C   UNL     1       5.287  68.135  33.302  0.00  0.00    +0.035 A 
ATOM     32  C   UNL     1       5.757  66.801  33.128  0.00  0.00    +0.024 A 
ATOM     33  C   UNL     1       5.475  65.775  34.102  0.00  0.00    +0.007 A 
ATOM     34  C   UNL     1       4.708  66.073  35.277  0.00  0.00    -0.029 A 
ATOM     35  C   UNL     1       4.441  64.935  36.290  0.00  0.00    +0.045 C 
ENDROOT
BRANCH  10   9
ATOM      4  C   UNL     1       3.795  69.328  39.852  0.00  0.00    +0.077 A 
ATOM      5  C   UNL     1       5.198  69.614  39.929  0.00  0.00    +0.048 A 
ATOM      6  C   UNL     1       5.996  69.254  38.820  0.00  0.00    +0.116 A 
ATOM      7  N   UNL     1       5.422  68.654  37.720  0.00  0.00    -0.223 NA
ATOM      8  C   UNL     1       4.065  68.391  37.679  0.00  0.00    +0.220 A 
ATOM      9  N   UNL     1       3.465  67.795  36.580  0.00  0.00    -0.283 N 
ATOM     36  H   UNL     1       2.463  67.611  36.591  0.00  0.00    +0.155 HD
ATOM     37  N   UNL     1       3.282  68.723  38.726  0.00  0.00    -0.214 NA
BRANCH   4   3
ATOM      1  C   UNL     1       1.524  71.273  42.373  0.00  0.00    +0.020 A 
ATOM      2  C   UNL     1       2.471  71.016  41.313  0.00  0.00    +0.013 A 
ATOM      3  C   UNL     1       2.821  69.651  40.942  0.00  0.00    +0.019 A 
ATOM     38  C   UNL     1       2.189  68.560  41.669  0.00  0.00    +0.120 A 
ATOM     39  N   UNL     1       1.282  68.838  42.687  0.00  0.00    -0.263 NA
ATOM     40  C   UNL     1       0.939  70.148  43.053  0.00  0.00    +0.111 A 
ENDBRANCH   4   3
ENDBRANCH  10   9
BRANCH  12  13
ATOM     13  N   UNL     1       5.618  69.108  32.291  0.00  0.00    -0.281 N 
ATOM     14  C   UNL     1       4.973  70.303  32.016  0.00  0.00    +0.248 C 
ATOM     30  O   UNL     1       3.879  70.617  32.461  0.00  0.00    -0.270 OA
ATOM     31  H   UNL     1       6.425  68.890  31.706  0.00  0.00    +0.155 HD
BRANCH  14  15
ATOM     15  C   UNL     1       5.632  71.286  31.102  0.00  0.00    +0.037 A 
ATOM     16  C   UNL     1       7.021  71.703  31.310  0.00  0.00    +0.013 A 
ATOM     17  C   UNL     1       7.628  72.665  30.424  0.00  0.00    +0.005 A 
ATOM     18  C   UNL     1       6.844  73.216  29.321  0.00  0.00    -0.033 A 
ATOM     28  C   UNL     1       5.470  72.781  29.135  0.00  0.00    +0.005 A 
ATOM     29  C   UNL     1       4.872  71.839  30.002  0.00  0.00    +0.013 A 
BRANCH  18  19
ATOM     19  C   UNL     1       7.403  74.263  28.339  0.00  0.00    +0.119 C 
BRANCH  19  20
ATOM     20  N   UNL     1       6.572  75.478  28.089  0.00  0.00    -0.302 NA
ATOM     21  C   UNL     1       6.105  75.564  26.633  0.00  0.00    +0.066 C 
ATOM     22  C   UNL     1       5.217  76.829  26.394  0.00  0.00    -0.064 C 
ATOM     23  N   UNL     1       6.003  78.082  26.786  0.00  0.00    +0.379 N 
ATOM     24  C   UNL     1       5.193  79.276  26.508  0.00  0.00    -0.096 C 
ATOM     25  H   UNL     1       6.909  78.129  26.138  0.00  0.00    -0.082 HD
ATOM     26  C   UNL     1       6.474  78.003  28.232  0.00  0.00    -0.064 C 
ATOM     27  C   UNL     1       7.330  76.727  28.465  0.00  0.00    +0.066 C 
ENDBRANCH  19  20
ENDBRANCH  18  19
ENDBRANCH  14  15
ENDBRANCH  12  13
TORSDOF 6
ENDMDL
MODEL 5
REMARK VINA RESULT:      -8.3      2.067      3.386
REMARK  Name = C:\Users\Docking\Desktop\test protocol\1iep_ligandH.pdb
REMARK  8 active torsions:
REMARK  status: ('A' for Active; 'I' for Inactive)
REMARK    1  A    between atoms: _5  and  _11
REMARK    2  A    between atoms: _19  and  _21
REMARK    3  A    between atoms: _22  and  _66
REMARK    4  A    between atoms: _27  and  _30
REMARK    5  A    between atoms: _32  and  _33
REMARK    6  A    between atoms: _38  and  _43
REMARK    7  A    between atoms: _43  and  _46
REMARK    8  A    between atoms: _53  and  _55
REMARK                            x       y       z     vdW  Elec       q    Type
REMARK                         _______ _______ _______ _____ _____    ______ ____
ROOT
ATOM     10  C   UNL     1       7.498  67.836  32.735  0.00  0.00    +0.038 A 
ATOM     11  C   UNL     1       7.296  69.082  32.089  0.00  0.00    +0.047 A 
ATOM     12  C   UNL     1       7.710  69.290  30.710  0.00  0.00    +0.035 A 
ATOM     32  C   UNL     1       8.325  68.207  30.018  0.00  0.00    +0.024 A 
ATOM     33  C   UNL     1       8.539  66.934  30.660  0.00  0.00    +0.007 A 
ATOM     34  C   UNL     1       8.135  66.723  32.021  0.00  0.00    -0.029 A 
ATOM     35  C   UNL     1       8.395  65.339  32.661  0.00  0.00    +0.045 C 
ENDROOT
BRANCH  10   9
ATOM      4  C   UNL     1       4.106  67.852  36.131  0.00  0.00    +0.077 A 
ATOM      5  C   UNL     1       3.082  68.205  35.190  0.00  0.00    +0.048 A 
ATOM      6  C   UNL     1       3.472  68.381  33.843  0.00  0.00    +0.116 A 
ATOM      7  N   UNL     1       4.789  68.212  33.476  0.00  0.00    -0.223 NA
ATOM      8  C   UNL     1       5.752  67.873  34.409  0.00  0.00    +0.220 A 
ATOM      9  N   UNL     1       7.081  67.691  34.060  0.00  0.00    -0.283 N 
ATOM     36  H   UNL     1       7.762  67.448  34.779  0.00  0.00    +0.155 HD
ATOM     37  N   UNL     1       5.406  67.701  35.701  0.00  0.00    -0.214 NA
BRANCH   4   3
ATOM      1  C   UNL     1       3.101  68.399  39.871  0.00  0.00    +0.020 A 
ATOM      2  C   UNL     1       3.330  68.667  38.470  0.00  0.00    +0.013 A 
ATOM      3  C   UNL     1       3.851  67.629  37.589  0.00  0.00    +0.019 A 
ATOM     38  C   UNL     1       4.131  66.321  38.162  0.00  0.00    +0.120 A 
ATOM     39  N   UNL     1       3.902  66.093  39.515  0.00  0.00    -0.263 NA
ATOM     40  C   UNL     1       3.403  67.084  40.373  0.00  0.00    +0.111 A 
ENDBRANCH   4   3
ENDBRANCH  10   9
BRANCH  12  13
ATOM     13  N   UNL     1       7.538  70.536  30.005  0.00  0.00    -0.281 N 
ATOM     14  C   UNL     1       6.408  71.336  29.952  0.00  0.00    +0.248 C 
ATOM     30  O   UNL     1       5.299  70.992  30.333  0.00  0.00    -0.270 OA
ATOM     31  H   UNL     1       8.347  70.868  29.480  0.00  0.00    +0.155 HD
BRANCH  14  15
ATOM     15  C   UNL     1       6.524  72.712  29.381  0.00  0.00    +0.037 A 
ATOM     16  C   UNL     1       5.388  73.357  28.716  0.00  0.00    +0.013 A 
ATOM     17  C   UNL     1       5.532  74.678  28.158  0.00  0.00    +0.005 A 
ATOM     18  C   UNL     1       6.817  75.365  28.265  0.00  0.00    -0.033 A 
ATOM     28  C   UNL     1       7.925  74.704  28.934  0.00  0.00    +0.005 A 
ATOM     29  C   UNL     1       7.789  73.409  29.481  0.00  0.00    +0.013 A 
BRANCH  18  19
ATOM     19  C   UNL     1       7.067  76.768  27.680  0.00  0.00    +0.119 C 
BRANCH  19  20
ATOM     20  N   UNL     1       7.969  77.678  28.448  0.00  0.00    -0.302 NA
ATOM     21  C   UNL     1       7.185  78.644  29.340  0.00  0.00    +0.066 C 
ATOM     22  C   UNL     1       8.144  79.574  30.153  0.00  0.00    -0.064 C 
ATOM     23  N   UNL     1       9.047  80.341  29.186  0.00  0.00    +0.379 N 
ATOM     24  C   UNL     1       9.911  81.258  29.944  0.00  0.00    -0.096 C 
ATOM     25  H   UNL     1       8.392  80.958  28.529  0.00  0.00    -0.082 HD
ATOM     26  C   UNL     1       9.828  79.387  28.293  0.00  0.00    -0.064 C 
ATOM     27  C   UNL     1       8.867  78.449  27.512  0.00  0.00    +0.066 C 
ENDBRANCH  19  20
ENDBRANCH  18  19
ENDBRANCH  14  15
ENDBRANCH  12  13
TORSDOF 6
ENDMDL
