MODEL 1
REMARK VINA RESULT:      -9.5      0.000      0.000
REMARK  Name = C:\Users\Docking\Desktop\test protocol\1iep_ligandH.pdb
REMARK  8 active torsions:
REMARK  status: ('A' for Active; 'I' for Inactive)
REMARK    1  A    between atoms: _5  and  _11
REMARK    2  A    between atoms: _19  and  _21
REMARK    3  A    between atoms: _22  and  _66
REMARK    4  A    between atoms: _27  and  _30
REMARK    5  A    between atoms: _32  and  _33
REMARK    6  A    between atoms: _38  and  _43
REMARK    7  A    between atoms: _43  and  _46
REMARK    8  A    between atoms: _53  and  _55
REMARK                            x       y       z     vdW  Elec       q    Type
REMARK                         _______ _______ _______ _____ _____    ______ ____
ROOT
ATOM     10  C   UNL     1      47.468  30.787   1.442  0.00  0.00    +0.038 A 
ATOM     11  C   UNL     1      46.880  29.823   2.300  0.00  0.00    +0.047 A 
ATOM     12  C   UNL     1      45.436  29.711   2.429  0.00  0.00    +0.035 A 
ATOM     32  C   UNL     1      44.619  30.596   1.666  0.00  0.00    +0.024 A 
ATOM     33  C   UNL     1      45.199  31.583   0.790  0.00  0.00    +0.007 A 
ATOM     34  C   UNL     1      46.624  31.700   0.661  0.00  0.00    -0.029 A 
ATOM     35  C   UNL     1      47.191  32.780  -0.289  0.00  0.00    +0.045 C 
ENDROOT
BRANCH  10   9
ATOM      4  C   UNL     1      51.766  31.977   3.215  0.00  0.00    +0.077 A 
ATOM      5  C   UNL     1      51.187  32.544   4.399  0.00  0.00    +0.048 A 
ATOM      6  C   UNL     1      49.779  32.516   4.509  0.00  0.00    +0.116 A 
ATOM      7  N   UNL     1      49.017  31.959   3.505  0.00  0.00    -0.223 NA
ATOM      8  C   UNL     1      49.607  31.423   2.376  0.00  0.00    +0.220 A 
ATOM      9  N   UNL     1      48.860  30.851   1.357  0.00  0.00    -0.283 N 
ATOM     36  H   UNL     1      49.333  30.473   0.537  0.00  0.00    +0.155 HD
ATOM     37  N   UNL     1      50.950  31.439   2.246  0.00  0.00    -0.214 NA
BRANCH   4   3
ATOM      1  C   UNL     1      55.552  32.937   2.994  0.00  0.00    +0.020 A 
ATOM      2  C   UNL     1      54.136  33.035   3.266  0.00  0.00    +0.013 A 
ATOM      3  C   UNL     1      53.240  31.929   2.954  0.00  0.00    +0.019 A 
ATOM     38  C   UNL     1      53.812  30.728   2.363  0.00  0.00    +0.120 A 
ATOM     39  N   UNL     1      55.179  30.663   2.111  0.00  0.00    -0.263 NA
ATOM     40  C   UNL     1      56.051  31.722   2.406  0.00  0.00    +0.111 A 
ENDBRANCH   4   3
ENDBRANCH  10   9
BRANCH  12  13
ATOM     13  N   UNL     1      44.782  28.757   3.290  0.00  0.00    -0.281 N 
ATOM     14  C   UNL     1      43.880  27.767   2.935  0.00  0.00    +0.248 C 
ATOM     30  O   UNL     1      43.332  27.690   1.845  0.00  0.00    -0.270 OA
ATOM     31  H   UNL     1      45.013  28.818   4.282  0.00  0.00    +0.155 HD
BRANCH  14  15
ATOM     15  C   UNL     1      43.524  26.720   3.941  0.00  0.00    +0.037 A 
ATOM     16  C   UNL     1      43.921  25.322   3.755  0.00  0.00    +0.013 A 
ATOM     17  C   UNL     1      43.551  24.329   4.732  0.00  0.00    +0.005 A 
ATOM     18  C   UNL     1      42.778  24.732   5.905  0.00  0.00    -0.033 A 
ATOM     28  C   UNL     1      42.402  26.126   6.067  0.00  0.00    +0.005 A 
ATOM     29  C   UNL     1      42.763  27.102   5.111  0.00  0.00    +0.013 A 
BRANCH  18  19
ATOM     19  C   UNL     1      42.321  23.736   6.987  0.00  0.00    +0.119 C 
BRANCH  19  20
ATOM     20  N   UNL     1      41.789  22.420   6.524  0.00  0.00    -0.302 NA
ATOM     21  C   UNL     1      40.810  22.574   5.357  0.00  0.00    +0.066 C 
ATOM     22  C   UNL     1      40.281  21.185   4.871  0.00  0.00    -0.064 C 
ATOM     23  N   UNL     1      39.618  20.457   6.041  0.00  0.00    +0.379 N 
ATOM     24  C   UNL     1      39.068  19.176   5.574  0.00  0.00    -0.096 C 
ATOM     25  H   UNL     1      38.765  21.084   6.390  0.00  0.00    -0.082 HD
ATOM     26  C   UNL     1      40.584  20.302   7.207  0.00  0.00    -0.064 C 
ATOM     27  C   UNL     1      41.127  21.685   7.663  0.00  0.00    +0.066 C 
ENDBRANCH  19  20
ENDBRANCH  18  19
ENDBRANCH  14  15
ENDBRANCH  12  13
TORSDOF 6
ENDMDL
MODEL 2
REMARK VINA RESULT:      -8.8      7.205     10.460
REMARK  Name = C:\Users\Docking\Desktop\test protocol\1iep_ligandH.pdb
REMARK  8 active torsions:
REMARK  status: ('A' for Active; 'I' for Inactive)
REMARK    1  A    between atoms: _5  and  _11
REMARK    2  A    between atoms: _19  and  _21
REMARK    3  A    between atoms: _22  and  _66
REMARK    4  A    between atoms: _27  and  _30
REMARK    5  A    between atoms: _32  and  _33
REMARK    6  A    between atoms: _38  and  _43
REMARK    7  A    between atoms: _43  and  _46
REMARK    8  A    between atoms: _53  and  _55
REMARK                            x       y       z     vdW  Elec       q    Type
REMARK                         _______ _______ _______ _____ _____    ______ ____
ROOT
ATOM     10  C   UNL     1      41.910  26.156   3.938  0.00  0.00    +0.038 A 
ATOM     11  C   UNL     1      40.777  25.574   3.314  0.00  0.00    +0.047 A 
ATOM     12  C   UNL     1      39.427  25.969   3.687  0.00  0.00    +0.035 A 
ATOM     32  C   UNL     1      39.269  26.963   4.696  0.00  0.00    +0.024 A 
ATOM     33  C   UNL     1      40.410  27.564   5.341  0.00  0.00    +0.007 A 
ATOM     34  C   UNL     1      41.743  27.176   4.980  0.00  0.00    -0.029 A 
ATOM     35  C   UNL     1      42.929  27.849   5.709  0.00  0.00    +0.045 C 
ENDROOT
BRANCH  10   9
ATOM      4  C   UNL     1      45.401  22.871   3.689  0.00  0.00    +0.077 A 
ATOM      5  C   UNL     1      44.636  21.915   4.435  0.00  0.00    +0.048 A 
ATOM      6  C   UNL     1      43.351  22.310   4.871  0.00  0.00    +0.116 A 
ATOM      7  N   UNL     1      42.877  23.570   4.576  0.00  0.00    -0.223 NA
ATOM      8  C   UNL     1      43.642  24.469   3.856  0.00  0.00    +0.220 A 
ATOM      9  N   UNL     1      43.183  25.738   3.541  0.00  0.00    -0.283 N 
ATOM     36  H   UNL     1      43.781  26.375   3.015  0.00  0.00    +0.155 HD
ATOM     37  N   UNL     1      44.873  24.116   3.430  0.00  0.00    -0.214 NA
BRANCH   4   3
ATOM      1  C   UNL     1      49.290  22.625   3.347  0.00  0.00    +0.020 A 
ATOM      2  C   UNL     1      47.988  22.906   3.906  0.00  0.00    +0.013 A 
ATOM      3  C   UNL     1      46.775  22.601   3.158  0.00  0.00    +0.019 A 
ATOM     38  C   UNL     1      46.915  22.007   1.837  0.00  0.00    +0.120 A 
ATOM     39  N   UNL     1      48.183  21.750   1.324  0.00  0.00    -0.263 NA
ATOM     40  C   UNL     1      49.357  22.040   2.034  0.00  0.00    +0.111 A 
ENDBRANCH   4   3
ENDBRANCH  10   9
BRANCH  12  13
ATOM     13  N   UNL     1      38.239  25.407   3.094  0.00  0.00    -0.281 N 
ATOM     14  C   UNL     1      37.348  26.020   2.228  0.00  0.00    +0.248 C 
ATOM     30  O   UNL     1      37.323  27.219   1.997  0.00  0.00    -0.270 OA
ATOM     31  H   UNL     1      38.028  24.441   3.345  0.00  0.00    +0.155 HD
BRANCH  14  15
ATOM     15  C   UNL     1      36.329  25.180   1.527  0.00  0.00    +0.037 A 
ATOM     16  C   UNL     1      36.678  23.872   0.967  0.00  0.00    +0.013 A 
ATOM     17  C   UNL     1      35.680  23.089   0.282  0.00  0.00    +0.005 A 
ATOM     18  C   UNL     1      34.322  23.614   0.153  0.00  0.00    -0.033 A 
ATOM     28  C   UNL     1      34.003  24.912   0.723  0.00  0.00    +0.005 A 
ATOM     29  C   UNL     1      34.978  25.682   1.395  0.00  0.00    +0.013 A 
BRANCH  18  19
ATOM     19  C   UNL     1      33.199  22.857  -0.580  0.00  0.00    +0.119 C 
BRANCH  19  20
ATOM     20  N   UNL     1      32.080  23.671  -1.142  0.00  0.00    -0.302 NA
ATOM     21  C   UNL     1      30.744  22.925  -1.088  0.00  0.00    +0.066 C 
ATOM     22  C   UNL     1      29.580  23.799  -1.658  0.00  0.00    -0.064 C 
ATOM     23  N   UNL     1      29.912  24.212  -3.093  0.00  0.00    +0.379 N 
ATOM     24  C   UNL     1      28.794  24.985  -3.652  0.00  0.00    -0.096 C 
ATOM     25  H   UNL     1      30.015  23.280  -3.697  0.00  0.00    -0.082 HD
ATOM     26  C   UNL     1      31.241  24.952  -3.157  0.00  0.00    -0.064 C 
ATOM     27  C   UNL     1      32.385  24.086  -2.560  0.00  0.00    +0.066 C 
ENDBRANCH  19  20
ENDBRANCH  18  19
ENDBRANCH  14  15
ENDBRANCH  12  13
TORSDOF 6
ENDMDL
MODEL 3
REMARK VINA RESULT:      -8.7      6.722      9.752
REMARK  Name = C:\Users\Docking\Desktop\test protocol\1iep_ligandH.pdb
REMARK  8 active torsions:
REMARK  status: ('A' for Active; 'I' for Inactive)
REMARK    1  A    between atoms: _5  and  _11
REMARK    2  A    between atoms: _19  and  _21
REMARK    3  A    between atoms: _22  and  _66
REMARK    4  A    between atoms: _27  and  _30
REMARK    5  A    between atoms: _32  and  _33
REMARK    6  A    between atoms: _38  and  _43
REMARK    7  A    between atoms: _43  and  _46
REMARK    8  A    between atoms: _53  and  _55
REMARK                            x       y       z     vdW  Elec       q    Type
REMARK                         _______ _______ _______ _____ _____    ______ ____
ROOT
ATOM     10  C   UNL     1      40.161  26.783   1.631  0.00  0.00    +0.038 A 
ATOM     11  C   UNL     1      40.077  25.575   0.893  0.00  0.00    +0.047 A 
ATOM     12  C   UNL     1      39.041  24.593   1.171  0.00  0.00    +0.035 A 
ATOM     32  C   UNL     1      38.104  24.875   2.208  0.00  0.00    +0.024 A 
ATOM     33  C   UNL     1      38.175  26.097   2.969  0.00  0.00    +0.007 A 
ATOM     34  C   UNL     1      39.197  27.069   2.701  0.00  0.00    -0.029 A 
ATOM     35  C   UNL     1      39.229  28.359   3.553  0.00  0.00    +0.045 C 
ENDROOT
BRANCH  10   9
ATOM      4  C   UNL     1      44.445  28.785   2.455  0.00  0.00    +0.077 A 
ATOM      5  C   UNL     1      44.667  27.973   3.617  0.00  0.00    +0.048 A 
ATOM      6  C   UNL     1      43.651  27.057   3.972  0.00  0.00    +0.116 A 
ATOM      7  N   UNL     1      42.503  26.969   3.215  0.00  0.00    -0.223 NA
ATOM      8  C   UNL     1      42.320  27.768   2.102  0.00  0.00    +0.220 A 
ATOM      9  N   UNL     1      41.176  27.691   1.322  0.00  0.00    -0.283 N 
ATOM     36  H   UNL     1      41.076  28.303   0.513  0.00  0.00    +0.155 HD
ATOM     37  N   UNL     1      43.274  28.652   1.742  0.00  0.00    -0.214 NA
BRANCH   4   3
ATOM      1  C   UNL     1      46.020  31.905   0.699  0.00  0.00    +0.020 A 
ATOM      2  C   UNL     1      45.032  30.958   1.162  0.00  0.00    +0.013 A 
ATOM      3  C   UNL     1      45.426  29.797   1.950  0.00  0.00    +0.019 A 
ATOM     38  C   UNL     1      46.838  29.623   2.256  0.00  0.00    +0.120 A 
ATOM     39  N   UNL     1      47.767  30.551   1.795  0.00  0.00    -0.263 NA
ATOM     40  C   UNL     1      47.399  31.671   1.034  0.00  0.00    +0.111 A 
ENDBRANCH   4   3
ENDBRANCH  10   9
BRANCH  12  13
ATOM     13  N   UNL     1      38.911  23.345   0.460  0.00  0.00    -0.281 N 
ATOM     14  C   UNL     1      38.728  23.155  -0.900  0.00  0.00    +0.248 C 
ATOM     30  O   UNL     1      38.433  24.042  -1.688  0.00  0.00    -0.270 OA
ATOM     31  H   UNL     1      38.960  22.500   1.028  0.00  0.00    +0.155 HD
BRANCH  14  15
ATOM     15  C   UNL     1      38.881  21.780  -1.464  0.00  0.00    +0.037 A 
ATOM     16  C   UNL     1      37.716  21.000  -1.890  0.00  0.00    +0.013 A 
ATOM     17  C   UNL     1      37.890  19.668  -2.415  0.00  0.00    +0.005 A 
ATOM     18  C   UNL     1      39.236  19.109  -2.517  0.00  0.00    -0.033 A 
ATOM     28  C   UNL     1      40.374  19.907  -2.092  0.00  0.00    +0.005 A 
ATOM     29  C   UNL     1      40.207  21.212  -1.576  0.00  0.00    +0.013 A 
BRANCH  18  19
ATOM     19  C   UNL     1      39.514  17.689  -3.045  0.00  0.00    +0.119 C 
BRANCH  19  20
ATOM     20  N   UNL     1      39.935  17.561  -4.472  0.00  0.00    -0.302 NA
ATOM     21  C   UNL     1      41.426  17.236  -4.604  0.00  0.00    +0.066 C 
ATOM     22  C   UNL     1      41.845  17.083  -6.102  0.00  0.00    -0.064 C 
ATOM     23  N   UNL     1      41.501  18.367  -6.859  0.00  0.00    +0.379 N 
ATOM     24  C   UNL     1      41.947  18.248  -8.255  0.00  0.00    -0.096 C 
ATOM     25  H   UNL     1      42.076  19.199  -6.390  0.00  0.00    -0.082 HD
ATOM     26  C   UNL     1      40.021  18.699  -6.731  0.00  0.00    -0.064 C 
ATOM     27  C   UNL     1      39.609  18.820  -5.237  0.00  0.00    +0.066 C 
ENDBRANCH  19  20
ENDBRANCH  18  19
ENDBRANCH  14  15
ENDBRANCH  12  13
TORSDOF 6
ENDMDL
MODEL 4
REMARK VINA RESULT:      -8.7      6.960      9.803
REMARK  Name = C:\Users\Docking\Desktop\test protocol\1iep_ligandH.pdb
REMARK  8 active torsions:
REMARK  status: ('A' for Active; 'I' for Inactive)
REMARK    1  A    between atoms: _5  and  _11
REMARK    2  A    between atoms: _19  and  _21
REMARK    3  A    between atoms: _22  and  _66
REMARK    4  A    between atoms: _27  and  _30
REMARK    5  A    between atoms: _32  and  _33
REMARK    6  A    between atoms: _38  and  _43
REMARK    7  A    between atoms: _43  and  _46
REMARK    8  A    between atoms: _53  and  _55
REMARK                            x       y       z     vdW  Elec       q    Type
REMARK                         _______ _______ _______ _____ _____    ______ ____
ROOT
ATOM     10  C   UNL     1      42.163  26.316   3.931  0.00  0.00    +0.038 A 
ATOM     11  C   UNL     1      41.096  26.025   3.043  0.00  0.00    +0.047 A 
ATOM     12  C   UNL     1      39.741  26.471   3.324  0.00  0.00    +0.035 A 
ATOM     32  C   UNL     1      39.508  27.214   4.518  0.00  0.00    +0.024 A 
ATOM     33  C   UNL     1      40.580  27.517   5.432  0.00  0.00    +0.007 A 
ATOM     34  C   UNL     1      41.919  27.078   5.162  0.00  0.00    -0.029 A 
ATOM     35  C   UNL     1      43.029  27.427   6.181  0.00  0.00    +0.045 C 
ENDROOT
BRANCH  10   9
ATOM      4  C   UNL     1      45.509  22.881   3.720  0.00  0.00    +0.077 A 
ATOM      5  C   UNL     1      44.637  21.913   4.322  0.00  0.00    +0.048 A 
ATOM      6  C   UNL     1      43.339  22.341   4.677  0.00  0.00    +0.116 A 
ATOM      7  N   UNL     1      42.951  23.643   4.444  0.00  0.00    -0.223 NA
ATOM      8  C   UNL     1      43.817  24.552   3.863  0.00  0.00    +0.220 A 
ATOM      9  N   UNL     1      43.445  25.863   3.612  0.00  0.00    -0.283 N 
ATOM     36  H   UNL     1      44.116  26.505   3.189  0.00  0.00    +0.155 HD
ATOM     37  N   UNL     1      45.063  24.167   3.516  0.00  0.00    -0.214 NA
BRANCH   4   3
ATOM      1  C   UNL     1      49.398  22.467   3.684  0.00  0.00    +0.020 A 
ATOM      2  C   UNL     1      48.066  22.774   4.152  0.00  0.00    +0.013 A 
ATOM      3  C   UNL     1      46.910  22.580   3.286  0.00  0.00    +0.019 A 
ATOM     38  C   UNL     1      47.137  22.068   1.943  0.00  0.00    +0.120 A 
ATOM     39  N   UNL     1      48.432  21.783   1.520  0.00  0.00    -0.263 NA
ATOM     40  C   UNL     1      49.552  21.968   2.343  0.00  0.00    +0.111 A 
ENDBRANCH   4   3
ENDBRANCH  10   9
BRANCH  12  13
ATOM     13  N   UNL     1      38.616  26.198   2.464  0.00  0.00    -0.281 N 
ATOM     14  C   UNL     1      38.588  25.416   1.321  0.00  0.00    +0.248 C 
ATOM     30  O   UNL     1      39.581  25.002   0.742  0.00  0.00    -0.270 OA
ATOM     31  H   UNL     1      37.733  26.635   2.730  0.00  0.00    +0.155 HD
BRANCH  14  15
ATOM     15  C   UNL     1      37.265  25.054   0.726  0.00  0.00    +0.037 A 
ATOM     16  C   UNL     1      37.173  24.171  -0.440  0.00  0.00    +0.013 A 
ATOM     17  C   UNL     1      35.885  23.851  -1.004  0.00  0.00    +0.005 A 
ATOM     18  C   UNL     1      34.679  24.414  -0.401  0.00  0.00    -0.033 A 
ATOM     28  C   UNL     1      34.800  25.282   0.759  0.00  0.00    +0.005 A 
ATOM     29  C   UNL     1      36.060  25.599   1.314  0.00  0.00    +0.013 A 
BRANCH  18  19
ATOM     19  C   UNL     1      33.266  24.143  -0.949  0.00  0.00    +0.119 C 
BRANCH  19  20
ATOM     20  N   UNL     1      32.480  23.049  -0.305  0.00  0.00    -0.302 NA
ATOM     21  C   UNL     1      33.124  21.676  -0.519  0.00  0.00    +0.066 C 
ATOM     22  C   UNL     1      32.302  20.546   0.181  0.00  0.00    -0.064 C 
ATOM     23  N   UNL     1      30.867  20.559  -0.350  0.00  0.00    +0.379 N 
ATOM     24  C   UNL     1      30.107  19.461   0.263  0.00  0.00    -0.096 C 
ATOM     25  H   UNL     1      30.911  20.369  -1.447  0.00  0.00    -0.082 HD
ATOM     26  C   UNL     1      30.220  21.921  -0.143  0.00  0.00    -0.064 C 
ATOM     27  C   UNL     1      31.061  23.041  -0.817  0.00  0.00    +0.066 C 
ENDBRANCH  19  20
ENDBRANCH  18  19
ENDBRANCH  14  15
ENDBRANCH  12  13
TORSDOF 6
ENDMDL
MODEL 5
REMARK VINA RESULT:      -8.5     21.504     25.913
REMARK  Name = C:\Users\Docking\Desktop\test protocol\1iep_ligandH.pdb
REMARK  8 active torsions:
REMARK  status: ('A' for Active; 'I' for Inactive)
REMARK    1  A    between atoms: _5  and  _11
REMARK    2  A    between atoms: _19  and  _21
REMARK    3  A    between atoms: _22  and  _66
REMARK    4  A    between atoms: _27  and  _30
REMARK    5  A    between atoms: _32  and  _33
REMARK    6  A    between atoms: _38  and  _43
REMARK    7  A    between atoms: _43  and  _46
REMARK    8  A    between atoms: _53  and  _55
REMARK                            x       y       z     vdW  Elec       q    Type
REMARK                         _______ _______ _______ _____ _____    ______ ____
ROOT
ATOM     10  C   UNL     1      26.492  26.721  13.958  0.00  0.00    +0.038 A 
ATOM     11  C   UNL     1      25.803  27.839  14.492  0.00  0.00    +0.047 A 
ATOM     12  C   UNL     1      26.072  28.315  15.840  0.00  0.00    +0.035 A 
ATOM     32  C   UNL     1      27.052  27.629  16.616  0.00  0.00    +0.024 A 
ATOM     33  C   UNL     1      27.761  26.490  16.088  0.00  0.00    +0.007 A 
ATOM     34  C   UNL     1      27.498  26.015  14.760  0.00  0.00    -0.029 A 
ATOM     35  C   UNL     1      28.283  24.784  14.249  0.00  0.00    +0.045 C 
ENDROOT
BRANCH  10   9
ATOM      4  C   UNL     1      26.490  27.377   9.203  0.00  0.00    +0.077 A 
ATOM      5  C   UNL     1      27.111  28.664   9.321  0.00  0.00    +0.048 A 
ATOM      6  C   UNL     1      27.408  29.125  10.623  0.00  0.00    +0.116 A 
ATOM      7  N   UNL     1      27.103  28.347  11.719  0.00  0.00    -0.223 NA
ATOM      8  C   UNL     1      26.502  27.110  11.570  0.00  0.00    +0.220 A 
ATOM      9  N   UNL     1      26.193  26.307  12.657  0.00  0.00    -0.283 N 
ATOM     36  H   UNL     1      25.744  25.405  12.506  0.00  0.00    +0.155 HD
ATOM     37  N   UNL     1      26.207  26.649  10.337  0.00  0.00    -0.214 NA
BRANCH   4   3
ATOM      1  C   UNL     1      26.011  26.736   5.374  0.00  0.00    +0.020 A 
ATOM      2  C   UNL     1      26.391  27.382   6.609  0.00  0.00    +0.013 A 
ATOM      3  C   UNL     1      26.117  26.752   7.894  0.00  0.00    +0.019 A 
ATOM     38  C   UNL     1      25.453  25.457   7.895  0.00  0.00    +0.120 A 
ATOM     39  N   UNL     1      25.097  24.860   6.690  0.00  0.00    -0.263 NA
ATOM     40  C   UNL     1      25.354  25.457   5.447  0.00  0.00    +0.111 A 
ENDBRANCH   4   3
ENDBRANCH  10   9
BRANCH  12  13
ATOM     13  N   UNL     1      25.398  29.440  16.440  0.00  0.00    -0.281 N 
ATOM     14  C   UNL     1      24.084  29.515  16.871  0.00  0.00    +0.248 C 
ATOM     30  O   UNL     1      23.223  28.688  16.609  0.00  0.00    -0.270 OA
ATOM     31  H   UNL     1      25.959  30.284  16.561  0.00  0.00    +0.155 HD
BRANCH  14  15
ATOM     15  C   UNL     1      23.661  30.684  17.700  0.00  0.00    +0.037 A 
ATOM     16  C   UNL     1      24.571  31.295  18.672  0.00  0.00    +0.013 A 
ATOM     17  C   UNL     1      24.133  32.411  19.472  0.00  0.00    +0.005 A 
ATOM     18  C   UNL     1      22.776  32.926  19.300  0.00  0.00    -0.033 A 
ATOM     28  C   UNL     1      21.896  32.304  18.325  0.00  0.00    +0.005 A 
ATOM     29  C   UNL     1      22.322  31.209  17.540  0.00  0.00    +0.013 A 
BRANCH  18  19
ATOM     19  C   UNL     1      22.216  34.100  20.125  0.00  0.00    +0.119 C 
BRANCH  19  20
ATOM     20  N   UNL     1      22.903  35.419  19.990  0.00  0.00    -0.302 NA
ATOM     21  C   UNL     1      23.043  35.847  18.527  0.00  0.00    +0.066 C 
ATOM     22  C   UNL     1      23.743  37.239  18.405  0.00  0.00    -0.064 C 
ATOM     23  N   UNL     1      25.112  37.180  19.085  0.00  0.00    +0.379 N 
ATOM     24  C   UNL     1      25.797  38.470  18.922  0.00  0.00    -0.096 C 
ATOM     25  H   UNL     1      25.718  36.406  18.558  0.00  0.00    -0.082 HD
ATOM     26  C   UNL     1      24.982  36.753  20.540  0.00  0.00    -0.064 C 
ATOM     27  C   UNL     1      24.259  35.381  20.651  0.00  0.00    +0.066 C 
ENDBRANCH  19  20
ENDBRANCH  18  19
ENDBRANCH  14  15
ENDBRANCH  12  13
TORSDOF 6
ENDMDL
