MODEL 1
REMARK VINA RESULT:      -8.6      0.000      0.000
REMARK  Name = C:\Users\Docking\Desktop\test protocol\1iep_ligandH.pdb
REMARK  8 active torsions:
REMARK  status: ('A' for Active; 'I' for Inactive)
REMARK    1  A    between atoms: _5  and  _11
REMARK    2  A    between atoms: _19  and  _21
REMARK    3  A    between atoms: _22  and  _66
REMARK    4  A    between atoms: _27  and  _30
REMARK    5  A    between atoms: _32  and  _33
REMARK    6  A    between atoms: _38  and  _43
REMARK    7  A    between atoms: _43  and  _46
REMARK    8  A    between atoms: _53  and  _55
REMARK                            x       y       z     vdW  Elec       q    Type
REMARK                         _______ _______ _______ _____ _____    ______ ____
ROOT
ATOM     10  C   UNL     1      54.077  17.650  27.391  0.00  0.00    +0.038 A 
ATOM     11  C   UNL     1      53.470  17.030  28.513  0.00  0.00    +0.047 A 
ATOM     12  C   UNL     1      54.227  16.147  29.386  0.00  0.00    +0.035 A 
ATOM     32  C   UNL     1      55.602  15.919  29.089  0.00  0.00    +0.024 A 
ATOM     33  C   UNL     1      56.235  16.540  27.952  0.00  0.00    +0.007 A 
ATOM     34  C   UNL     1      55.493  17.410  27.086  0.00  0.00    -0.029 A 
ATOM     35  C   UNL     1      56.222  18.044  25.878  0.00  0.00    +0.045 C 
ENDROOT
BRANCH  10   9
ATOM      4  C   UNL     1      51.206  18.437  23.626  0.00  0.00    +0.077 A 
ATOM      5  C   UNL     1      51.276  17.065  23.212  0.00  0.00    +0.048 A 
ATOM      6  C   UNL     1      52.067  16.191  23.990  0.00  0.00    +0.116 A 
ATOM      7  N   UNL     1      52.734  16.664  25.099  0.00  0.00    -0.223 NA
ATOM      8  C   UNL     1      52.647  17.993  25.471  0.00  0.00    +0.220 A 
ATOM      9  N   UNL     1      53.303  18.489  26.587  0.00  0.00    -0.283 N 
ATOM     36  H   UNL     1      53.220  19.478  26.823  0.00  0.00    +0.155 HD
ATOM     37  N   UNL     1      51.899  18.848  24.743  0.00  0.00    -0.214 NA
BRANCH   4   3
ATOM      1  C   UNL     1      49.169  20.354  20.893  0.00  0.00    +0.020 A 
ATOM      2  C   UNL     1      49.936  19.315  21.540  0.00  0.00    +0.013 A 
ATOM      3  C   UNL     1      50.409  19.481  22.908  0.00  0.00    +0.019 A 
ATOM     38  C   UNL     1      50.086  20.720  23.600  0.00  0.00    +0.120 A 
ATOM     39  N   UNL     1      49.347  21.704  22.950  0.00  0.00    -0.263 NA
ATOM     40  C   UNL     1      48.888  21.556  21.633  0.00  0.00    +0.111 A 
ENDBRANCH   4   3
ENDBRANCH  10   9
BRANCH  12  13
ATOM     13  N   UNL     1      53.662  15.483  30.535  0.00  0.00    -0.281 N 
ATOM     14  C   UNL     1      53.218  16.055  31.716  0.00  0.00    +0.248 C 
ATOM     30  O   UNL     1      53.437  17.210  32.050  0.00  0.00    -0.270 OA
ATOM     31  H   UNL     1      53.580  14.468  30.470  0.00  0.00    +0.155 HD
BRANCH  14  15
ATOM     15  C   UNL     1      52.428  15.219  32.670  0.00  0.00    +0.037 A 
ATOM     16  C   UNL     1      51.431  14.257  32.193  0.00  0.00    +0.013 A 
ATOM     17  C   UNL     1      50.671  13.476  33.136  0.00  0.00    +0.005 A 
ATOM     18  C   UNL     1      50.906  13.652  34.567  0.00  0.00    -0.033 A 
ATOM     28  C   UNL     1      51.905  14.610  35.013  0.00  0.00    +0.005 A 
ATOM     29  C   UNL     1      52.651  15.378  34.092  0.00  0.00    +0.013 A 
BRANCH  18  19
ATOM     19  C   UNL     1      50.126  12.876  35.645  0.00  0.00    +0.119 C 
BRANCH  19  20
ATOM     20  N   UNL     1      49.201  13.660  36.516  0.00  0.00    -0.302 NA
ATOM     21  C   UNL     1      49.178  13.129  37.953  0.00  0.00    +0.066 C 
ATOM     22  C   UNL     1      48.222  13.975  38.856  0.00  0.00    -0.064 C 
ATOM     23  N   UNL     1      46.816  13.967  38.253  0.00  0.00    +0.379 N 
ATOM     24  C   UNL     1      45.902  14.712  39.131  0.00  0.00    -0.096 C 
ATOM     25  H   UNL     1      46.467  12.908  38.222  0.00  0.00    -0.082 HD
ATOM     26  C   UNL     1      46.830  14.490  36.824  0.00  0.00    -0.064 C 
ATOM     27  C   UNL     1      47.805  13.662  35.942  0.00  0.00    +0.066 C 
ENDBRANCH  19  20
ENDBRANCH  18  19
ENDBRANCH  14  15
ENDBRANCH  12  13
TORSDOF 6
ENDMDL
MODEL 2
REMARK VINA RESULT:      -8.6      4.836     12.573
REMARK  Name = C:\Users\Docking\Desktop\test protocol\1iep_ligandH.pdb
REMARK  8 active torsions:
REMARK  status: ('A' for Active; 'I' for Inactive)
REMARK    1  A    between atoms: _5  and  _11
REMARK    2  A    between atoms: _19  and  _21
REMARK    3  A    between atoms: _22  and  _66
REMARK    4  A    between atoms: _27  and  _30
REMARK    5  A    between atoms: _32  and  _33
REMARK    6  A    between atoms: _38  and  _43
REMARK    7  A    between atoms: _43  and  _46
REMARK    8  A    between atoms: _53  and  _55
REMARK                            x       y       z     vdW  Elec       q    Type
REMARK                         _______ _______ _______ _____ _____    ______ ____
ROOT
ATOM     10  C   UNL     1      52.504  13.807  32.645  0.00  0.00    +0.038 A 
ATOM     11  C   UNL     1      53.047  14.588  31.593  0.00  0.00    +0.047 A 
ATOM     12  C   UNL     1      53.078  16.040  31.674  0.00  0.00    +0.035 A 
ATOM     32  C   UNL     1      52.550  16.664  32.842  0.00  0.00    +0.024 A 
ATOM     33  C   UNL     1      51.994  15.884  33.920  0.00  0.00    +0.007 A 
ATOM     34  C   UNL     1      51.958  14.452  33.845  0.00  0.00    -0.029 A 
ATOM     35  C   UNL     1      51.344  13.667  35.027  0.00  0.00    +0.045 C 
ENDROOT
BRANCH  10   9
ATOM      4  C   UNL     1      54.649   9.649  31.571  0.00  0.00    +0.077 A 
ATOM      5  C   UNL     1      55.874  10.305  31.213  0.00  0.00    +0.048 A 
ATOM      6  C   UNL     1      55.908  11.714  31.313  0.00  0.00    +0.116 A 
ATOM      7  N   UNL     1      54.795  12.405  31.740  0.00  0.00    -0.223 NA
ATOM      8  C   UNL     1      53.629  11.742  32.075  0.00  0.00    +0.220 A 
ATOM      9  N   UNL     1      52.500  12.416  32.515  0.00  0.00    -0.283 N 
ATOM     36  H   UNL     1      51.657  11.891  32.746  0.00  0.00    +0.155 HD
ATOM     37  N   UNL     1      53.571  10.397  31.988  0.00  0.00    -0.214 NA
BRANCH   4   3
ATOM      1  C   UNL     1      55.094   5.854  30.736  0.00  0.00    +0.020 A 
ATOM      2  C   UNL     1      55.322   7.280  30.750  0.00  0.00    +0.013 A 
ATOM      3  C   UNL     1      54.458   8.165  31.522  0.00  0.00    +0.019 A 
ATOM     38  C   UNL     1      53.365   7.570  32.276  0.00  0.00    +0.120 A 
ATOM     39  N   UNL     1      53.169   6.193  32.243  0.00  0.00    -0.263 NA
ATOM     40  C   UNL     1      53.993   5.331  31.502  0.00  0.00    +0.111 A 
ENDBRANCH   4   3
ENDBRANCH  10   9
BRANCH  12  13
ATOM     13  N   UNL     1      53.609  16.887  30.634  0.00  0.00    -0.281 N 
ATOM     14  C   UNL     1      53.404  16.787  29.268  0.00  0.00    +0.248 C 
ATOM     30  O   UNL     1      52.902  15.822  28.712  0.00  0.00    -0.270 OA
ATOM     31  H   UNL     1      54.209  17.652  30.943  0.00  0.00    +0.155 HD
BRANCH  14  15
ATOM     15  C   UNL     1      53.832  17.919  28.389  0.00  0.00    +0.037 A 
ATOM     16  C   UNL     1      53.256  19.257  28.540  0.00  0.00    +0.013 A 
ATOM     17  C   UNL     1      53.674  20.327  27.668  0.00  0.00    +0.005 A 
ATOM     18  C   UNL     1      54.676  20.061  26.638  0.00  0.00    -0.033 A 
ATOM     28  C   UNL     1      55.235  18.725  26.515  0.00  0.00    +0.005 A 
ATOM     29  C   UNL     1      54.827  17.674  27.366  0.00  0.00    +0.013 A 
BRANCH  18  19
ATOM     19  C   UNL     1      55.166  21.137  25.651  0.00  0.00    +0.119 C 
BRANCH  19  20
ATOM     20  N   UNL     1      56.423  21.864  26.000  0.00  0.00    -0.302 NA
ATOM     21  C   UNL     1      56.165  23.343  26.303  0.00  0.00    +0.066 C 
ATOM     22  C   UNL     1      57.487  24.083  26.688  0.00  0.00    -0.064 C 
ATOM     23  N   UNL     1      58.502  23.932  25.553  0.00  0.00    +0.379 N 
ATOM     24  C   UNL     1      59.726  24.675  25.887  0.00  0.00    -0.096 C 
ATOM     25  H   UNL     1      58.061  24.397  24.641  0.00  0.00    -0.082 HD
ATOM     26  C   UNL     1      58.762  22.464  25.243  0.00  0.00    -0.064 C 
ATOM     27  C   UNL     1      57.437  21.731  24.891  0.00  0.00    +0.066 C 
ENDBRANCH  19  20
ENDBRANCH  18  19
ENDBRANCH  14  15
ENDBRANCH  12  13
TORSDOF 6
ENDMDL
MODEL 3
REMARK VINA RESULT:      -8.5      9.292     17.430
REMARK  Name = C:\Users\Docking\Desktop\test protocol\1iep_ligandH.pdb
REMARK  8 active torsions:
REMARK  status: ('A' for Active; 'I' for Inactive)
REMARK    1  A    between atoms: _5  and  _11
REMARK    2  A    between atoms: _19  and  _21
REMARK    3  A    between atoms: _22  and  _66
REMARK    4  A    between atoms: _27  and  _30
REMARK    5  A    between atoms: _32  and  _33
REMARK    6  A    between atoms: _38  and  _43
REMARK    7  A    between atoms: _43  and  _46
REMARK    8  A    between atoms: _53  and  _55
REMARK                            x       y       z     vdW  Elec       q    Type
REMARK                         _______ _______ _______ _____ _____    ______ ____
ROOT
ATOM     10  C   UNL     1      46.266  20.507  42.789  0.00  0.00    +0.038 A 
ATOM     11  C   UNL     1      46.151  20.837  41.415  0.00  0.00    +0.047 A 
ATOM     12  C   UNL     1      47.127  20.369  40.443  0.00  0.00    +0.035 A 
ATOM     32  C   UNL     1      48.208  19.563  40.907  0.00  0.00    +0.024 A 
ATOM     33  C   UNL     1      48.341  19.218  42.300  0.00  0.00    +0.007 A 
ATOM     34  C   UNL     1      47.382  19.680  43.263  0.00  0.00    -0.029 A 
ATOM     35  C   UNL     1      47.579  19.285  44.746  0.00  0.00    +0.045 C 
ENDROOT
BRANCH  10   9
ATOM      4  C   UNL     1      44.050  24.070  45.119  0.00  0.00    +0.077 A 
ATOM      5  C   UNL     1      44.907  25.063  44.537  0.00  0.00    +0.048 A 
ATOM      6  C   UNL     1      45.910  24.614  43.649  0.00  0.00    +0.116 A 
ATOM      7  N   UNL     1      46.037  23.271  43.370  0.00  0.00    -0.223 NA
ATOM      8  C   UNL     1      45.195  22.339  43.950  0.00  0.00    +0.220 A 
ATOM      9  N   UNL     1      45.300  20.984  43.678  0.00  0.00    -0.283 N 
ATOM     36  H   UNL     1      44.665  20.328  44.132  0.00  0.00    +0.155 HD
ATOM     37  N   UNL     1      44.231  22.742  44.803  0.00  0.00    -0.214 NA
BRANCH   4   3
ATOM      1  C   UNL     1      41.728  25.931  47.658  0.00  0.00    +0.020 A 
ATOM      2  C   UNL     1      42.818  25.675  46.745  0.00  0.00    +0.013 A 
ATOM      3  C   UNL     1      42.941  24.387  46.074  0.00  0.00    +0.019 A 
ATOM     38  C   UNL     1      41.937  23.371  46.351  0.00  0.00    +0.120 A 
ATOM     39  N   UNL     1      40.899  23.646  47.236  0.00  0.00    -0.263 NA
ATOM     40  C   UNL     1      40.771  24.881  47.888  0.00  0.00    +0.111 A 
ENDBRANCH   4   3
ENDBRANCH  10   9
BRANCH  12  13
ATOM     13  N   UNL     1      47.066  20.679  39.037  0.00  0.00    -0.281 N 
ATOM     14  C   UNL     1      46.664  19.853  37.999  0.00  0.00    +0.248 C 
ATOM     30  O   UNL     1      46.497  18.647  38.101  0.00  0.00    -0.270 OA
ATOM     31  H   UNL     1      47.355  21.621  38.773  0.00  0.00    +0.155 HD
BRANCH  14  15
ATOM     15  C   UNL     1      46.427  20.452  36.651  0.00  0.00    +0.037 A 
ATOM     16  C   UNL     1      45.360  19.957  35.776  0.00  0.00    +0.013 A 
ATOM     17  C   UNL     1      45.164  20.541  34.473  0.00  0.00    +0.005 A 
ATOM     18  C   UNL     1      46.036  21.629  34.037  0.00  0.00    -0.033 A 
ATOM     28  C   UNL     1      47.083  22.104  34.927  0.00  0.00    +0.005 A 
ATOM     29  C   UNL     1      47.279  21.533  36.204  0.00  0.00    +0.013 A 
BRANCH  18  19
ATOM     19  C   UNL     1      45.912  22.297  32.655  0.00  0.00    +0.119 C 
BRANCH  19  20
ATOM     20  N   UNL     1      45.425  21.449  31.527  0.00  0.00    -0.302 NA
ATOM     21  C   UNL     1      46.453  21.352  30.395  0.00  0.00    +0.066 C 
ATOM     22  C   UNL     1      45.936  20.443  29.233  0.00  0.00    -0.064 C 
ATOM     23  N   UNL     1      44.607  20.992  28.712  0.00  0.00    +0.379 N 
ATOM     24  C   UNL     1      44.147  20.173  27.581  0.00  0.00    -0.096 C 
ATOM     25  H   UNL     1      44.794  22.023  28.330  0.00  0.00    -0.082 HD
ATOM     26  C   UNL     1      43.580  21.094  29.831  0.00  0.00    -0.064 C 
ATOM     27  C   UNL     1      44.115  21.976  30.994  0.00  0.00    +0.066 C 
ENDBRANCH  19  20
ENDBRANCH  18  19
ENDBRANCH  14  15
ENDBRANCH  12  13
TORSDOF 6
ENDMDL
MODEL 4
REMARK VINA RESULT:      -8.4      3.370     12.394
REMARK  Name = C:\Users\Docking\Desktop\test protocol\1iep_ligandH.pdb
REMARK  8 active torsions:
REMARK  status: ('A' for Active; 'I' for Inactive)
REMARK    1  A    between atoms: _5  and  _11
REMARK    2  A    between atoms: _19  and  _21
REMARK    3  A    between atoms: _22  and  _66
REMARK    4  A    between atoms: _27  and  _30
REMARK    5  A    between atoms: _32  and  _33
REMARK    6  A    between atoms: _38  and  _43
REMARK    7  A    between atoms: _43  and  _46
REMARK    8  A    between atoms: _53  and  _55
REMARK                            x       y       z     vdW  Elec       q    Type
REMARK                         _______ _______ _______ _____ _____    ______ ____
ROOT
ATOM     10  C   UNL     1      52.474  13.204  30.770  0.00  0.00    +0.038 A 
ATOM     11  C   UNL     1      52.413  14.436  30.070  0.00  0.00    +0.047 A 
ATOM     12  C   UNL     1      53.291  14.704  28.941  0.00  0.00    +0.035 A 
ATOM     32  C   UNL     1      54.217  13.694  28.550  0.00  0.00    +0.024 A 
ATOM     33  C   UNL     1      54.293  12.436  29.251  0.00  0.00    +0.007 A 
ATOM     34  C   UNL     1      53.432  12.167  30.367  0.00  0.00    -0.029 A 
ATOM     35  C   UNL     1      53.562  10.803  31.085  0.00  0.00    +0.045 C 
ENDROOT
BRANCH  10   9
ATOM      4  C   UNL     1      50.904  14.218  35.191  0.00  0.00    +0.077 A 
ATOM      5  C   UNL     1      51.910  15.222  35.382  0.00  0.00    +0.048 A 
ATOM      6  C   UNL     1      52.817  15.442  34.321  0.00  0.00    +0.116 A 
ATOM      7  N   UNL     1      52.716  14.707  33.160  0.00  0.00    -0.223 NA
ATOM      8  C   UNL     1      51.734  13.745  33.009  0.00  0.00    +0.220 A 
ATOM      9  N   UNL     1      51.608  12.999  31.847  0.00  0.00    -0.283 N 
ATOM     36  H   UNL     1      50.876  12.293  31.777  0.00  0.00    +0.155 HD
ATOM     37  N   UNL     1      50.857  13.515  34.008  0.00  0.00    -0.214 NA
BRANCH   4   3
ATOM      1  C   UNL     1      47.495  13.801  37.064  0.00  0.00    +0.020 A 
ATOM      2  C   UNL     1      48.452  14.155  36.041  0.00  0.00    +0.013 A 
ATOM      3  C   UNL     1      49.871  13.872  36.218  0.00  0.00    +0.019 A 
ATOM     38  C   UNL     1      50.292  13.224  37.450  0.00  0.00    +0.120 A 
ATOM     39  N   UNL     1      49.348  12.895  38.419  0.00  0.00    -0.263 NA
ATOM     40  C   UNL     1      47.980  13.164  38.260  0.00  0.00    +0.111 A 
ENDBRANCH   4   3
ENDBRANCH  10   9
BRANCH  12  13
ATOM     13  N   UNL     1      53.280  15.939  28.198  0.00  0.00    -0.281 N 
ATOM     14  C   UNL     1      53.306  17.233  28.694  0.00  0.00    +0.248 C 
ATOM     30  O   UNL     1      53.126  17.527  29.866  0.00  0.00    -0.270 OA
ATOM     31  H   UNL     1      53.249  15.850  27.182  0.00  0.00    +0.155 HD
BRANCH  14  15
ATOM     15  C   UNL     1      53.553  18.364  27.749  0.00  0.00    +0.037 A 
ATOM     16  C   UNL     1      54.121  18.132  26.418  0.00  0.00    +0.013 A 
ATOM     17  C   UNL     1      54.365  19.243  25.533  0.00  0.00    +0.005 A 
ATOM     18  C   UNL     1      54.039  20.597  25.975  0.00  0.00    -0.033 A 
ATOM     28  C   UNL     1      53.471  20.797  27.298  0.00  0.00    +0.005 A 
ATOM     29  C   UNL     1      53.232  19.711  28.169  0.00  0.00    +0.013 A 
BRANCH  18  19
ATOM     19  C   UNL     1      54.285  21.843  25.104  0.00  0.00    +0.119 C 
BRANCH  19  20
ATOM     20  N   UNL     1      55.688  22.345  25.011  0.00  0.00    -0.302 NA
ATOM     21  C   UNL     1      56.365  22.420  26.382  0.00  0.00    +0.066 C 
ATOM     22  C   UNL     1      57.840  22.925  26.263  0.00  0.00    -0.064 C 
ATOM     23  N   UNL     1      57.853  24.293  25.578  0.00  0.00    +0.379 N 
ATOM     24  C   UNL     1      59.233  24.797  25.516  0.00  0.00    -0.096 C 
ATOM     25  H   UNL     1      57.264  24.995  26.213  0.00  0.00    -0.082 HD
ATOM     26  C   UNL     1      57.180  24.228  24.214  0.00  0.00    -0.064 C 
ATOM     27  C   UNL     1      55.725  23.697  24.340  0.00  0.00    +0.066 C 
ENDBRANCH  19  20
ENDBRANCH  18  19
ENDBRANCH  14  15
ENDBRANCH  12  13
TORSDOF 6
ENDMDL
MODEL 5
REMARK VINA RESULT:      -8.3      4.654     12.310
REMARK  Name = C:\Users\Docking\Desktop\test protocol\1iep_ligandH.pdb
REMARK  8 active torsions:
REMARK  status: ('A' for Active; 'I' for Inactive)
REMARK    1  A    between atoms: _5  and  _11
REMARK    2  A    between atoms: _19  and  _21
REMARK    3  A    between atoms: _22  and  _66
REMARK    4  A    between atoms: _27  and  _30
REMARK    5  A    between atoms: _32  and  _33
REMARK    6  A    between atoms: _38  and  _43
REMARK    7  A    between atoms: _43  and  _46
REMARK    8  A    between atoms: _53  and  _55
REMARK                            x       y       z     vdW  Elec       q    Type
REMARK                         _______ _______ _______ _____ _____    ______ ____
ROOT
ATOM     10  C   UNL     1      52.618  13.298  32.648  0.00  0.00    +0.038 A 
ATOM     11  C   UNL     1      53.235  14.185  31.729  0.00  0.00    +0.047 A 
ATOM     12  C   UNL     1      52.826  15.577  31.637  0.00  0.00    +0.035 A 
ATOM     32  C   UNL     1      51.787  16.035  32.499  0.00  0.00    +0.024 A 
ATOM     33  C   UNL     1      51.149  15.146  33.438  0.00  0.00    +0.007 A 
ATOM     34  C   UNL     1      51.546  13.771  33.531  0.00  0.00    -0.029 A 
ATOM     35  C   UNL     1      50.822  12.862  34.552  0.00  0.00    +0.045 C 
ENDROOT
BRANCH  10   9
ATOM      4  C   UNL     1      54.012   9.225  30.525  0.00  0.00    +0.077 A 
ATOM      5  C   UNL     1      53.839   9.780  29.213  0.00  0.00    +0.048 A 
ATOM      6  C   UNL     1      53.383  11.114  29.128  0.00  0.00    +0.116 A 
ATOM      7  N   UNL     1      53.123  11.831  30.276  0.00  0.00    -0.223 NA
ATOM      8  C   UNL     1      53.298  11.265  31.526  0.00  0.00    +0.220 A 
ATOM      9  N   UNL     1      53.050  11.970  32.693  0.00  0.00    -0.283 N 
ATOM     36  H   UNL     1      53.185  11.515  33.596  0.00  0.00    +0.155 HD
ATOM     37  N   UNL     1      53.732   9.992  31.633  0.00  0.00    -0.214 NA
BRANCH   4   3
ATOM      1  C   UNL     1      54.116   5.421  31.431  0.00  0.00    +0.020 A 
ATOM      2  C   UNL     1      53.604   6.752  31.199  0.00  0.00    +0.013 A 
ATOM      3  C   UNL     1      54.491   7.829  30.779  0.00  0.00    +0.019 A 
ATOM     38  C   UNL     1      55.902   7.524  30.599  0.00  0.00    +0.120 A 
ATOM     39  N   UNL     1      56.367   6.233  30.831  0.00  0.00    -0.263 NA
ATOM     40  C   UNL     1      55.524   5.189  31.237  0.00  0.00    +0.111 A 
ENDBRANCH   4   3
ENDBRANCH  10   9
BRANCH  12  13
ATOM     13  N   UNL     1      53.410  16.522  30.718  0.00  0.00    -0.281 N 
ATOM     14  C   UNL     1      53.296  16.550  29.337  0.00  0.00    +0.248 C 
ATOM     30  O   UNL     1      52.846  15.635  28.663  0.00  0.00    -0.270 OA
ATOM     31  H   UNL     1      53.977  17.261  31.135  0.00  0.00    +0.155 HD
BRANCH  14  15
ATOM     15  C   UNL     1      53.762  17.762  28.598  0.00  0.00    +0.037 A 
ATOM     16  C   UNL     1      53.068  19.046  28.729  0.00  0.00    +0.013 A 
ATOM     17  C   UNL     1      53.528  20.195  27.992  0.00  0.00    +0.005 A 
ATOM     18  C   UNL     1      54.691  20.067  27.117  0.00  0.00    -0.033 A 
ATOM     28  C   UNL     1      55.364  18.783  27.010  0.00  0.00    +0.005 A 
ATOM     29  C   UNL     1      54.915  17.653  27.730  0.00  0.00    +0.013 A 
BRANCH  18  19
ATOM     19  C   UNL     1      55.239  21.235  26.276  0.00  0.00    +0.119 C 
BRANCH  19  20
ATOM     20  N   UNL     1      54.260  21.996  25.444  0.00  0.00    -0.302 NA
ATOM     21  C   UNL     1      53.736  21.166  24.269  0.00  0.00    +0.066 C 
ATOM     22  C   UNL     1      52.697  21.970  23.422  0.00  0.00    -0.064 C 
ATOM     23  N   UNL     1      53.340  23.265  22.925  0.00  0.00    +0.379 N 
ATOM     24  C   UNL     1      52.384  23.995  22.080  0.00  0.00    -0.096 C 
ATOM     25  H   UNL     1      54.211  22.987  22.287  0.00  0.00    -0.082 HD
ATOM     26  C   UNL     1      53.866  24.096  24.087  0.00  0.00    -0.064 C 
ATOM     27  C   UNL     1      54.876  23.278  24.939  0.00  0.00    +0.066 C 
ENDBRANCH  19  20
ENDBRANCH  18  19
ENDBRANCH  14  15
ENDBRANCH  12  13
TORSDOF 6
ENDMDL
