MODEL 1
REMARK VINA RESULT:      -7.6      0.000      0.000
REMARK  Name = C:\Users\Docking\Desktop\test protocol\1iep_ligandH.pdb
REMARK  8 active torsions:
REMARK  status: ('A' for Active; 'I' for Inactive)
REMARK    1  A    between atoms: _5  and  _11
REMARK    2  A    between atoms: _19  and  _21
REMARK    3  A    between atoms: _22  and  _66
REMARK    4  A    between atoms: _27  and  _30
REMARK    5  A    between atoms: _32  and  _33
REMARK    6  A    between atoms: _38  and  _43
REMARK    7  A    between atoms: _43  and  _46
REMARK    8  A    between atoms: _53  and  _55
REMARK                            x       y       z     vdW  Elec       q    Type
REMARK                         _______ _______ _______ _____ _____    ______ ____
ROOT
ATOM     10  C   UNL     1      30.602  -1.419  99.705  0.00  0.00    +0.038 A 
ATOM     11  C   UNL     1      30.489  -0.102  99.192  0.00  0.00    +0.047 A 
ATOM     12  C   UNL     1      29.763   0.928  99.917  0.00  0.00    +0.035 A 
ATOM     32  C   UNL     1      29.165   0.583 101.165  0.00  0.00    +0.024 A 
ATOM     33  C   UNL     1      29.269  -0.751 101.701  0.00  0.00    +0.007 A 
ATOM     34  C   UNL     1      29.983  -1.773 100.988  0.00  0.00    -0.029 A 
ATOM     35  C   UNL     1      30.056  -3.188 101.608  0.00  0.00    +0.045 C 
ENDROOT
BRANCH  10   9
ATOM      4  C   UNL     1      34.691  -3.540  98.355  0.00  0.00    +0.077 A 
ATOM      5  C   UNL     1      35.483  -2.663  99.168  0.00  0.00    +0.048 A 
ATOM      6  C   UNL     1      34.801  -1.676  99.913  0.00  0.00    +0.116 A 
ATOM      7  N   UNL     1      33.428  -1.581  99.843  0.00  0.00    -0.223 NA
ATOM      8  C   UNL     1      32.693  -2.441  99.047  0.00  0.00    +0.220 A 
ATOM      9  N   UNL     1      31.311  -2.369  98.967  0.00  0.00    -0.283 N 
ATOM     36  H   UNL     1      30.807  -3.018  98.363  0.00  0.00    +0.155 HD
ATOM     37  N   UNL     1      33.322  -3.392  98.325  0.00  0.00    -0.214 NA
BRANCH   4   3
ATOM      1  C   UNL     1      37.017  -6.378  97.001  0.00  0.00    +0.020 A 
ATOM      2  C   UNL     1      36.505  -5.326  97.848  0.00  0.00    +0.013 A 
ATOM      3  C   UNL     1      35.266  -4.636  97.512  0.00  0.00    +0.019 A 
ATOM     38  C   UNL     1      34.563  -5.038  96.303  0.00  0.00    +0.120 A 
ATOM     39  N   UNL     1      35.081  -6.054  95.505  0.00  0.00    -0.263 NA
ATOM     40  C   UNL     1      36.273  -6.724  95.818  0.00  0.00    +0.111 A 
ENDBRANCH   4   3
ENDBRANCH  10   9
BRANCH  12  13
ATOM     13  N   UNL     1      29.608   2.281  99.442  0.00  0.00    -0.281 N 
ATOM     14  C   UNL     1      30.599   3.219  99.205  0.00  0.00    +0.248 C 
ATOM     30  O   UNL     1      31.759   3.106  99.572  0.00  0.00    -0.270 OA
ATOM     31  H   UNL     1      28.651   2.583  99.258  0.00  0.00    +0.155 HD
BRANCH  14  15
ATOM     15  C   UNL     1      30.248   4.470  98.467  0.00  0.00    +0.037 A 
ATOM     16  C   UNL     1      28.962   5.141  98.678  0.00  0.00    +0.013 A 
ATOM     17  C   UNL     1      28.641   6.337  97.940  0.00  0.00    +0.005 A 
ATOM     18  C   UNL     1      29.610   6.872  96.986  0.00  0.00    -0.033 A 
ATOM     28  C   UNL     1      30.879   6.189  96.800  0.00  0.00    +0.005 A 
ATOM     29  C   UNL     1      31.197   5.016  97.521  0.00  0.00    +0.013 A 
BRANCH  18  19
ATOM     19  C   UNL     1      29.343   8.131  96.140  0.00  0.00    +0.119 C 
BRANCH  19  20
ATOM     20  N   UNL     1      27.981   8.738  96.229  0.00  0.00    -0.302 NA
ATOM     21  C   UNL     1      27.156   8.484  94.964  0.00  0.00    +0.066 C 
ATOM     22  C   UNL     1      25.727   9.107  95.083  0.00  0.00    -0.064 C 
ATOM     23  N   UNL     1      25.848  10.607  95.358  0.00  0.00    +0.379 N 
ATOM     24  C   UNL     1      24.507  11.206  95.413  0.00  0.00    -0.096 C 
ATOM     25  H   UNL     1      26.389  11.066  94.498  0.00  0.00    -0.082 HD
ATOM     26  C   UNL     1      26.670  10.869  96.612  0.00  0.00    -0.064 C 
ATOM     27  C   UNL     1      28.078  10.220  96.496  0.00  0.00    +0.066 C 
ENDBRANCH  19  20
ENDBRANCH  18  19
ENDBRANCH  14  15
ENDBRANCH  12  13
TORSDOF 6
ENDMDL
MODEL 2
REMARK VINA RESULT:      -7.4     24.788     29.713
REMARK  Name = C:\Users\Docking\Desktop\test protocol\1iep_ligandH.pdb
REMARK  8 active torsions:
REMARK  status: ('A' for Active; 'I' for Inactive)
REMARK    1  A    between atoms: _5  and  _11
REMARK    2  A    between atoms: _19  and  _21
REMARK    3  A    between atoms: _22  and  _66
REMARK    4  A    between atoms: _27  and  _30
REMARK    5  A    between atoms: _32  and  _33
REMARK    6  A    between atoms: _38  and  _43
REMARK    7  A    between atoms: _43  and  _46
REMARK    8  A    between atoms: _53  and  _55
REMARK                            x       y       z     vdW  Elec       q    Type
REMARK                         _______ _______ _______ _____ _____    ______ ____
ROOT
ATOM     10  C   UNL     1       3.397   9.867  95.135  0.00  0.00    +0.038 A 
ATOM     11  C   UNL     1       4.180   8.699  95.321  0.00  0.00    +0.047 A 
ATOM     12  C   UNL     1       3.700   7.395  94.891  0.00  0.00    +0.035 A 
ATOM     32  C   UNL     1       2.418   7.318  94.273  0.00  0.00    +0.024 A 
ATOM     33  C   UNL     1       1.608   8.494  94.078  0.00  0.00    +0.007 A 
ATOM     34  C   UNL     1       2.076   9.783  94.502  0.00  0.00    -0.029 A 
ATOM     35  C   UNL     1       1.162  11.010  94.274  0.00  0.00    +0.045 C 
ENDROOT
BRANCH  10   9
ATOM      4  C   UNL     1       4.328  13.093  98.565  0.00  0.00    +0.077 A 
ATOM      5  C   UNL     1       3.722  12.278  99.579  0.00  0.00    +0.048 A 
ATOM      6  C   UNL     1       3.177  11.039  99.174  0.00  0.00    +0.116 A 
ATOM      7  N   UNL     1       3.238  10.654  97.853  0.00  0.00    -0.223 NA
ATOM      8  C   UNL     1       3.828  11.465  96.900  0.00  0.00    +0.220 A 
ATOM      9  N   UNL     1       3.908  11.094  95.567  0.00  0.00    -0.283 N 
ATOM     36  H   UNL     1       4.344  11.723  94.894  0.00  0.00    +0.155 HD
ATOM     37  N   UNL     1       4.355  12.653  97.261  0.00  0.00    -0.214 NA
BRANCH   4   3
ATOM      1  C   UNL     1       6.057  16.112 100.354  0.00  0.00    +0.020 A 
ATOM      2  C   UNL     1       5.463  14.812 100.145  0.00  0.00    +0.013 A 
ATOM      3  C   UNL     1       4.951  14.427  98.836  0.00  0.00    +0.019 A 
ATOM     38  C   UNL     1       5.057  15.390  97.750  0.00  0.00    +0.120 A 
ATOM     39  N   UNL     1       5.631  16.636  97.980  0.00  0.00    -0.263 NA
ATOM     40  C   UNL     1       6.126  17.017  99.237  0.00  0.00    +0.111 A 
ENDBRANCH   4   3
ENDBRANCH  10   9
BRANCH  12  13
ATOM     13  N   UNL     1       4.447   6.174  95.060  0.00  0.00    -0.281 N 
ATOM     14  C   UNL     1       4.125   5.080  95.847  0.00  0.00    +0.248 C 
ATOM     30  O   UNL     1       3.246   5.075  96.696  0.00  0.00    -0.270 OA
ATOM     31  H   UNL     1       5.319   6.107  94.535  0.00  0.00    +0.155 HD
BRANCH  14  15
ATOM     15  C   UNL     1       4.901   3.814  95.677  0.00  0.00    +0.037 A 
ATOM     16  C   UNL     1       4.656   2.652  96.534  0.00  0.00    +0.013 A 
ATOM     17  C   UNL     1       5.430   1.448  96.360  0.00  0.00    +0.005 A 
ATOM     18  C   UNL     1       6.456   1.401  95.322  0.00  0.00    -0.033 A 
ATOM     28  C   UNL     1       6.675   2.567  94.482  0.00  0.00    +0.005 A 
ATOM     29  C   UNL     1       5.919   3.749  94.651  0.00  0.00    +0.013 A 
BRANCH  18  19
ATOM     19  C   UNL     1       7.344   0.167  95.079  0.00  0.00    +0.119 C 
BRANCH  19  20
ATOM     20  N   UNL     1       6.658  -1.152  94.940  0.00  0.00    -0.302 NA
ATOM     21  C   UNL     1       7.553  -2.315  95.380  0.00  0.00    +0.066 C 
ATOM     22  C   UNL     1       6.812  -3.685  95.251  0.00  0.00    -0.064 C 
ATOM     23  N   UNL     1       6.348  -3.876  93.805  0.00  0.00    +0.379 N 
ATOM     24  C   UNL     1       5.701  -5.189  93.667  0.00  0.00    -0.096 C 
ATOM     25  H   UNL     1       7.254  -3.875  93.157  0.00  0.00    -0.082 HD
ATOM     26  C   UNL     1       5.460  -2.723  93.359  0.00  0.00    -0.064 C 
ATOM     27  C   UNL     1       6.195  -1.364  93.520  0.00  0.00    +0.066 C 
ENDBRANCH  19  20
ENDBRANCH  18  19
ENDBRANCH  14  15
ENDBRANCH  12  13
TORSDOF 6
ENDMDL
MODEL 3
REMARK VINA RESULT:      -7.3     12.973     16.897
REMARK  Name = C:\Users\Docking\Desktop\test protocol\1iep_ligandH.pdb
REMARK  8 active torsions:
REMARK  status: ('A' for Active; 'I' for Inactive)
REMARK    1  A    between atoms: _5  and  _11
REMARK    2  A    between atoms: _19  and  _21
REMARK    3  A    between atoms: _22  and  _66
REMARK    4  A    between atoms: _27  and  _30
REMARK    5  A    between atoms: _32  and  _33
REMARK    6  A    between atoms: _38  and  _43
REMARK    7  A    between atoms: _43  and  _46
REMARK    8  A    between atoms: _53  and  _55
REMARK                            x       y       z     vdW  Elec       q    Type
REMARK                         _______ _______ _______ _____ _____    ______ ____
ROOT
ATOM     10  C   UNL     1      21.690   5.199 104.310  0.00  0.00    +0.038 A 
ATOM     11  C   UNL     1      20.375   4.969 104.789  0.00  0.00    +0.047 A 
ATOM     12  C   UNL     1      20.127   4.063 105.899  0.00  0.00    +0.035 A 
ATOM     32  C   UNL     1      21.241   3.408 106.499  0.00  0.00    +0.024 A 
ATOM     33  C   UNL     1      22.584   3.629 106.024  0.00  0.00    +0.007 A 
ATOM     34  C   UNL     1      22.836   4.520 104.928  0.00  0.00    -0.029 A 
ATOM     35  C   UNL     1      24.295   4.714 104.456  0.00  0.00    +0.045 C 
ENDROOT
BRANCH  10   9
ATOM      4  C   UNL     1      21.771   6.200  99.617  0.00  0.00    +0.077 A 
ATOM      5  C   UNL     1      21.452   4.847  99.262  0.00  0.00    +0.048 A 
ATOM      6  C   UNL     1      21.282   3.923 100.317  0.00  0.00    +0.116 A 
ATOM      7  N   UNL     1      21.423   4.333 101.626  0.00  0.00    -0.223 NA
ATOM      8  C   UNL     1      21.733   5.645 101.933  0.00  0.00    +0.220 A 
ATOM      9  N   UNL     1      21.871   6.080 103.242  0.00  0.00    -0.283 N 
ATOM     36  H   UNL     1      22.108   7.055 103.426  0.00  0.00    +0.155 HD
ATOM     37  N   UNL     1      21.902   6.546 100.943  0.00  0.00    -0.214 NA
BRANCH   4   3
ATOM      1  C   UNL     1      22.070   9.724  97.945  0.00  0.00    +0.020 A 
ATOM      2  C   UNL     1      21.859   8.707  98.949  0.00  0.00    +0.013 A 
ATOM      3  C   UNL     1      21.978   7.294  98.615  0.00  0.00    +0.019 A 
ATOM     38  C   UNL     1      22.314   6.940  97.244  0.00  0.00    +0.120 A 
ATOM     39  N   UNL     1      22.509   7.940  96.297  0.00  0.00    -0.263 NA
ATOM     40  C   UNL     1      22.396   9.304  96.607  0.00  0.00    +0.111 A 
ENDBRANCH   4   3
ENDBRANCH  10   9
BRANCH  12  13
ATOM     13  N   UNL     1      18.813   3.784 106.424  0.00  0.00    -0.281 N 
ATOM     14  C   UNL     1      18.316   4.085 107.682  0.00  0.00    +0.248 C 
ATOM     30  O   UNL     1      19.001   4.451 108.625  0.00  0.00    -0.270 OA
ATOM     31  H   UNL     1      18.170   3.307 105.791  0.00  0.00    +0.155 HD
BRANCH  14  15
ATOM     15  C   UNL     1      16.849   3.945 107.932  0.00  0.00    +0.037 A 
ATOM     16  C   UNL     1      16.229   2.628 108.098  0.00  0.00    +0.013 A 
ATOM     17  C   UNL     1      14.809   2.520 108.321  0.00  0.00    +0.005 A 
ATOM     18  C   UNL     1      14.000   3.735 108.381  0.00  0.00    -0.033 A 
ATOM     28  C   UNL     1      14.641   5.029 108.217  0.00  0.00    +0.005 A 
ATOM     29  C   UNL     1      16.033   5.138 107.997  0.00  0.00    +0.013 A 
BRANCH  18  19
ATOM     19  C   UNL     1      12.474   3.714 108.594  0.00  0.00    +0.119 C 
BRANCH  19  20
ATOM     20  N   UNL     1      11.649   4.600 107.720  0.00  0.00    -0.302 NA
ATOM     21  C   UNL     1      10.161   4.533 108.075  0.00  0.00    +0.066 C 
ATOM     22  C   UNL     1       9.316   5.484 107.166  0.00  0.00    -0.064 C 
ATOM     23  N   UNL     1       9.540   5.114 105.699  0.00  0.00    +0.379 N 
ATOM     24  C   UNL     1       8.702   5.968 104.844  0.00  0.00    -0.096 C 
ATOM     25  H   UNL     1       9.202   4.061 105.560  0.00  0.00    -0.082 HD
ATOM     26  C   UNL     1      11.017   5.175 105.338  0.00  0.00    -0.064 C 
ATOM     27  C   UNL     1      11.852   4.250 106.266  0.00  0.00    +0.066 C 
ENDBRANCH  19  20
ENDBRANCH  18  19
ENDBRANCH  14  15
ENDBRANCH  12  13
TORSDOF 6
ENDMDL
MODEL 4
REMARK VINA RESULT:      -7.2     24.393     27.088
REMARK  Name = C:\Users\Docking\Desktop\test protocol\1iep_ligandH.pdb
REMARK  8 active torsions:
REMARK  status: ('A' for Active; 'I' for Inactive)
REMARK    1  A    between atoms: _5  and  _11
REMARK    2  A    between atoms: _19  and  _21
REMARK    3  A    between atoms: _22  and  _66
REMARK    4  A    between atoms: _27  and  _30
REMARK    5  A    between atoms: _32  and  _33
REMARK    6  A    between atoms: _38  and  _43
REMARK    7  A    between atoms: _43  and  _46
REMARK    8  A    between atoms: _53  and  _55
REMARK                            x       y       z     vdW  Elec       q    Type
REMARK                         _______ _______ _______ _____ _____    ______ ____
ROOT
ATOM     10  C   UNL     1       3.400   4.864  97.846  0.00  0.00    +0.038 A 
ATOM     11  C   UNL     1       4.034   6.090  97.518  0.00  0.00    +0.047 A 
ATOM     12  C   UNL     1       3.325   7.356  97.621  0.00  0.00    +0.035 A 
ATOM     32  C   UNL     1       1.970   7.337  98.065  0.00  0.00    +0.024 A 
ATOM     33  C   UNL     1       1.310   6.100  98.402  0.00  0.00    +0.007 A 
ATOM     34  C   UNL     1       2.004   4.848  98.299  0.00  0.00    -0.029 A 
ATOM     35  C   UNL     1       1.243   3.553  98.667  0.00  0.00    +0.045 C 
ENDROOT
BRANCH  10   9
ATOM      4  C   UNL     1       5.186   1.232  95.266  0.00  0.00    +0.077 A 
ATOM      5  C   UNL     1       4.595   1.725  94.055  0.00  0.00    +0.048 A 
ATOM      6  C   UNL     1       3.834   2.912  94.140  0.00  0.00    +0.116 A 
ATOM      7  N   UNL     1       3.681   3.551  95.351  0.00  0.00    -0.223 NA
ATOM      8  C   UNL     1       4.262   3.048  96.501  0.00  0.00    +0.220 A 
ATOM      9  N   UNL     1       4.128   3.678  97.728  0.00  0.00    -0.283 N 
ATOM     36  H   UNL     1       4.566   3.272  98.554  0.00  0.00    +0.155 HD
ATOM     37  N   UNL     1       4.993   1.915  96.446  0.00  0.00    -0.214 NA
BRANCH   4   3
ATOM      1  C   UNL     1       8.145  -1.301  94.913  0.00  0.00    +0.020 A 
ATOM      2  C   UNL     1       7.381  -0.079  94.819  0.00  0.00    +0.013 A 
ATOM      3  C   UNL     1       6.021  -0.008  95.338  0.00  0.00    +0.019 A 
ATOM     38  C   UNL     1       5.459  -1.202  95.952  0.00  0.00    +0.120 A 
ATOM     39  N   UNL     1       6.218  -2.366  96.028  0.00  0.00    -0.263 NA
ATOM     40  C   UNL     1       7.527  -2.446  95.530  0.00  0.00    +0.111 A 
ENDBRANCH   4   3
ENDBRANCH  10   9
BRANCH  12  13
ATOM     13  N   UNL     1       3.914   8.630  97.294  0.00  0.00    -0.281 N 
ATOM     14  C   UNL     1       4.315   9.089  96.050  0.00  0.00    +0.248 C 
ATOM     30  O   UNL     1       4.425   8.385  95.056  0.00  0.00    -0.270 OA
ATOM     31  H   UNL     1       4.052   9.272  98.074  0.00  0.00    +0.155 HD
BRANCH  14  15
ATOM     15  C   UNL     1       4.658  10.534  95.889  0.00  0.00    +0.037 A 
ATOM     16  C   UNL     1       5.989  11.043  96.233  0.00  0.00    +0.013 A 
ATOM     17  C   UNL     1       6.288  12.445  96.084  0.00  0.00    +0.005 A 
ATOM     18  C   UNL     1       5.253  13.349  95.588  0.00  0.00    -0.033 A 
ATOM     28  C   UNL     1       3.943  12.818  95.250  0.00  0.00    +0.005 A 
ATOM     29  C   UNL     1       3.646  11.444  95.395  0.00  0.00    +0.013 A 
BRANCH  18  19
ATOM     19  C   UNL     1       5.477  14.864  95.418  0.00  0.00    +0.119 C 
BRANCH  19  20
ATOM     20  N   UNL     1       6.288  15.308  94.246  0.00  0.00    -0.302 NA
ATOM     21  C   UNL     1       6.744  16.763  94.381  0.00  0.00    +0.066 C 
ATOM     22  C   UNL     1       7.610  17.204  93.156  0.00  0.00    -0.064 C 
ATOM     23  N   UNL     1       6.807  17.006  91.869  0.00  0.00    +0.379 N 
ATOM     24  C   UNL     1       7.597  17.474  90.721  0.00  0.00    -0.096 C 
ATOM     25  H   UNL     1       5.897  17.645  91.937  0.00  0.00    -0.082 HD
ATOM     26  C   UNL     1       6.347  15.561  91.728  0.00  0.00    -0.064 C 
ATOM     27  C   UNL     1       5.512  15.124  92.964  0.00  0.00    +0.066 C 
ENDBRANCH  19  20
ENDBRANCH  18  19
ENDBRANCH  14  15
ENDBRANCH  12  13
TORSDOF 6
ENDMDL
MODEL 5
REMARK VINA RESULT:      -7.0     15.476     22.052
REMARK  Name = C:\Users\Docking\Desktop\test protocol\1iep_ligandH.pdb
REMARK  8 active torsions:
REMARK  status: ('A' for Active; 'I' for Inactive)
REMARK    1  A    between atoms: _5  and  _11
REMARK    2  A    between atoms: _19  and  _21
REMARK    3  A    between atoms: _22  and  _66
REMARK    4  A    between atoms: _27  and  _30
REMARK    5  A    between atoms: _32  and  _33
REMARK    6  A    between atoms: _38  and  _43
REMARK    7  A    between atoms: _43  and  _46
REMARK    8  A    between atoms: _53  and  _55
REMARK                            x       y       z     vdW  Elec       q    Type
REMARK                         _______ _______ _______ _____ _____    ______ ____
ROOT
ATOM     10  C   UNL     1      21.903 -15.984  99.231  0.00  0.00    +0.038 A 
ATOM     11  C   UNL     1      22.704 -16.406  98.139  0.00  0.00    +0.047 A 
ATOM     12  C   UNL     1      23.075 -17.803  97.973  0.00  0.00    +0.035 A 
ATOM     32  C   UNL     1      22.611 -18.744  98.937  0.00  0.00    +0.024 A 
ATOM     33  C   UNL     1      21.798 -18.333 100.054  0.00  0.00    +0.007 A 
ATOM     34  C   UNL     1      21.431 -16.956 100.225  0.00  0.00    -0.029 A 
ATOM     35  C   UNL     1      20.562 -16.571 101.445  0.00  0.00    +0.045 C 
ENDROOT
BRANCH  10   9
ATOM      4  C   UNL     1      23.003 -11.440 100.316  0.00  0.00    +0.077 A 
ATOM      5  C   UNL     1      24.332 -11.796 100.722  0.00  0.00    +0.048 A 
ATOM      6  C   UNL     1      24.691 -13.161 100.644  0.00  0.00    +0.116 A 
ATOM      7  N   UNL     1      23.780 -14.091 100.191  0.00  0.00    -0.223 NA
ATOM      8  C   UNL     1      22.506 -13.714  99.808  0.00  0.00    +0.220 A 
ATOM      9  N   UNL     1      21.577 -14.631  99.342  0.00  0.00    -0.283 N 
ATOM     36  H   UNL     1      20.645 -14.314  99.077  0.00  0.00    +0.155 HD
ATOM     37  N   UNL     1      22.138 -12.417  99.876  0.00  0.00    -0.214 NA
BRANCH   4   3
ATOM      1  C   UNL     1      20.991  -8.194  99.469  0.00  0.00    +0.020 A 
ATOM      2  C   UNL     1      21.467  -9.557  99.404  0.00  0.00    +0.013 A 
ATOM      3  C   UNL     1      22.476 -10.039 100.339  0.00  0.00    +0.019 A 
ATOM     38  C   UNL     1      22.987  -9.110 101.335  0.00  0.00    +0.120 A 
ATOM     39  N   UNL     1      22.511  -7.803 101.373  0.00  0.00    -0.263 NA
ATOM     40  C   UNL     1      21.541  -7.327 100.478  0.00  0.00    +0.111 A 
ENDBRANCH   4   3
ENDBRANCH  10   9
BRANCH  12  13
ATOM     13  N   UNL     1      23.892 -18.288  96.888  0.00  0.00    -0.281 N 
ATOM     14  C   UNL     1      23.507 -18.553  95.585  0.00  0.00    +0.248 C 
ATOM     30  O   UNL     1      22.346 -18.616  95.206  0.00  0.00    -0.270 OA
ATOM     31  H   UNL     1      24.874 -18.457  97.109  0.00  0.00    +0.155 HD
BRANCH  14  15
ATOM     15  C   UNL     1      24.562 -18.798  94.555  0.00  0.00    +0.037 A 
ATOM     16  C   UNL     1      25.960 -18.432  94.798  0.00  0.00    +0.013 A 
ATOM     17  C   UNL     1      26.956 -18.664  93.782  0.00  0.00    +0.005 A 
ATOM     18  C   UNL     1      26.556 -19.266  92.512  0.00  0.00    -0.033 A 
ATOM     28  C   UNL     1      25.163 -19.624  92.300  0.00  0.00    +0.005 A 
ATOM     29  C   UNL     1      24.185 -19.398  93.293  0.00  0.00    +0.013 A 
BRANCH  18  19
ATOM     19  C   UNL     1      27.547 -19.530  91.363  0.00  0.00    +0.119 C 
BRANCH  19  20
ATOM     20  N   UNL     1      27.028 -19.401  89.969  0.00  0.00    -0.302 NA
ATOM     21  C   UNL     1      27.213 -20.691  89.165  0.00  0.00    +0.066 C 
ATOM     22  C   UNL     1      26.644 -20.545  87.716  0.00  0.00    -0.064 C 
ATOM     23  N   UNL     1      27.329 -19.369  87.018  0.00  0.00    +0.379 N 
ATOM     24  C   UNL     1      26.838 -19.265  85.636  0.00  0.00    -0.096 C 
ATOM     25  H   UNL     1      28.420 -19.591  86.974  0.00  0.00    -0.082 HD
ATOM     26  C   UNL     1      27.152 -18.082  87.812  0.00  0.00    -0.064 C 
ATOM     27  C   UNL     1      27.694 -18.248  89.260  0.00  0.00    +0.066 C 
ENDBRANCH  19  20
ENDBRANCH  18  19
ENDBRANCH  14  15
ENDBRANCH  12  13
TORSDOF 6
ENDMDL
