MODEL 1
REMARK VINA RESULT:      -7.4      0.000      0.000
REMARK  Name = C:\Users\Docking\Desktop\test protocol\1iep_ligandH.pdb
REMARK  8 active torsions:
REMARK  status: ('A' for Active; 'I' for Inactive)
REMARK    1  A    between atoms: _5  and  _11
REMARK    2  A    between atoms: _19  and  _21
REMARK    3  A    between atoms: _22  and  _66
REMARK    4  A    between atoms: _27  and  _30
REMARK    5  A    between atoms: _32  and  _33
REMARK    6  A    between atoms: _38  and  _43
REMARK    7  A    between atoms: _43  and  _46
REMARK    8  A    between atoms: _53  and  _55
REMARK                            x       y       z     vdW  Elec       q    Type
REMARK                         _______ _______ _______ _____ _____    ______ ____
ROOT
ATOM     10  C   UNL     1       7.034  16.155  88.782  0.00  0.00    +0.038 A 
ATOM     11  C   UNL     1       6.731  16.431  90.139  0.00  0.00    +0.047 A 
ATOM     12  C   UNL     1       7.221  17.636  90.790  0.00  0.00    +0.035 A 
ATOM     32  C   UNL     1       8.017  18.540  90.027  0.00  0.00    +0.024 A 
ATOM     33  C   UNL     1       8.336  18.274  88.646  0.00  0.00    +0.007 A 
ATOM     34  C   UNL     1       7.856  17.086  88.000  0.00  0.00    -0.029 A 
ATOM     35  C   UNL     1       8.235  16.850  86.519  0.00  0.00    +0.045 C 
ENDROOT
BRANCH  10   9
ATOM      4  C   UNL     1       7.426  11.515  87.617  0.00  0.00    +0.077 A 
ATOM      5  C   UNL     1       8.743  11.425  88.176  0.00  0.00    +0.048 A 
ATOM      6  C   UNL     1       9.287  12.597  88.748  0.00  0.00    +0.116 A 
ATOM      7  N   UNL     1       8.558  13.766  88.754  0.00  0.00    -0.223 NA
ATOM      8  C   UNL     1       7.291  13.820  88.205  0.00  0.00    +0.220 A 
ATOM      9  N   UNL     1       6.537  14.983  88.207  0.00  0.00    -0.283 N 
ATOM     36  H   UNL     1       5.609  14.983  87.785  0.00  0.00    +0.155 HD
ATOM     37  N   UNL     1       6.750  12.714  87.651  0.00  0.00    -0.214 NA
BRANCH   4   3
ATOM      1  C   UNL     1       6.359   8.716  85.102  0.00  0.00    +0.020 A 
ATOM      2  C   UNL     1       7.078   9.831  85.672  0.00  0.00    +0.013 A 
ATOM      3  C   UNL     1       6.714  10.362  86.979  0.00  0.00    +0.019 A 
ATOM     38  C   UNL     1       5.609   9.736  87.690  0.00  0.00    +0.120 A 
ATOM     39  N   UNL     1       4.934   8.664  87.115  0.00  0.00    -0.263 NA
ATOM     40  C   UNL     1       5.274   8.146  85.857  0.00  0.00    +0.111 A 
ENDBRANCH   4   3
ENDBRANCH  10   9
BRANCH  12  13
ATOM     13  N   UNL     1       6.953  17.965  92.168  0.00  0.00    -0.281 N 
ATOM     14  C   UNL     1       7.444  17.343  93.304  0.00  0.00    +0.248 C 
ATOM     30  O   UNL     1       8.025  16.268  93.306  0.00  0.00    -0.270 OA
ATOM     31  H   UNL     1       6.323  18.752  92.325  0.00  0.00    +0.155 HD
BRANCH  14  15
ATOM     15  C   UNL     1       7.250  18.003  94.630  0.00  0.00    +0.037 A 
ATOM     16  C   UNL     1       6.162  17.604  95.526  0.00  0.00    +0.013 A 
ATOM     17  C   UNL     1       5.986  18.269  96.793  0.00  0.00    +0.005 A 
ATOM     18  C   UNL     1       6.904  19.341  97.172  0.00  0.00    -0.033 A 
ATOM     28  C   UNL     1       7.978  19.713  96.267  0.00  0.00    +0.005 A 
ATOM     29  C   UNL     1       8.152  19.064  95.024  0.00  0.00    +0.013 A 
BRANCH  18  19
ATOM     19  C   UNL     1       6.779  20.119  98.495  0.00  0.00    +0.119 C 
BRANCH  19  20
ATOM     20  N   UNL     1       7.148  19.399  99.750  0.00  0.00    -0.302 NA
ATOM     21  C   UNL     1       6.235  19.778 100.919  0.00  0.00    +0.066 C 
ATOM     22  C   UNL     1       6.620  18.999 102.219  0.00  0.00    -0.064 C 
ATOM     23  N   UNL     1       8.084  19.278 102.562  0.00  0.00    +0.379 N 
ATOM     24  C   UNL     1       8.433  18.592 103.815  0.00  0.00    -0.096 C 
ATOM     25  H   UNL     1       8.188  20.374 102.736  0.00  0.00    -0.082 HD
ATOM     26  C   UNL     1       8.999  18.906 101.403  0.00  0.00    -0.064 C 
ATOM     27  C   UNL     1       8.589  19.664 100.110  0.00  0.00    +0.066 C 
ENDBRANCH  19  20
ENDBRANCH  18  19
ENDBRANCH  14  15
ENDBRANCH  12  13
TORSDOF 6
ENDMDL
MODEL 2
REMARK VINA RESULT:      -7.3     20.189     25.525
REMARK  Name = C:\Users\Docking\Desktop\test protocol\1iep_ligandH.pdb
REMARK  8 active torsions:
REMARK  status: ('A' for Active; 'I' for Inactive)
REMARK    1  A    between atoms: _5  and  _11
REMARK    2  A    between atoms: _19  and  _21
REMARK    3  A    between atoms: _22  and  _66
REMARK    4  A    between atoms: _27  and  _30
REMARK    5  A    between atoms: _32  and  _33
REMARK    6  A    between atoms: _38  and  _43
REMARK    7  A    between atoms: _43  and  _46
REMARK    8  A    between atoms: _53  and  _55
REMARK                            x       y       z     vdW  Elec       q    Type
REMARK                         _______ _______ _______ _____ _____    ______ ____
ROOT
ATOM     10  C   UNL     1      20.806   6.906  73.808  0.00  0.00    +0.038 A 
ATOM     11  C   UNL     1      21.915   7.477  74.483  0.00  0.00    +0.047 A 
ATOM     12  C   UNL     1      23.239   7.489  73.881  0.00  0.00    +0.035 A 
ATOM     32  C   UNL     1      23.397   6.913  72.587  0.00  0.00    +0.024 A 
ATOM     33  C   UNL     1      22.281   6.327  71.886  0.00  0.00    +0.007 A 
ATOM     34  C   UNL     1      20.974   6.310  72.477  0.00  0.00    -0.029 A 
ATOM     35  C   UNL     1      19.815   5.663  71.682  0.00  0.00    +0.045 C 
ENDROOT
BRANCH  10   9
ATOM      4  C   UNL     1      16.410   8.727  74.437  0.00  0.00    +0.077 A 
ATOM      5  C   UNL     1      16.629   9.750  73.456  0.00  0.00    +0.048 A 
ATOM      6  C   UNL     1      17.889   9.778  72.817  0.00  0.00    +0.116 A 
ATOM      7  N   UNL     1      18.851   8.846  73.143  0.00  0.00    -0.223 NA
ATOM      8  C   UNL     1      18.608   7.874  74.095  0.00  0.00    +0.220 A 
ATOM      9  N   UNL     1      19.558   6.922  74.433  0.00  0.00    -0.283 N 
ATOM     36  H   UNL     1      19.342   6.225  75.146  0.00  0.00    +0.155 HD
ATOM     37  N   UNL     1      17.413   7.827  74.721  0.00  0.00    -0.214 NA
BRANCH   4   3
ATOM      1  C   UNL     1      13.743   7.579  77.058  0.00  0.00    +0.020 A 
ATOM      2  C   UNL     1      15.003   7.699  76.360  0.00  0.00    +0.013 A 
ATOM      3  C   UNL     1      15.130   8.566  75.196  0.00  0.00    +0.019 A 
ATOM     38  C   UNL     1      13.954   9.304  74.760  0.00  0.00    +0.120 A 
ATOM     39  N   UNL     1      12.754   9.168  75.450  0.00  0.00    -0.263 NA
ATOM     40  C   UNL     1      12.619   8.335  76.571  0.00  0.00    +0.111 A 
ENDBRANCH   4   3
ENDBRANCH  10   9
BRANCH  12  13
ATOM     13  N   UNL     1      24.403   8.047  74.522  0.00  0.00    -0.281 N 
ATOM     14  C   UNL     1      24.575   9.334  75.006  0.00  0.00    +0.248 C 
ATOM     30  O   UNL     1      23.824  10.268  74.766  0.00  0.00    -0.270 OA
ATOM     31  H   UNL     1      25.198   7.417  74.633  0.00  0.00    +0.155 HD
BRANCH  14  15
ATOM     15  C   UNL     1      25.759   9.629  75.868  0.00  0.00    +0.037 A 
ATOM     16  C   UNL     1      25.815  10.838  76.694  0.00  0.00    +0.013 A 
ATOM     17  C   UNL     1      26.977  11.107  77.504  0.00  0.00    +0.005 A 
ATOM     18  C   UNL     1      28.093  10.165  77.491  0.00  0.00    -0.033 A 
ATOM     28  C   UNL     1      28.009   8.971  76.666  0.00  0.00    +0.005 A 
ATOM     29  C   UNL     1      26.872   8.704  75.871  0.00  0.00    +0.013 A 
BRANCH  18  19
ATOM     19  C   UNL     1      29.381  10.382  78.307  0.00  0.00    +0.119 C 
BRANCH  19  20
ATOM     20  N   UNL     1      30.360   9.256  78.354  0.00  0.00    -0.302 NA
ATOM     21  C   UNL     1      30.684   8.835  79.790  0.00  0.00    +0.066 C 
ATOM     22  C   UNL     1      31.692   7.640  79.819  0.00  0.00    -0.064 C 
ATOM     23  N   UNL     1      32.966   8.033  79.069  0.00  0.00    +0.379 N 
ATOM     24  C   UNL     1      33.939   6.933  79.145  0.00  0.00    -0.096 C 
ATOM     25  H   UNL     1      33.408   8.913  79.592  0.00  0.00    -0.082 HD
ATOM     26  C   UNL     1      32.652   8.455  77.641  0.00  0.00    -0.064 C 
ATOM     27  C   UNL     1      31.627   9.623  77.622  0.00  0.00    +0.066 C 
ENDBRANCH  19  20
ENDBRANCH  18  19
ENDBRANCH  14  15
ENDBRANCH  12  13
TORSDOF 6
ENDMDL
MODEL 3
REMARK VINA RESULT:      -7.1     21.946     26.499
REMARK  Name = C:\Users\Docking\Desktop\test protocol\1iep_ligandH.pdb
REMARK  8 active torsions:
REMARK  status: ('A' for Active; 'I' for Inactive)
REMARK    1  A    between atoms: _5  and  _11
REMARK    2  A    between atoms: _19  and  _21
REMARK    3  A    between atoms: _22  and  _66
REMARK    4  A    between atoms: _27  and  _30
REMARK    5  A    between atoms: _32  and  _33
REMARK    6  A    between atoms: _38  and  _43
REMARK    7  A    between atoms: _43  and  _46
REMARK    8  A    between atoms: _53  and  _55
REMARK                            x       y       z     vdW  Elec       q    Type
REMARK                         _______ _______ _______ _____ _____    ______ ____
ROOT
ATOM     10  C   UNL     1      28.535  20.555  85.115  0.00  0.00    +0.038 A 
ATOM     11  C   UNL     1      29.208  19.635  84.273  0.00  0.00    +0.047 A 
ATOM     12  C   UNL     1      30.075  18.605  84.824  0.00  0.00    +0.035 A 
ATOM     32  C   UNL     1      30.231  18.539  86.239  0.00  0.00    +0.024 A 
ATOM     33  C   UNL     1      29.554  19.468  87.111  0.00  0.00    +0.007 A 
ATOM     34  C   UNL     1      28.700  20.488  86.572  0.00  0.00    -0.029 A 
ATOM     35  C   UNL     1      28.005  21.460  87.554  0.00  0.00    +0.045 C 
ENDROOT
BRANCH  10   9
ATOM      4  C   UNL     1      24.230  22.226  83.805  0.00  0.00    +0.077 A 
ATOM      5  C   UNL     1      23.560  21.058  84.300  0.00  0.00    +0.048 A 
ATOM      6  C   UNL     1      24.361  20.047  84.879  0.00  0.00    +0.116 A 
ATOM      7  N   UNL     1      25.728  20.204  84.951  0.00  0.00    -0.223 NA
ATOM      8  C   UNL     1      26.342  21.342  84.462  0.00  0.00    +0.220 A 
ATOM      9  N   UNL     1      27.715  21.524  84.532  0.00  0.00    -0.283 N 
ATOM     36  H   UNL     1      28.131  22.375  84.154  0.00  0.00    +0.155 HD
ATOM     37  N   UNL     1      25.600  22.321  83.904  0.00  0.00    -0.214 NA
BRANCH   4   3
ATOM      1  C   UNL     1      22.085  25.453  83.271  0.00  0.00    +0.020 A 
ATOM      2  C   UNL     1      22.750  24.354  83.933  0.00  0.00    +0.013 A 
ATOM      3  C   UNL     1      23.522  23.382  83.170  0.00  0.00    +0.019 A 
ATOM     38  C   UNL     1      23.602  23.551  81.727  0.00  0.00    +0.120 A 
ATOM     39  N   UNL     1      22.950  24.618  81.117  0.00  0.00    -0.263 NA
ATOM     40  C   UNL     1      22.203  25.559  81.841  0.00  0.00    +0.111 A 
ENDBRANCH   4   3
ENDBRANCH  10   9
BRANCH  12  13
ATOM     13  N   UNL     1      30.791  17.648  84.018  0.00  0.00    -0.281 N 
ATOM     14  C   UNL     1      32.161  17.460  83.934  0.00  0.00    +0.248 C 
ATOM     30  O   UNL     1      32.993  18.234  84.382  0.00  0.00    -0.270 OA
ATOM     31  H   UNL     1      30.218  17.034  83.438  0.00  0.00    +0.155 HD
BRANCH  14  15
ATOM     15  C   UNL     1      32.682  16.243  83.240  0.00  0.00    +0.037 A 
ATOM     16  C   UNL     1      34.082  16.150  82.817  0.00  0.00    +0.013 A 
ATOM     17  C   UNL     1      34.555  14.972  82.134  0.00  0.00    +0.005 A 
ATOM     18  C   UNL     1      33.625  13.876  81.870  0.00  0.00    -0.033 A 
ATOM     28  C   UNL     1      32.243  13.993  82.305  0.00  0.00    +0.005 A 
ATOM     29  C   UNL     1      31.776  15.146  82.974  0.00  0.00    +0.013 A 
BRANCH  18  19
ATOM     19  C   UNL     1      34.037  12.591  81.129  0.00  0.00    +0.119 C 
BRANCH  19  20
ATOM     20  N   UNL     1      32.945  11.660  80.715  0.00  0.00    -0.302 NA
ATOM     21  C   UNL     1      33.309  10.196  80.976  0.00  0.00    +0.066 C 
ATOM     22  C   UNL     1      32.146   9.237  80.559  0.00  0.00    -0.064 C 
ATOM     23  N   UNL     1      31.812   9.458  79.082  0.00  0.00    +0.379 N 
ATOM     24  C   UNL     1      30.759   8.518  78.671  0.00  0.00    -0.096 C 
ATOM     25  H   UNL     1      32.727   9.221  78.490  0.00  0.00    -0.082 HD
ATOM     26  C   UNL     1      31.452  10.912  78.813  0.00  0.00    -0.064 C 
ATOM     27  C   UNL     1      32.602  11.858  79.259  0.00  0.00    +0.066 C 
ENDBRANCH  19  20
ENDBRANCH  18  19
ENDBRANCH  14  15
ENDBRANCH  12  13
TORSDOF 6
ENDMDL
MODEL 4
REMARK VINA RESULT:      -6.8     34.725     37.891
REMARK  Name = C:\Users\Docking\Desktop\test protocol\1iep_ligandH.pdb
REMARK  8 active torsions:
REMARK  status: ('A' for Active; 'I' for Inactive)
REMARK    1  A    between atoms: _5  and  _11
REMARK    2  A    between atoms: _19  and  _21
REMARK    3  A    between atoms: _22  and  _66
REMARK    4  A    between atoms: _27  and  _30
REMARK    5  A    between atoms: _32  and  _33
REMARK    6  A    between atoms: _38  and  _43
REMARK    7  A    between atoms: _43  and  _46
REMARK    8  A    between atoms: _53  and  _55
REMARK                            x       y       z     vdW  Elec       q    Type
REMARK                         _______ _______ _______ _____ _____    ______ ____
ROOT
ATOM     10  C   UNL     1      42.090  -0.054  87.211  0.00  0.00    +0.038 A 
ATOM     11  C   UNL     1      41.502  -0.533  88.410  0.00  0.00    +0.047 A 
ATOM     12  C   UNL     1      41.657  -1.920  88.822  0.00  0.00    +0.035 A 
ATOM     32  C   UNL     1      42.419  -2.791  87.989  0.00  0.00    +0.024 A 
ATOM     33  C   UNL     1      43.022  -2.320  86.767  0.00  0.00    +0.007 A 
ATOM     34  C   UNL     1      42.871  -0.954  86.355  0.00  0.00    -0.029 A 
ATOM     35  C   UNL     1      43.535  -0.507  85.032  0.00  0.00    +0.045 C 
ENDROOT
BRANCH  10   9
ATOM      4  C   UNL     1      43.439   4.552  87.271  0.00  0.00    +0.077 A 
ATOM      5  C   UNL     1      44.586   4.267  88.085  0.00  0.00    +0.048 A 
ATOM      6  C   UNL     1      44.789   2.923  88.473  0.00  0.00    +0.116 A 
ATOM      7  N   UNL     1      43.904   1.946  88.070  0.00  0.00    -0.223 NA
ATOM      8  C   UNL     1      42.808   2.255  87.287  0.00  0.00    +0.220 A 
ATOM      9  N   UNL     1      41.910   1.287  86.865  0.00  0.00    -0.283 N 
ATOM     36  H   UNL     1      41.109   1.557  86.294  0.00  0.00    +0.155 HD
ATOM     37  N   UNL     1      42.591   3.531  86.905  0.00  0.00    -0.214 NA
BRANCH   4   3
ATOM      1  C   UNL     1      42.196   8.257  87.110  0.00  0.00    +0.020 A 
ATOM      2  C   UNL     1      42.513   6.949  87.636  0.00  0.00    +0.013 A 
ATOM      3  C   UNL     1      43.092   5.922  86.779  0.00  0.00    +0.019 A 
ATOM     38  C   UNL     1      43.340   6.254  85.384  0.00  0.00    +0.120 A 
ATOM     39  N   UNL     1      43.023   7.521  84.905  0.00  0.00    -0.263 NA
ATOM     40  C   UNL     1      42.464   8.517  85.720  0.00  0.00    +0.111 A 
ENDBRANCH   4   3
ENDBRANCH  10   9
BRANCH  12  13
ATOM     13  N   UNL     1      41.077  -2.465  90.024  0.00  0.00    -0.281 N 
ATOM     14  C   UNL     1      41.605  -2.457  91.304  0.00  0.00    +0.248 C 
ATOM     30  O   UNL     1      42.761  -2.166  91.573  0.00  0.00    -0.270 OA
ATOM     31  H   UNL     1      40.166  -2.912  89.917  0.00  0.00    +0.155 HD
BRANCH  14  15
ATOM     15  C   UNL     1      40.726  -2.842  92.450  0.00  0.00    +0.037 A 
ATOM     16  C   UNL     1      40.977  -4.060  93.224  0.00  0.00    +0.013 A 
ATOM     17  C   UNL     1      40.104  -4.417  94.314  0.00  0.00    +0.005 A 
ATOM     18  C   UNL     1      38.972  -3.552  94.638  0.00  0.00    -0.033 A 
ATOM     28  C   UNL     1      38.749  -2.347  93.857  0.00  0.00    +0.005 A 
ATOM     29  C   UNL     1      39.602  -1.994  92.787  0.00  0.00    +0.013 A 
BRANCH  18  19
ATOM     19  C   UNL     1      37.977  -3.866  95.770  0.00  0.00    +0.119 C 
BRANCH  19  20
ATOM     20  N   UNL     1      36.837  -2.920  95.961  0.00  0.00    -0.302 NA
ATOM     21  C   UNL     1      37.021  -2.040  97.200  0.00  0.00    +0.066 C 
ATOM     22  C   UNL     1      35.831  -1.041  97.371  0.00  0.00    -0.064 C 
ATOM     23  N   UNL     1      34.519  -1.824  97.453  0.00  0.00    +0.379 N 
ATOM     24  C   UNL     1      33.404  -0.892  97.672  0.00  0.00    -0.096 C 
ATOM     25  H   UNL     1      34.580  -2.494  98.342  0.00  0.00    -0.082 HD
ATOM     26  C   UNL     1      34.329  -2.704  96.225  0.00  0.00    -0.064 C 
ATOM     27  C   UNL     1      35.532  -3.672  96.048  0.00  0.00    +0.066 C 
ENDBRANCH  19  20
ENDBRANCH  18  19
ENDBRANCH  14  15
ENDBRANCH  12  13
TORSDOF 6
ENDMDL
MODEL 5
REMARK VINA RESULT:      -6.8      1.852      2.380
REMARK  Name = C:\Users\Docking\Desktop\test protocol\1iep_ligandH.pdb
REMARK  8 active torsions:
REMARK  status: ('A' for Active; 'I' for Inactive)
REMARK    1  A    between atoms: _5  and  _11
REMARK    2  A    between atoms: _19  and  _21
REMARK    3  A    between atoms: _22  and  _66
REMARK    4  A    between atoms: _27  and  _30
REMARK    5  A    between atoms: _32  and  _33
REMARK    6  A    between atoms: _38  and  _43
REMARK    7  A    between atoms: _43  and  _46
REMARK    8  A    between atoms: _53  and  _55
REMARK                            x       y       z     vdW  Elec       q    Type
REMARK                         _______ _______ _______ _____ _____    ______ ____
ROOT
ATOM     10  C   UNL     1       7.382  17.104  89.172  0.00  0.00    +0.038 A 
ATOM     11  C   UNL     1       7.165  17.313  90.558  0.00  0.00    +0.047 A 
ATOM     12  C   UNL     1       7.716  18.474  91.239  0.00  0.00    +0.035 A 
ATOM     32  C   UNL     1       8.482  19.404  90.477  0.00  0.00    +0.024 A 
ATOM     33  C   UNL     1       8.713  19.207  89.068  0.00  0.00    +0.007 A 
ATOM     34  C   UNL     1       8.174  18.062  88.391  0.00  0.00    -0.029 A 
ATOM     35  C   UNL     1       8.459  17.898  86.880  0.00  0.00    +0.045 C 
ENDROOT
BRANCH  10   9
ATOM      4  C   UNL     1       7.554  12.484  87.882  0.00  0.00    +0.077 A 
ATOM      5  C   UNL     1       8.868  12.318  88.433  0.00  0.00    +0.048 A 
ATOM      6  C   UNL     1       9.468  13.448  89.033  0.00  0.00    +0.116 A 
ATOM      7  N   UNL     1       8.794  14.649  89.074  0.00  0.00    -0.223 NA
ATOM      8  C   UNL     1       7.528  14.776  88.532  0.00  0.00    +0.220 A 
ATOM      9  N   UNL     1       6.829  15.972  88.569  0.00  0.00    -0.283 N 
ATOM     36  H   UNL     1       5.900  16.027  88.151  0.00  0.00    +0.155 HD
ATOM     37  N   UNL     1       6.934  13.712  87.952  0.00  0.00    -0.214 NA
BRANCH   4   3
ATOM      1  C   UNL     1       6.199   8.952  86.887  0.00  0.00    +0.020 A 
ATOM      2  C   UNL     1       6.965   9.977  87.559  0.00  0.00    +0.013 A 
ATOM      3  C   UNL     1       6.788  11.383  87.218  0.00  0.00    +0.019 A 
ATOM     38  C   UNL     1       5.819  11.721  86.185  0.00  0.00    +0.120 A 
ATOM     39  N   UNL     1       5.097  10.712  85.555  0.00  0.00    -0.263 NA
ATOM     40  C   UNL     1       5.261   9.356  85.873  0.00  0.00    +0.111 A 
ENDBRANCH   4   3
ENDBRANCH  10   9
BRANCH  12  13
ATOM     13  N   UNL     1       7.536  18.734  92.646  0.00  0.00    -0.281 N 
ATOM     14  C   UNL     1       7.668  17.845  93.700  0.00  0.00    +0.248 C 
ATOM     30  O   UNL     1       7.753  16.633  93.576  0.00  0.00    -0.270 OA
ATOM     31  H   UNL     1       7.281  19.690  92.895  0.00  0.00    +0.155 HD
BRANCH  14  15
ATOM     15  C   UNL     1       7.695  18.380  95.096  0.00  0.00    +0.037 A 
ATOM     16  C   UNL     1       8.824  19.177  95.583  0.00  0.00    +0.013 A 
ATOM     17  C   UNL     1       8.833  19.666  96.939  0.00  0.00    +0.005 A 
ATOM     18  C   UNL     1       7.707  19.359  97.818  0.00  0.00    -0.033 A 
ATOM     28  C   UNL     1       6.598  18.570  97.308  0.00  0.00    +0.005 A 
ATOM     29  C   UNL     1       6.587  18.088  95.979  0.00  0.00    +0.013 A 
BRANCH  18  19
ATOM     19  C   UNL     1       7.642  19.821  99.286  0.00  0.00    +0.119 C 
BRANCH  19  20
ATOM     20  N   UNL     1       8.286  21.126  99.621  0.00  0.00    -0.302 NA
ATOM     21  C   UNL     1       8.666  21.216 101.102  0.00  0.00    +0.066 C 
ATOM     22  C   UNL     1       9.360  22.578 101.430  0.00  0.00    -0.064 C 
ATOM     23  N   UNL     1       8.430  23.728 101.039  0.00  0.00    +0.379 N 
ATOM     24  C   UNL     1       9.055  25.008 101.400  0.00  0.00    -0.096 C 
ATOM     25  H   UNL     1       7.496  23.626 101.639  0.00  0.00    -0.082 HD
ATOM     26  C   UNL     1       8.045  23.645  99.569  0.00  0.00    -0.064 C 
ATOM     27  C   UNL     1       7.383  22.276  99.247  0.00  0.00    +0.066 C 
ENDBRANCH  19  20
ENDBRANCH  18  19
ENDBRANCH  14  15
ENDBRANCH  12  13
TORSDOF 6
ENDMDL
