MODEL 1
REMARK VINA RESULT:      -8.3      0.000      0.000
REMARK  Name = C:\Users\Docking\Desktop\test protocol\1iep_ligandH.pdb
REMARK  8 active torsions:
REMARK  status: ('A' for Active; 'I' for Inactive)
REMARK    1  A    between atoms: _5  and  _11
REMARK    2  A    between atoms: _19  and  _21
REMARK    3  A    between atoms: _22  and  _66
REMARK    4  A    between atoms: _27  and  _30
REMARK    5  A    between atoms: _32  and  _33
REMARK    6  A    between atoms: _38  and  _43
REMARK    7  A    between atoms: _43  and  _46
REMARK    8  A    between atoms: _53  and  _55
REMARK                            x       y       z     vdW  Elec       q    Type
REMARK                         _______ _______ _______ _____ _____    ______ ____
ROOT
ATOM     10  C   UNL     1      28.072  11.445  30.723  0.00  0.00    +0.038 A 
ATOM     11  C   UNL     1      27.235  11.636  29.594  0.00  0.00    +0.047 A 
ATOM     12  C   UNL     1      26.056  12.485  29.666  0.00  0.00    +0.035 A 
ATOM     32  C   UNL     1      25.761  13.128  30.904  0.00  0.00    +0.024 A 
ATOM     33  C   UNL     1      26.601  12.944  32.062  0.00  0.00    +0.007 A 
ATOM     34  C   UNL     1      27.763  12.105  31.997  0.00  0.00    -0.029 A 
ATOM     35  C   UNL     1      28.623  11.940  33.272  0.00  0.00    +0.045 C 
ENDROOT
BRANCH  10   9
ATOM      4  C   UNL     1      32.395  10.421  28.907  0.00  0.00    +0.077 A 
ATOM      5  C   UNL     1      32.414  11.621  28.120  0.00  0.00    +0.048 A 
ATOM      6  C   UNL     1      31.289  12.471  28.206  0.00  0.00    +0.116 A 
ATOM      7  N   UNL     1      30.230  12.137  29.021  0.00  0.00    -0.223 NA
ATOM      8  C   UNL     1      30.242  10.971  29.765  0.00  0.00    +0.220 A 
ATOM      9  N   UNL     1      29.191  10.619  30.598  0.00  0.00    -0.283 N 
ATOM     36  H   UNL     1      29.236   9.747  31.124  0.00  0.00    +0.155 HD
ATOM     37  N   UNL     1      31.305  10.142  29.699  0.00  0.00    -0.214 NA
BRANCH   4   3
ATOM      1  C   UNL     1      34.454   7.131  29.394  0.00  0.00    +0.020 A 
ATOM      2  C   UNL     1      33.343   8.055  29.398  0.00  0.00    +0.013 A 
ATOM      3  C   UNL     1      33.511   9.424  28.925  0.00  0.00    +0.019 A 
ATOM     38  C   UNL     1      34.827   9.828  28.452  0.00  0.00    +0.120 A 
ATOM     39  N   UNL     1      35.878   8.917  28.462  0.00  0.00    -0.263 NA
ATOM     40  C   UNL     1      35.728   7.598  28.916  0.00  0.00    +0.111 A 
ENDBRANCH   4   3
ENDBRANCH  10   9
BRANCH  12  13
ATOM     13  N   UNL     1      25.165  12.710  28.555  0.00  0.00    -0.281 N 
ATOM     14  C   UNL     1      24.604  11.767  27.709  0.00  0.00    +0.248 C 
ATOM     30  O   UNL     1      24.955  10.598  27.648  0.00  0.00    -0.270 OA
ATOM     31  H   UNL     1      24.918  13.682  28.370  0.00  0.00    +0.155 HD
BRANCH  14  15
ATOM     15  C   UNL     1      23.504  12.187  26.789  0.00  0.00    +0.037 A 
ATOM     16  C   UNL     1      23.330  13.590  26.402  0.00  0.00    +0.013 A 
ATOM     17  C   UNL     1      22.250  13.970  25.527  0.00  0.00    +0.005 A 
ATOM     18  C   UNL     1      21.335  12.945  25.030  0.00  0.00    -0.033 A 
ATOM     28  C   UNL     1      21.534  11.560  25.426  0.00  0.00    +0.005 A 
ATOM     29  C   UNL     1      22.591  11.184  26.285  0.00  0.00    +0.013 A 
BRANCH  18  19
ATOM     19  C   UNL     1      20.143  13.263  24.109  0.00  0.00    +0.119 C 
BRANCH  19  20
ATOM     20  N   UNL     1      18.787  13.296  24.733  0.00  0.00    -0.302 NA
ATOM     21  C   UNL     1      17.692  12.869  23.751  0.00  0.00    +0.066 C 
ATOM     22  C   UNL     1      16.282  12.888  24.427  0.00  0.00    -0.064 C 
ATOM     23  N   UNL     1      16.002  14.288  24.975  0.00  0.00    +0.379 N 
ATOM     24  C   UNL     1      14.653  14.325  25.559  0.00  0.00    -0.096 C 
ATOM     25  H   UNL     1      16.017  14.997  24.115  0.00  0.00    -0.082 HD
ATOM     26  C   UNL     1      17.087  14.722  25.950  0.00  0.00    -0.064 C 
ATOM     27  C   UNL     1      18.487  14.671  25.277  0.00  0.00    +0.066 C 
ENDBRANCH  19  20
ENDBRANCH  18  19
ENDBRANCH  14  15
ENDBRANCH  12  13
TORSDOF 6
ENDMDL
MODEL 2
REMARK VINA RESULT:      -8.1      4.085      8.635
REMARK  Name = C:\Users\Docking\Desktop\test protocol\1iep_ligandH.pdb
REMARK  8 active torsions:
REMARK  status: ('A' for Active; 'I' for Inactive)
REMARK    1  A    between atoms: _5  and  _11
REMARK    2  A    between atoms: _19  and  _21
REMARK    3  A    between atoms: _22  and  _66
REMARK    4  A    between atoms: _27  and  _30
REMARK    5  A    between atoms: _32  and  _33
REMARK    6  A    between atoms: _38  and  _43
REMARK    7  A    between atoms: _43  and  _46
REMARK    8  A    between atoms: _53  and  _55
REMARK                            x       y       z     vdW  Elec       q    Type
REMARK                         _______ _______ _______ _____ _____    ______ ____
ROOT
ATOM     10  C   UNL     1      21.660  12.386  24.812  0.00  0.00    +0.038 A 
ATOM     11  C   UNL     1      20.390  12.958  25.081  0.00  0.00    +0.047 A 
ATOM     12  C   UNL     1      19.524  13.407  24.002  0.00  0.00    +0.035 A 
ATOM     32  C   UNL     1      19.981  13.256  22.661  0.00  0.00    +0.024 A 
ATOM     33  C   UNL     1      21.269  12.677  22.370  0.00  0.00    +0.007 A 
ATOM     34  C   UNL     1      22.130  12.235  23.430  0.00  0.00    -0.029 A 
ATOM     35  C   UNL     1      23.503  11.628  23.059  0.00  0.00    +0.045 C 
ENDROOT
BRANCH  10   9
ATOM      4  C   UNL     1      25.228  13.064  27.950  0.00  0.00    +0.077 A 
ATOM      5  C   UNL     1      25.562  14.340  27.384  0.00  0.00    +0.048 A 
ATOM      6  C   UNL     1      24.796  14.782  26.283  0.00  0.00    +0.116 A 
ATOM      7  N   UNL     1      23.774  13.998  25.791  0.00  0.00    -0.223 NA
ATOM      8  C   UNL     1      23.479  12.772  26.359  0.00  0.00    +0.220 A 
ATOM      9  N   UNL     1      22.451  11.972  25.887  0.00  0.00    -0.283 N 
ATOM     36  H   UNL     1      22.270  11.071  26.328  0.00  0.00    +0.155 HD
ATOM     37  N   UNL     1      24.197  12.327  27.411  0.00  0.00    -0.214 NA
BRANCH   4   3
ATOM      1  C   UNL     1      26.062  11.718  31.527  0.00  0.00    +0.020 A 
ATOM      2  C   UNL     1      25.327  12.306  30.431  0.00  0.00    +0.013 A 
ATOM      3  C   UNL     1      25.944  12.462  29.119  0.00  0.00    +0.019 A 
ATOM     38  C   UNL     1      27.316  12.008  28.949  0.00  0.00    +0.120 A 
ATOM     39  N   UNL     1      27.999  11.446  30.023  0.00  0.00    -0.263 NA
ATOM     40  C   UNL     1      27.416  11.293  31.290  0.00  0.00    +0.111 A 
ENDBRANCH   4   3
ENDBRANCH  10   9
BRANCH  12  13
ATOM     13  N   UNL     1      18.228  14.003  24.215  0.00  0.00    -0.281 N 
ATOM     14  C   UNL     1      16.988  13.388  24.156  0.00  0.00    +0.248 C 
ATOM     30  O   UNL     1      16.791  12.271  23.700  0.00  0.00    -0.270 OA
ATOM     31  H   UNL     1      18.224  14.999  24.434  0.00  0.00    +0.155 HD
BRANCH  14  15
ATOM     15  C   UNL     1      15.792  14.125  24.665  0.00  0.00    +0.037 A 
ATOM     16  C   UNL     1      14.976  13.588  25.757  0.00  0.00    +0.013 A 
ATOM     17  C   UNL     1      13.817  14.312  26.217  0.00  0.00    +0.005 A 
ATOM     18  C   UNL     1      13.468  15.582  25.586  0.00  0.00    -0.033 A 
ATOM     28  C   UNL     1      14.298  16.094  24.508  0.00  0.00    +0.005 A 
ATOM     29  C   UNL     1      15.434  15.387  24.053  0.00  0.00    +0.013 A 
BRANCH  18  19
ATOM     19  C   UNL     1      12.237  16.411  25.998  0.00  0.00    +0.119 C 
BRANCH  19  20
ATOM     20  N   UNL     1      11.112  15.683  26.656  0.00  0.00    -0.302 NA
ATOM     21  C   UNL     1       9.754  16.064  26.059  0.00  0.00    +0.066 C 
ATOM     22  C   UNL     1       8.590  15.276  26.744  0.00  0.00    -0.064 C 
ATOM     23  N   UNL     1       8.614  15.543  28.250  0.00  0.00    +0.379 N 
ATOM     24  C   UNL     1       7.485  14.851  28.889  0.00  0.00    -0.096 C 
ATOM     25  H   UNL     1       8.468  16.638  28.401  0.00  0.00    -0.082 HD
ATOM     26  C   UNL     1       9.961  15.170  28.851  0.00  0.00    -0.064 C 
ATOM     27  C   UNL     1      11.114  15.936  28.143  0.00  0.00    +0.066 C 
ENDBRANCH  19  20
ENDBRANCH  18  19
ENDBRANCH  14  15
ENDBRANCH  12  13
TORSDOF 6
ENDMDL
MODEL 3
REMARK VINA RESULT:      -8.0      9.611     15.496
REMARK  Name = C:\Users\Docking\Desktop\test protocol\1iep_ligandH.pdb
REMARK  8 active torsions:
REMARK  status: ('A' for Active; 'I' for Inactive)
REMARK    1  A    between atoms: _5  and  _11
REMARK    2  A    between atoms: _19  and  _21
REMARK    3  A    between atoms: _22  and  _66
REMARK    4  A    between atoms: _27  and  _30
REMARK    5  A    between atoms: _32  and  _33
REMARK    6  A    between atoms: _38  and  _43
REMARK    7  A    between atoms: _43  and  _46
REMARK    8  A    between atoms: _53  and  _55
REMARK                            x       y       z     vdW  Elec       q    Type
REMARK                         _______ _______ _______ _____ _____    ______ ____
ROOT
ATOM     10  C   UNL     1      19.091  10.779  19.981  0.00  0.00    +0.038 A 
ATOM     11  C   UNL     1      19.799   9.607  20.350  0.00  0.00    +0.047 A 
ATOM     12  C   UNL     1      20.883   9.092  19.528  0.00  0.00    +0.035 A 
ATOM     32  C   UNL     1      21.222   9.798  18.337  0.00  0.00    +0.024 A 
ATOM     33  C   UNL     1      20.512  10.990  17.946  0.00  0.00    +0.007 A 
ATOM     34  C   UNL     1      19.440  11.501  18.752  0.00  0.00    -0.029 A 
ATOM     35  C   UNL     1      18.710  12.781  18.280  0.00  0.00    +0.045 C 
ENDROOT
BRANCH  10   9
ATOM      4  C   UNL     1      17.473  13.204  23.794  0.00  0.00    +0.077 A 
ATOM      5  C   UNL     1      18.799  13.585  24.188  0.00  0.00    +0.048 A 
ATOM      6  C   UNL     1      19.870  13.130  23.387  0.00  0.00    +0.116 A 
ATOM      7  N   UNL     1      19.622  12.353  22.276  0.00  0.00    -0.223 NA
ATOM      8  C   UNL     1      18.332  12.003  21.924  0.00  0.00    +0.220 A 
ATOM      9  N   UNL     1      18.059  11.229  20.807  0.00  0.00    -0.283 N 
ATOM     36  H   UNL     1      17.094  10.985  20.586  0.00  0.00    +0.155 HD
ATOM     37  N   UNL     1      17.292  12.423  22.674  0.00  0.00    -0.214 NA
BRANCH   4   3
ATOM      1  C   UNL     1      14.470  13.249  26.299  0.00  0.00    +0.020 A 
ATOM      2  C   UNL     1      15.664  12.812  25.613  0.00  0.00    +0.013 A 
ATOM      3  C   UNL     1      16.238  13.609  24.536  0.00  0.00    +0.019 A 
ATOM     38  C   UNL     1      15.575  14.854  24.176  0.00  0.00    +0.120 A 
ATOM     39  N   UNL     1      14.425  15.248  24.853  0.00  0.00    -0.263 NA
ATOM     40  C   UNL     1      13.863  14.488  25.889  0.00  0.00    +0.111 A 
ENDBRANCH   4   3
ENDBRANCH  10   9
BRANCH  12  13
ATOM     13  N   UNL     1      21.632   7.902  19.848  0.00  0.00    -0.281 N 
ATOM     14  C   UNL     1      21.653   6.698  19.163  0.00  0.00    +0.248 C 
ATOM     30  O   UNL     1      20.861   6.390  18.284  0.00  0.00    -0.270 OA
ATOM     31  H   UNL     1      22.218   7.953  20.682  0.00  0.00    +0.155 HD
BRANCH  14  15
ATOM     15  C   UNL     1      22.694   5.686  19.513  0.00  0.00    +0.037 A 
ATOM     16  C   UNL     1      23.531   5.838  20.706  0.00  0.00    +0.013 A 
ATOM     17  C   UNL     1      24.541   4.855  21.012  0.00  0.00    +0.005 A 
ATOM     18  C   UNL     1      24.717   3.709  20.123  0.00  0.00    -0.033 A 
ATOM     28  C   UNL     1      23.869   3.580  18.949  0.00  0.00    +0.005 A 
ATOM     29  C   UNL     1      22.880   4.542  18.646  0.00  0.00    +0.013 A 
BRANCH  18  19
ATOM     19  C   UNL     1      25.783   2.623  20.359  0.00  0.00    +0.119 C 
BRANCH  19  20
ATOM     20  N   UNL     1      25.543   1.283  19.745  0.00  0.00    -0.302 NA
ATOM     21  C   UNL     1      24.656   0.398  20.625  0.00  0.00    +0.066 C 
ATOM     22  C   UNL     1      24.396  -0.991  19.956  0.00  0.00    -0.064 C 
ATOM     23  N   UNL     1      25.735  -1.676  19.673  0.00  0.00    +0.379 N 
ATOM     24  C   UNL     1      25.493  -3.007  19.097  0.00  0.00    -0.096 C 
ATOM     25  H   UNL     1      26.254  -1.819  20.649  0.00  0.00    -0.082 HD
ATOM     26  C   UNL     1      26.623  -0.801  18.800  0.00  0.00    -0.064 C 
ATOM     27  C   UNL     1      26.851   0.588  19.460  0.00  0.00    +0.066 C 
ENDBRANCH  19  20
ENDBRANCH  18  19
ENDBRANCH  14  15
ENDBRANCH  12  13
TORSDOF 6
ENDMDL
MODEL 4
REMARK VINA RESULT:      -8.0     26.437     29.535
REMARK  Name = C:\Users\Docking\Desktop\test protocol\1iep_ligandH.pdb
REMARK  8 active torsions:
REMARK  status: ('A' for Active; 'I' for Inactive)
REMARK    1  A    between atoms: _5  and  _11
REMARK    2  A    between atoms: _19  and  _21
REMARK    3  A    between atoms: _22  and  _66
REMARK    4  A    between atoms: _27  and  _30
REMARK    5  A    between atoms: _32  and  _33
REMARK    6  A    between atoms: _38  and  _43
REMARK    7  A    between atoms: _43  and  _46
REMARK    8  A    between atoms: _53  and  _55
REMARK                            x       y       z     vdW  Elec       q    Type
REMARK                         _______ _______ _______ _____ _____    ______ ____
ROOT
ATOM     10  C   UNL     1       7.852   5.008   7.320  0.00  0.00    +0.038 A 
ATOM     11  C   UNL     1       6.576   5.025   7.940  0.00  0.00    +0.047 A 
ATOM     12  C   UNL     1       5.494   5.841   7.414  0.00  0.00    +0.035 A 
ATOM     32  C   UNL     1       5.745   6.628   6.252  0.00  0.00    +0.024 A 
ATOM     33  C   UNL     1       7.036   6.624   5.609  0.00  0.00    +0.007 A 
ATOM     34  C   UNL     1       8.108   5.822   6.126  0.00  0.00    -0.029 A 
ATOM     35  C   UNL     1       9.473   5.861   5.400  0.00  0.00    +0.045 C 
ENDROOT
BRANCH  10   9
ATOM      4  C   UNL     1       9.909   0.741   8.090  0.00  0.00    +0.077 A 
ATOM      5  C   UNL     1       8.885   0.049   7.362  0.00  0.00    +0.048 A 
ATOM      6  C   UNL     1       7.843   0.828   6.811  0.00  0.00    +0.116 A 
ATOM      7  N   UNL     1       7.835   2.195   6.981  0.00  0.00    -0.223 NA
ATOM      8  C   UNL     1       8.838   2.830   7.691  0.00  0.00    +0.220 A 
ATOM      9  N   UNL     1       8.855   4.205   7.868  0.00  0.00    -0.283 N 
ATOM     36  H   UNL     1       9.608   4.635   8.404  0.00  0.00    +0.155 HD
ATOM     37  N   UNL     1       9.844   2.109   8.228  0.00  0.00    -0.214 NA
BRANCH   4   3
ATOM      1  C   UNL     1      12.201  -1.946   9.772  0.00  0.00    +0.020 A 
ATOM      2  C   UNL     1      11.044  -1.334   9.161  0.00  0.00    +0.013 A 
ATOM      3  C   UNL     1      11.079   0.058   8.728  0.00  0.00    +0.019 A 
ATOM     38  C   UNL     1      12.310   0.807   8.929  0.00  0.00    +0.120 A 
ATOM     39  N   UNL     1      13.408   0.191   9.521  0.00  0.00    -0.263 NA
ATOM     40  C   UNL     1      13.385  -1.146   9.944  0.00  0.00    +0.111 A 
ENDBRANCH   4   3
ENDBRANCH  10   9
BRANCH  12  13
ATOM     13  N   UNL     1       4.181   5.905   8.006  0.00  0.00    -0.281 N 
ATOM     14  C   UNL     1       3.196   4.930   8.000  0.00  0.00    +0.248 C 
ATOM     30  O   UNL     1       3.217   3.930   7.298  0.00  0.00    -0.270 OA
ATOM     31  H   UNL     1       3.948   6.774   8.487  0.00  0.00    +0.155 HD
BRANCH  14  15
ATOM     15  C   UNL     1       2.010   5.097   8.894  0.00  0.00    +0.037 A 
ATOM     16  C   UNL     1       1.254   3.939   9.378  0.00  0.00    +0.013 A 
ATOM     17  C   UNL     1       0.103   4.130  10.225  0.00  0.00    +0.005 A 
ATOM     18  C   UNL     1      -0.298   5.485  10.595  0.00  0.00    -0.033 A 
ATOM     28  C   UNL     1       0.474   6.616  10.105  0.00  0.00    +0.005 A 
ATOM     29  C   UNL     1       1.601   6.433   9.274  0.00  0.00    +0.013 A 
BRANCH  18  19
ATOM     19  C   UNL     1      -1.524   5.783  11.477  0.00  0.00    +0.119 C 
BRANCH  19  20
ATOM     20  N   UNL     1      -1.506   7.049  12.269  0.00  0.00    -0.302 NA
ATOM     21  C   UNL     1      -0.839   6.863  13.635  0.00  0.00    +0.066 C 
ATOM     22  C   UNL     1      -0.808   8.202  14.440  0.00  0.00    -0.064 C 
ATOM     23  N   UNL     1      -2.234   8.730  14.602  0.00  0.00    +0.379 N 
ATOM     24  C   UNL     1      -2.214   9.959  15.409  0.00  0.00    -0.096 C 
ATOM     25  H   UNL     1      -2.816   7.964  15.166  0.00  0.00    -0.082 HD
ATOM     26  C   UNL     1      -2.906   8.916  13.249  0.00  0.00    -0.064 C 
ATOM     27  C   UNL     1      -2.905   7.586  12.444  0.00  0.00    +0.066 C 
ENDBRANCH  19  20
ENDBRANCH  18  19
ENDBRANCH  14  15
ENDBRANCH  12  13
TORSDOF 6
ENDMDL
MODEL 5
REMARK VINA RESULT:      -7.9     31.673     34.190
REMARK  Name = C:\Users\Docking\Desktop\test protocol\1iep_ligandH.pdb
REMARK  8 active torsions:
REMARK  status: ('A' for Active; 'I' for Inactive)
REMARK    1  A    between atoms: _5  and  _11
REMARK    2  A    between atoms: _19  and  _21
REMARK    3  A    between atoms: _22  and  _66
REMARK    4  A    between atoms: _27  and  _30
REMARK    5  A    between atoms: _32  and  _33
REMARK    6  A    between atoms: _38  and  _43
REMARK    7  A    between atoms: _43  and  _46
REMARK    8  A    between atoms: _53  and  _55
REMARK                            x       y       z     vdW  Elec       q    Type
REMARK                         _______ _______ _______ _____ _____    ______ ____
ROOT
ATOM     10  C   UNL     1      16.921 -17.537  32.758  0.00  0.00    +0.038 A 
ATOM     11  C   UNL     1      17.317 -18.207  31.573  0.00  0.00    +0.047 A 
ATOM     12  C   UNL     1      18.584 -18.917  31.497  0.00  0.00    +0.035 A 
ATOM     32  C   UNL     1      19.423 -18.927  32.649  0.00  0.00    +0.024 A 
ATOM     33  C   UNL     1      19.037 -18.251  33.862  0.00  0.00    +0.007 A 
ATOM     34  C   UNL     1      17.789 -17.546  33.942  0.00  0.00    -0.029 A 
ATOM     35  C   UNL     1      17.430 -16.833  35.266  0.00  0.00    +0.045 C 
ENDROOT
BRANCH  10   9
ATOM      4  C   UNL     1      12.187 -17.406  33.537  0.00  0.00    +0.077 A 
ATOM      5  C   UNL     1      12.151 -18.789  33.916  0.00  0.00    +0.048 A 
ATOM      6  C   UNL     1      13.371 -19.501  33.890  0.00  0.00    +0.116 A 
ATOM      7  N   UNL     1      14.535 -18.866  33.512  0.00  0.00    -0.223 NA
ATOM      8  C   UNL     1      14.534 -17.531  33.151  0.00  0.00    +0.220 A 
ATOM      9  N   UNL     1      15.694 -16.870  32.776  0.00  0.00    -0.283 N 
ATOM     36  H   UNL     1      15.650 -15.887  32.510  0.00  0.00    +0.155 HD
ATOM     37  N   UNL     1      13.381 -16.830  33.167  0.00  0.00    -0.214 NA
BRANCH   4   3
ATOM      1  C   UNL     1       8.916 -15.578  32.415  0.00  0.00    +0.020 A 
ATOM      2  C   UNL     1      10.067 -16.450  32.384  0.00  0.00    +0.013 A 
ATOM      3  C   UNL     1      10.980 -16.519  33.517  0.00  0.00    +0.019 A 
ATOM     38  C   UNL     1      10.697 -15.688  34.677  0.00  0.00    +0.120 A 
ATOM     39  N   UNL     1       9.582 -14.856  34.679  0.00  0.00    -0.263 NA
ATOM     40  C   UNL     1       8.697 -14.779  33.593  0.00  0.00    +0.111 A 
ENDBRANCH   4   3
ENDBRANCH  10   9
BRANCH  12  13
ATOM     13  N   UNL     1      19.042 -19.609  30.317  0.00  0.00    -0.281 N 
ATOM     14  C   UNL     1      18.874 -20.945  29.994  0.00  0.00    +0.248 C 
ATOM     30  O   UNL     1      18.487 -21.802  30.776  0.00  0.00    -0.270 OA
ATOM     31  H   UNL     1      19.552 -19.044  29.638  0.00  0.00    +0.155 HD
BRANCH  14  15
ATOM     15  C   UNL     1      19.197 -21.399  28.607  0.00  0.00    +0.037 A 
ATOM     16  C   UNL     1      18.182 -22.030  27.759  0.00  0.00    +0.013 A 
ATOM     17  C   UNL     1      18.524 -22.474  26.431  0.00  0.00    +0.005 A 
ATOM     18  C   UNL     1      19.889 -22.287  25.943  0.00  0.00    -0.033 A 
ATOM     28  C   UNL     1      20.874 -21.654  26.804  0.00  0.00    +0.005 A 
ATOM     29  C   UNL     1      20.542 -21.218  28.106  0.00  0.00    +0.013 A 
BRANCH  18  19
ATOM     19  C   UNL     1      20.348 -22.750  24.547  0.00  0.00    +0.119 C 
BRANCH  19  20
ATOM     20  N   UNL     1      20.952 -21.720  23.650  0.00  0.00    -0.302 NA
ATOM     21  C   UNL     1      20.212 -21.618  22.313  0.00  0.00    +0.066 C 
ATOM     22  C   UNL     1      20.843 -20.520  21.396  0.00  0.00    -0.064 C 
ATOM     23  N   UNL     1      22.323 -20.834  21.174  0.00  0.00    +0.379 N 
ATOM     24  C   UNL     1      22.906 -19.836  20.265  0.00  0.00    -0.096 C 
ATOM     25  H   UNL     1      22.386 -21.827  20.671  0.00  0.00    -0.082 HD
ATOM     26  C   UNL     1      23.066 -20.940  22.498  0.00  0.00    -0.064 C 
ATOM     27  C   UNL     1      22.413 -22.013  23.414  0.00  0.00    +0.066 C 
ENDBRANCH  19  20
ENDBRANCH  18  19
ENDBRANCH  14  15
ENDBRANCH  12  13
TORSDOF 6
ENDMDL
