MODEL 1
REMARK VINA RESULT:      -8.3      0.000      0.000
REMARK  Name = C:\Users\Docking\Desktop\test protocol\1iep_ligandH.pdb
REMARK  8 active torsions:
REMARK  status: ('A' for Active; 'I' for Inactive)
REMARK    1  A    between atoms: _5  and  _11
REMARK    2  A    between atoms: _19  and  _21
REMARK    3  A    between atoms: _22  and  _66
REMARK    4  A    between atoms: _27  and  _30
REMARK    5  A    between atoms: _32  and  _33
REMARK    6  A    between atoms: _38  and  _43
REMARK    7  A    between atoms: _43  and  _46
REMARK    8  A    between atoms: _53  and  _55
REMARK                            x       y       z     vdW  Elec       q    Type
REMARK                         _______ _______ _______ _____ _____    ______ ____
ROOT
ATOM     10  C   UNL     1      -0.844   9.474 -13.208  0.00  0.00    +0.038 A 
ATOM     11  C   UNL     1      -1.029   8.640 -12.076  0.00  0.00    +0.047 A 
ATOM     12  C   UNL     1      -2.351   8.428 -11.505  0.00  0.00    +0.035 A 
ATOM     32  C   UNL     1      -3.462   9.080 -12.115  0.00  0.00    +0.024 A 
ATOM     33  C   UNL     1      -3.292   9.932 -13.266  0.00  0.00    +0.007 A 
ATOM     34  C   UNL     1      -1.990  10.146 -13.831  0.00  0.00    -0.029 A 
ATOM     35  C   UNL     1      -1.866  11.075 -15.062  0.00  0.00    +0.045 C 
ENDROOT
BRANCH  10   9
ATOM      4  C   UNL     1       2.809   8.129 -16.016  0.00  0.00    +0.077 A 
ATOM      5  C   UNL     1       2.095   6.980 -16.495  0.00  0.00    +0.048 A 
ATOM      6  C   UNL     1       0.794   6.767 -15.988  0.00  0.00    +0.116 A 
ATOM      7  N   UNL     1       0.256   7.644 -15.072  0.00  0.00    -0.223 NA
ATOM      8  C   UNL     1       0.971   8.742 -14.630  0.00  0.00    +0.220 A 
ATOM      9  N   UNL     1       0.447   9.642 -13.715  0.00  0.00    -0.283 N 
ATOM     36  H   UNL     1       1.009  10.435 -13.408  0.00  0.00    +0.155 HD
ATOM     37  N   UNL     1       2.217   8.967 -15.098  0.00  0.00    -0.214 NA
BRANCH   4   3
ATOM      1  C   UNL     1       6.455   7.918 -17.417  0.00  0.00    +0.020 A 
ATOM      2  C   UNL     1       5.131   7.517 -17.002  0.00  0.00    +0.013 A 
ATOM      3  C   UNL     1       4.192   8.491 -16.460  0.00  0.00    +0.019 A 
ATOM     38  C   UNL     1       4.628   9.875 -16.351  0.00  0.00    +0.120 A 
ATOM     39  N   UNL     1       5.910  10.232 -16.757  0.00  0.00    -0.263 NA
ATOM     40  C   UNL     1       6.822   9.303 -17.279  0.00  0.00    +0.111 A 
ENDBRANCH   4   3
ENDBRANCH  10   9
BRANCH  12  13
ATOM     13  N   UNL     1      -2.599   7.599 -10.352  0.00  0.00    -0.281 N 
ATOM     14  C   UNL     1      -3.720   6.832 -10.080  0.00  0.00    +0.248 C 
ATOM     30  O   UNL     1      -4.775   6.910 -10.691  0.00  0.00    -0.270 OA
ATOM     31  H   UNL     1      -1.858   7.575  -9.651  0.00  0.00    +0.155 HD
BRANCH  14  15
ATOM     15  C   UNL     1      -3.665   5.845  -8.959  0.00  0.00    +0.037 A 
ATOM     16  C   UNL     1      -2.499   4.978  -8.767  0.00  0.00    +0.013 A 
ATOM     17  C   UNL     1      -2.479   4.023  -7.687  0.00  0.00    +0.005 A 
ATOM     18  C   UNL     1      -3.629   3.931  -6.790  0.00  0.00    -0.033 A 
ATOM     28  C   UNL     1      -4.770   4.807  -7.001  0.00  0.00    +0.005 A 
ATOM     29  C   UNL     1      -4.793   5.744  -8.059  0.00  0.00    +0.013 A 
BRANCH  18  19
ATOM     19  C   UNL     1      -3.703   2.926  -5.625  0.00  0.00    +0.119 C 
BRANCH  19  20
ATOM     20  N   UNL     1      -2.470   2.140  -5.321  0.00  0.00    -0.302 NA
ATOM     21  C   UNL     1      -2.797   0.743  -4.787  0.00  0.00    +0.066 C 
ATOM     22  C   UNL     1      -1.497  -0.074  -4.495  0.00  0.00    -0.064 C 
ATOM     23  N   UNL     1      -0.626   0.696  -3.501  0.00  0.00    +0.379 N 
ATOM     24  C   UNL     1       0.570  -0.096  -3.181  0.00  0.00    -0.096 C 
ATOM     25  H   UNL     1      -1.213   0.818  -2.561  0.00  0.00    -0.082 HD
ATOM     26  C   UNL     1      -0.298   2.088  -4.024  0.00  0.00    -0.064 C 
ATOM     27  C   UNL     1      -1.598   2.880  -4.338  0.00  0.00    +0.066 C 
ENDBRANCH  19  20
ENDBRANCH  18  19
ENDBRANCH  14  15
ENDBRANCH  12  13
TORSDOF 6
ENDMDL
MODEL 2
REMARK VINA RESULT:      -8.2     32.082     34.611
REMARK  Name = C:\Users\Docking\Desktop\test protocol\1iep_ligandH.pdb
REMARK  8 active torsions:
REMARK  status: ('A' for Active; 'I' for Inactive)
REMARK    1  A    between atoms: _5  and  _11
REMARK    2  A    between atoms: _19  and  _21
REMARK    3  A    between atoms: _22  and  _66
REMARK    4  A    between atoms: _27  and  _30
REMARK    5  A    between atoms: _32  and  _33
REMARK    6  A    between atoms: _38  and  _43
REMARK    7  A    between atoms: _43  and  _46
REMARK    8  A    between atoms: _53  and  _55
REMARK                            x       y       z     vdW  Elec       q    Type
REMARK                         _______ _______ _______ _____ _____    ______ ____
ROOT
ATOM     10  C   UNL     1      18.502  24.191  11.799  0.00  0.00    +0.038 A 
ATOM     11  C   UNL     1      18.966  23.694  10.554  0.00  0.00    +0.047 A 
ATOM     12  C   UNL     1      20.299  23.127  10.420  0.00  0.00    +0.035 A 
ATOM     32  C   UNL     1      21.132  23.079  11.576  0.00  0.00    +0.024 A 
ATOM     33  C   UNL     1      20.677  23.581  12.849  0.00  0.00    +0.007 A 
ATOM     34  C   UNL     1      19.364  24.144  12.986  0.00  0.00    -0.029 A 
ATOM     35  C   UNL     1      18.931  24.673  14.373  0.00  0.00    +0.045 C 
ENDROOT
BRANCH  10   9
ATOM      4  C   UNL     1      15.238  27.531  10.692  0.00  0.00    +0.077 A 
ATOM      5  C   UNL     1      16.186  28.290   9.929  0.00  0.00    +0.048 A 
ATOM      6  C   UNL     1      17.505  27.790   9.852  0.00  0.00    +0.116 A 
ATOM      7  N   UNL     1      17.840  26.618  10.494  0.00  0.00    -0.223 NA
ATOM      8  C   UNL     1      16.901  25.911  11.223  0.00  0.00    +0.220 A 
ATOM      9  N   UNL     1      17.214  24.726  11.870  0.00  0.00    -0.283 N 
ATOM     36  H   UNL     1      16.495  24.238  12.404  0.00  0.00    +0.155 HD
ATOM     37  N   UNL     1      15.635  26.368  11.313  0.00  0.00    -0.214 NA
BRANCH   4   3
ATOM      1  C   UNL     1      11.360  27.393  11.188  0.00  0.00    +0.020 A 
ATOM      2  C   UNL     1      12.728  26.958  11.025  0.00  0.00    +0.013 A 
ATOM      3  C   UNL     1      13.804  27.928  10.865  0.00  0.00    +0.019 A 
ATOM     38  C   UNL     1      13.460  29.341  10.876  0.00  0.00    +0.120 A 
ATOM     39  N   UNL     1      12.134  29.731  11.034  0.00  0.00    -0.263 NA
ATOM     40  C   UNL     1      11.089  28.807  11.187  0.00  0.00    +0.111 A 
ENDBRANCH   4   3
ENDBRANCH  10   9
BRANCH  12  13
ATOM     13  N   UNL     1      20.828  22.614   9.181  0.00  0.00    -0.281 N 
ATOM     14  C   UNL     1      21.512  23.306   8.195  0.00  0.00    +0.248 C 
ATOM     30  O   UNL     1      21.588  24.524   8.132  0.00  0.00    -0.270 OA
ATOM     31  H   UNL     1      20.679  21.619   9.009  0.00  0.00    +0.155 HD
BRANCH  14  15
ATOM     15  C   UNL     1      22.200  22.535   7.116  0.00  0.00    +0.037 A 
ATOM     16  C   UNL     1      21.924  21.111   6.905  0.00  0.00    +0.013 A 
ATOM     17  C   UNL     1      22.614  20.387   5.867  0.00  0.00    +0.005 A 
ATOM     18  C   UNL     1      23.587  21.086   5.032  0.00  0.00    -0.033 A 
ATOM     28  C   UNL     1      23.839  22.499   5.260  0.00  0.00    +0.005 A 
ATOM     29  C   UNL     1      23.165  23.212   6.276  0.00  0.00    +0.013 A 
BRANCH  18  19
ATOM     19  C   UNL     1      24.386  20.387   3.915  0.00  0.00    +0.119 C 
BRANCH  19  20
ATOM     20  N   UNL     1      24.234  18.907   3.790  0.00  0.00    -0.302 NA
ATOM     21  C   UNL     1      25.477  18.158   4.277  0.00  0.00    +0.066 C 
ATOM     22  C   UNL     1      25.292  16.610   4.159  0.00  0.00    -0.064 C 
ATOM     23  N   UNL     1      24.975  16.246   2.708  0.00  0.00    +0.379 N 
ATOM     24  C   UNL     1      24.857  14.786   2.583  0.00  0.00    -0.096 C 
ATOM     25  H   UNL     1      25.838  16.571   2.082  0.00  0.00    -0.082 HD
ATOM     26  C   UNL     1      23.741  16.988   2.214  0.00  0.00    -0.064 C 
ATOM     27  C   UNL     1      23.924  18.524   2.363  0.00  0.00    +0.066 C 
ENDBRANCH  19  20
ENDBRANCH  18  19
ENDBRANCH  14  15
ENDBRANCH  12  13
TORSDOF 6
ENDMDL
MODEL 3
REMARK VINA RESULT:      -7.9      2.358     12.457
REMARK  Name = C:\Users\Docking\Desktop\test protocol\1iep_ligandH.pdb
REMARK  8 active torsions:
REMARK  status: ('A' for Active; 'I' for Inactive)
REMARK    1  A    between atoms: _5  and  _11
REMARK    2  A    between atoms: _19  and  _21
REMARK    3  A    between atoms: _22  and  _66
REMARK    4  A    between atoms: _27  and  _30
REMARK    5  A    between atoms: _32  and  _33
REMARK    6  A    between atoms: _38  and  _43
REMARK    7  A    between atoms: _43  and  _46
REMARK    8  A    between atoms: _53  and  _55
REMARK                            x       y       z     vdW  Elec       q    Type
REMARK                         _______ _______ _______ _____ _____    ______ ____
ROOT
ATOM     10  C   UNL     1      -1.834   8.828 -11.978  0.00  0.00    +0.038 A 
ATOM     11  C   UNL     1      -0.504   8.725 -12.460  0.00  0.00    +0.047 A 
ATOM     12  C   UNL     1      -0.115   9.324 -13.726  0.00  0.00    +0.035 A 
ATOM     32  C   UNL     1      -1.105  10.024 -14.476  0.00  0.00    +0.024 A 
ATOM     33  C   UNL     1      -2.461  10.138 -14.001  0.00  0.00    +0.007 A 
ATOM     34  C   UNL     1      -2.852   9.547 -12.753  0.00  0.00    -0.029 A 
ATOM     35  C   UNL     1      -4.322   9.695 -12.297  0.00  0.00    +0.045 C 
ENDROOT
BRANCH  10   9
ATOM      4  C   UNL     1      -3.219   5.071  -9.331  0.00  0.00    +0.077 A 
ATOM      5  C   UNL     1      -3.342   4.228 -10.486  0.00  0.00    +0.048 A 
ATOM      6  C   UNL     1      -3.048   4.802 -11.743  0.00  0.00    +0.116 A 
ATOM      7  N   UNL     1      -2.658   6.121 -11.827  0.00  0.00    -0.223 NA
ATOM      8  C   UNL     1      -2.551   6.907 -10.694  0.00  0.00    +0.220 A 
ATOM      9  N   UNL     1      -2.154   8.234 -10.755  0.00  0.00    -0.283 N 
ATOM     36  H   UNL     1      -2.094   8.782  -9.897  0.00  0.00    +0.155 HD
ATOM     37  N   UNL     1      -2.828   6.383  -9.482  0.00  0.00    -0.214 NA
BRANCH   4   3
ATOM      1  C   UNL     1      -4.893   4.535  -5.837  0.00  0.00    +0.020 A 
ATOM      2  C   UNL     1      -4.676   5.010  -7.184  0.00  0.00    +0.013 A 
ATOM      3  C   UNL     1      -3.493   4.609  -7.934  0.00  0.00    +0.019 A 
ATOM     38  C   UNL     1      -2.541   3.718  -7.287  0.00  0.00    +0.120 A 
ATOM     39  N   UNL     1      -2.776   3.278  -5.988  0.00  0.00    -0.263 NA
ATOM     40  C   UNL     1      -3.911   3.659  -5.256  0.00  0.00    +0.111 A 
ENDBRANCH   4   3
ENDBRANCH  10   9
BRANCH  12  13
ATOM     13  N   UNL     1       1.218   9.245 -14.271  0.00  0.00    -0.281 N 
ATOM     14  C   UNL     1       1.827   8.160 -14.879  0.00  0.00    +0.248 C 
ATOM     30  O   UNL     1       1.388   7.019 -14.856  0.00  0.00    -0.270 OA
ATOM     31  H   UNL     1       1.782  10.092 -14.198  0.00  0.00    +0.155 HD
BRANCH  14  15
ATOM     15  C   UNL     1       3.116   8.368 -15.606  0.00  0.00    +0.037 A 
ATOM     16  C   UNL     1       4.065   7.269 -15.800  0.00  0.00    +0.013 A 
ATOM     17  C   UNL     1       5.309   7.501 -16.490  0.00  0.00    +0.005 A 
ATOM     18  C   UNL     1       5.611   8.840 -16.992  0.00  0.00    -0.033 A 
ATOM     28  C   UNL     1       4.649   9.911 -16.790  0.00  0.00    +0.005 A 
ATOM     29  C   UNL     1       3.429   9.687 -16.113  0.00  0.00    +0.013 A 
BRANCH  18  19
ATOM     19  C   UNL     1       6.923   9.183 -17.721  0.00  0.00    +0.119 C 
BRANCH  19  20
ATOM     20  N   UNL     1       7.816  10.196 -17.081  0.00  0.00    -0.302 NA
ATOM     21  C   UNL     1       7.715  11.563 -17.764  0.00  0.00    +0.066 C 
ATOM     22  C   UNL     1       8.638  12.616 -17.068  0.00  0.00    -0.064 C 
ATOM     23  N   UNL     1      10.082  12.110 -17.078  0.00  0.00    +0.379 N 
ATOM     24  C   UNL     1      10.961  13.124 -16.476  0.00  0.00    -0.096 C 
ATOM     25  H   UNL     1      10.388  11.985 -18.143  0.00  0.00    -0.082 HD
ATOM     26  C   UNL     1      10.190  10.750 -16.404  0.00  0.00    -0.064 C 
ATOM     27  C   UNL     1       9.247   9.719 -17.084  0.00  0.00    +0.066 C 
ENDBRANCH  19  20
ENDBRANCH  18  19
ENDBRANCH  14  15
ENDBRANCH  12  13
TORSDOF 6
ENDMDL
MODEL 4
REMARK VINA RESULT:      -7.8     19.994     21.875
REMARK  Name = C:\Users\Docking\Desktop\test protocol\1iep_ligandH.pdb
REMARK  8 active torsions:
REMARK  status: ('A' for Active; 'I' for Inactive)
REMARK    1  A    between atoms: _5  and  _11
REMARK    2  A    between atoms: _19  and  _21
REMARK    3  A    between atoms: _22  and  _66
REMARK    4  A    between atoms: _27  and  _30
REMARK    5  A    between atoms: _32  and  _33
REMARK    6  A    between atoms: _38  and  _43
REMARK    7  A    between atoms: _43  and  _46
REMARK    8  A    between atoms: _53  and  _55
REMARK                            x       y       z     vdW  Elec       q    Type
REMARK                         _______ _______ _______ _____ _____    ______ ____
ROOT
ATOM     10  C   UNL     1       0.033  24.548  -6.200  0.00  0.00    +0.038 A 
ATOM     11  C   UNL     1      -0.563  25.164  -5.070  0.00  0.00    +0.047 A 
ATOM     12  C   UNL     1      -1.301  24.383  -4.089  0.00  0.00    +0.035 A 
ATOM     32  C   UNL     1      -1.410  22.976  -4.290  0.00  0.00    +0.024 A 
ATOM     33  C   UNL     1      -0.811  22.334  -5.434  0.00  0.00    +0.007 A 
ATOM     34  C   UNL     1      -0.084  23.100  -6.405  0.00  0.00    -0.029 A 
ATOM     35  C   UNL     1       0.531  22.359  -7.616  0.00  0.00    +0.045 C 
ENDROOT
BRANCH  10   9
ATOM      4  C   UNL     1       4.082  26.504  -7.880  0.00  0.00    +0.077 A 
ATOM      5  C   UNL     1       4.871  25.908  -6.841  0.00  0.00    +0.048 A 
ATOM      6  C   UNL     1       4.195  25.110  -5.890  0.00  0.00    +0.116 A 
ATOM      7  N   UNL     1       2.832  24.930  -5.981  0.00  0.00    -0.223 NA
ATOM      8  C   UNL     1       2.101  25.521  -6.995  0.00  0.00    +0.220 A 
ATOM      9  N   UNL     1       0.730  25.346  -7.110  0.00  0.00    -0.283 N 
ATOM     36  H   UNL     1       0.226  25.805  -7.868  0.00  0.00    +0.155 HD
ATOM     37  N   UNL     1       2.722  26.288  -7.914  0.00  0.00    -0.214 NA
BRANCH   4   3
ATOM      1  C   UNL     1       5.874  27.712 -11.140  0.00  0.00    +0.020 A 
ATOM      2  C   UNL     1       5.343  26.832 -10.125  0.00  0.00    +0.013 A 
ATOM      3  C   UNL     1       4.651  27.370  -8.961  0.00  0.00    +0.019 A 
ATOM     38  C   UNL     1       4.510  28.815  -8.854  0.00  0.00    +0.120 A 
ATOM     39  N   UNL     1       5.033  29.638  -9.846  0.00  0.00    -0.263 NA
ATOM     40  C   UNL     1       5.703  29.131 -10.970  0.00  0.00    +0.111 A 
ENDBRANCH   4   3
ENDBRANCH  10   9
BRANCH  12  13
ATOM     13  N   UNL     1      -1.934  24.954  -2.926  0.00  0.00    -0.281 N 
ATOM     14  C   UNL     1      -3.263  24.862  -2.549  0.00  0.00    +0.248 C 
ATOM     30  O   UNL     1      -4.160  24.449  -3.270  0.00  0.00    -0.270 OA
ATOM     31  H   UNL     1      -1.328  25.493  -2.307  0.00  0.00    +0.155 HD
BRANCH  14  15
ATOM     15  C   UNL     1      -3.657  25.304  -1.176  0.00  0.00    +0.037 A 
ATOM     16  C   UNL     1      -3.086  26.512  -0.575  0.00  0.00    +0.013 A 
ATOM     17  C   UNL     1      -3.470  26.907   0.758  0.00  0.00    +0.005 A 
ATOM     18  C   UNL     1      -4.432  26.093   1.497  0.00  0.00    -0.033 A 
ATOM     28  C   UNL     1      -4.986  24.903   0.874  0.00  0.00    +0.005 A 
ATOM     29  C   UNL     1      -4.612  24.512  -0.431  0.00  0.00    +0.013 A 
BRANCH  18  19
ATOM     19  C   UNL     1      -4.882  26.427   2.931  0.00  0.00    +0.119 C 
BRANCH  19  20
ATOM     20  N   UNL     1      -5.814  27.582   3.103  0.00  0.00    -0.302 NA
ATOM     21  C   UNL     1      -6.416  27.629   4.511  0.00  0.00    +0.066 C 
ATOM     22  C   UNL     1      -7.370  28.856   4.680  0.00  0.00    -0.064 C 
ATOM     23  N   UNL     1      -8.473  28.791   3.622  0.00  0.00    +0.379 N 
ATOM     24  C   UNL     1      -9.405  29.911   3.816  0.00  0.00    -0.096 C 
ATOM     25  H   UNL     1      -9.041  27.846   3.784  0.00  0.00    -0.082 HD
ATOM     26  C   UNL     1      -7.883  28.740   2.220  0.00  0.00    -0.064 C 
ATOM     27  C   UNL     1      -6.913  27.535   2.071  0.00  0.00    +0.066 C 
ENDBRANCH  19  20
ENDBRANCH  18  19
ENDBRANCH  14  15
ENDBRANCH  12  13
TORSDOF 6
ENDMDL
MODEL 5
REMARK VINA RESULT:      -7.8      2.414     12.330
REMARK  Name = C:\Users\Docking\Desktop\test protocol\1iep_ligandH.pdb
REMARK  8 active torsions:
REMARK  status: ('A' for Active; 'I' for Inactive)
REMARK    1  A    between atoms: _5  and  _11
REMARK    2  A    between atoms: _19  and  _21
REMARK    3  A    between atoms: _22  and  _66
REMARK    4  A    between atoms: _27  and  _30
REMARK    5  A    between atoms: _32  and  _33
REMARK    6  A    between atoms: _38  and  _43
REMARK    7  A    between atoms: _43  and  _46
REMARK    8  A    between atoms: _53  and  _55
REMARK                            x       y       z     vdW  Elec       q    Type
REMARK                         _______ _______ _______ _____ _____    ______ ____
ROOT
ATOM     10  C   UNL     1      -1.864   8.981 -11.952  0.00  0.00    +0.038 A 
ATOM     11  C   UNL     1      -0.523   8.983 -12.414  0.00  0.00    +0.047 A 
ATOM     12  C   UNL     1      -0.159   9.626 -13.667  0.00  0.00    +0.035 A 
ATOM     32  C   UNL     1      -1.187  10.260 -14.424  0.00  0.00    +0.024 A 
ATOM     33  C   UNL     1      -2.556  10.266 -13.971  0.00  0.00    +0.007 A 
ATOM     34  C   UNL     1      -2.920   9.632 -12.736  0.00  0.00    -0.029 A 
ATOM     35  C   UNL     1      -4.404   9.665 -12.302  0.00  0.00    +0.045 C 
ENDROOT
BRANCH  10   9
ATOM      4  C   UNL     1      -3.219   5.152  -9.396  0.00  0.00    +0.077 A 
ATOM      5  C   UNL     1      -3.383   4.350 -10.574  0.00  0.00    +0.048 A 
ATOM      6  C   UNL     1      -3.116   4.963 -11.819  0.00  0.00    +0.116 A 
ATOM      7  N   UNL     1      -2.714   6.280 -11.869  0.00  0.00    -0.223 NA
ATOM      8  C   UNL     1      -2.567   7.026 -10.714  0.00  0.00    +0.220 A 
ATOM      9  N   UNL     1      -2.157   8.349 -10.742  0.00  0.00    -0.283 N 
ATOM     36  H   UNL     1      -2.067   8.868  -9.868  0.00  0.00    +0.155 HD
ATOM     37  N   UNL     1      -2.818   6.464  -9.514  0.00  0.00    -0.214 NA
BRANCH   4   3
ATOM      1  C   UNL     1      -4.803   4.519  -5.876  0.00  0.00    +0.020 A 
ATOM      2  C   UNL     1      -4.617   5.037  -7.211  0.00  0.00    +0.013 A 
ATOM      3  C   UNL     1      -3.460   4.646  -8.007  0.00  0.00    +0.019 A 
ATOM     38  C   UNL     1      -2.504   3.721  -7.418  0.00  0.00    +0.120 A 
ATOM     39  N   UNL     1      -2.708   3.240  -6.129  0.00  0.00    -0.263 NA
ATOM     40  C   UNL     1      -3.817   3.611  -5.353  0.00  0.00    +0.111 A 
ENDBRANCH   4   3
ENDBRANCH  10   9
BRANCH  12  13
ATOM     13  N   UNL     1       1.184   9.652 -14.191  0.00  0.00    -0.281 N 
ATOM     14  C   UNL     1       1.786   8.738 -15.039  0.00  0.00    +0.248 C 
ATOM     30  O   UNL     1       1.326   7.638 -15.308  0.00  0.00    -0.270 OA
ATOM     31  H   UNL     1       1.761  10.442 -13.900  0.00  0.00    +0.155 HD
BRANCH  14  15
ATOM     15  C   UNL     1       3.095   9.089 -15.668  0.00  0.00    +0.037 A 
ATOM     16  C   UNL     1       4.094   8.061 -15.971  0.00  0.00    +0.013 A 
ATOM     17  C   UNL     1       5.355   8.429 -16.563  0.00  0.00    +0.005 A 
ATOM     18  C   UNL     1       5.625   9.835 -16.857  0.00  0.00    -0.033 A 
ATOM     28  C   UNL     1       4.615  10.834 -16.550  0.00  0.00    +0.005 A 
ATOM     29  C   UNL     1       3.378  10.477 -15.970  0.00  0.00    +0.013 A 
BRANCH  18  19
ATOM     19  C   UNL     1       6.952  10.321 -17.468  0.00  0.00    +0.119 C 
BRANCH  19  20
ATOM     20  N   UNL     1       8.188   9.560 -17.115  0.00  0.00    -0.302 NA
ATOM     21  C   UNL     1       9.343  10.488 -16.727  0.00  0.00    +0.066 C 
ATOM     22  C   UNL     1      10.620   9.675 -16.339  0.00  0.00    -0.064 C 
ATOM     23  N   UNL     1      11.020   8.770 -17.506  0.00  0.00    +0.379 N 
ATOM     24  C   UNL     1      12.254   8.047 -17.166  0.00  0.00    -0.096 C 
ATOM     25  H   UNL     1      11.242   9.425 -18.381  0.00  0.00    -0.082 HD
ATOM     26  C   UNL     1       9.876   7.846 -17.899  0.00  0.00    -0.064 C 
ATOM     27  C   UNL     1       8.603   8.663 -18.255  0.00  0.00    +0.066 C 
ENDBRANCH  19  20
ENDBRANCH  18  19
ENDBRANCH  14  15
ENDBRANCH  12  13
TORSDOF 6
ENDMDL
