MODEL 1
REMARK VINA RESULT:      -7.7      0.000      0.000
REMARK  Name = C:\Users\Docking\Desktop\test protocol\1iep_ligandH.pdb
REMARK  8 active torsions:
REMARK  status: ('A' for Active; 'I' for Inactive)
REMARK    1  A    between atoms: _5  and  _11
REMARK    2  A    between atoms: _19  and  _21
REMARK    3  A    between atoms: _22  and  _66
REMARK    4  A    between atoms: _27  and  _30
REMARK    5  A    between atoms: _32  and  _33
REMARK    6  A    between atoms: _38  and  _43
REMARK    7  A    between atoms: _43  and  _46
REMARK    8  A    between atoms: _53  and  _55
REMARK                            x       y       z     vdW  Elec       q    Type
REMARK                         _______ _______ _______ _____ _____    ______ ____
ROOT
ATOM     10  C   UNL     1      -5.308  45.246  21.339  0.00  0.00    +0.038 A 
ATOM     11  C   UNL     1      -4.078  44.702  20.888  0.00  0.00    +0.047 A 
ATOM     12  C   UNL     1      -4.038  43.708  19.827  0.00  0.00    +0.035 A 
ATOM     32  C   UNL     1      -5.271  43.291  19.246  0.00  0.00    +0.024 A 
ATOM     33  C   UNL     1      -6.531  43.832  19.692  0.00  0.00    +0.007 A 
ATOM     34  C   UNL     1      -6.576  44.811  20.740  0.00  0.00    -0.029 A 
ATOM     35  C   UNL     1      -7.956  45.352  21.183  0.00  0.00    +0.045 C 
ENDROOT
BRANCH  10   9
ATOM      4  C   UNL     1      -4.867  49.760  22.909  0.00  0.00    +0.077 A 
ATOM      5  C   UNL     1      -4.630  50.260  21.586  0.00  0.00    +0.048 A 
ATOM      6  C   UNL     1      -4.623  49.321  20.529  0.00  0.00    +0.116 A 
ATOM      7  N   UNL     1      -4.838  47.985  20.789  0.00  0.00    -0.223 NA
ATOM      8  C   UNL     1      -5.062  47.536  22.077  0.00  0.00    +0.220 A 
ATOM      9  N   UNL     1      -5.288  46.198  22.360  0.00  0.00    -0.283 N 
ATOM     36  H   UNL     1      -5.442  45.906  23.325  0.00  0.00    +0.155 HD
ATOM     37  N   UNL     1      -5.072  48.412  23.103  0.00  0.00    -0.214 NA
BRANCH   4   3
ATOM      1  C   UNL     1      -5.739  52.627  25.423  0.00  0.00    +0.020 A 
ATOM      2  C   UNL     1      -5.735  51.824  24.222  0.00  0.00    +0.013 A 
ATOM      3  C   UNL     1      -4.908  50.627  24.129  0.00  0.00    +0.019 A 
ATOM     38  C   UNL     1      -4.091  50.267  25.278  0.00  0.00    +0.120 A 
ATOM     39  N   UNL     1      -4.114  51.060  26.421  0.00  0.00    -0.263 NA
ATOM     40  C   UNL     1      -4.904  52.215  26.521  0.00  0.00    +0.111 A 
ENDBRANCH   4   3
ENDBRANCH  10   9
BRANCH  12  13
ATOM     13  N   UNL     1      -2.820  43.115  19.334  0.00  0.00    -0.281 N 
ATOM     14  C   UNL     1      -1.960  42.256  20.000  0.00  0.00    +0.248 C 
ATOM     30  O   UNL     1      -1.997  42.036  21.202  0.00  0.00    -0.270 OA
ATOM     31  H   UNL     1      -2.560  43.357  18.378  0.00  0.00    +0.155 HD
BRANCH  14  15
ATOM     15  C   UNL     1      -0.897  41.552  19.221  0.00  0.00    +0.037 A 
ATOM     16  C   UNL     1       0.522  41.727  19.542  0.00  0.00    +0.013 A 
ATOM     17  C   UNL     1       1.529  41.049  18.764  0.00  0.00    +0.005 A 
ATOM     18  C   UNL     1       1.119  40.188  17.657  0.00  0.00    -0.033 A 
ATOM     28  C   UNL     1      -0.296  40.029  17.364  0.00  0.00    +0.005 A 
ATOM     29  C   UNL     1      -1.285  40.692  18.124  0.00  0.00    +0.013 A 
BRANCH  18  19
ATOM     19  C   UNL     1       2.125  39.443  16.761  0.00  0.00    +0.119 C 
BRANCH  19  20
ATOM     20  N   UNL     1       1.663  39.046  15.397  0.00  0.00    -0.302 NA
ATOM     21  C   UNL     1       2.333  37.756  14.916  0.00  0.00    +0.066 C 
ATOM     22  C   UNL     1       1.821  37.343  13.498  0.00  0.00    -0.064 C 
ATOM     23  N   UNL     1       2.077  38.486  12.514  0.00  0.00    +0.379 N 
ATOM     24  C   UNL     1       1.650  38.079  11.167  0.00  0.00    -0.096 C 
ATOM     25  H   UNL     1       3.177  38.663  12.481  0.00  0.00    -0.082 HD
ATOM     26  C   UNL     1       1.417  39.774  12.986  0.00  0.00    -0.064 C 
ATOM     27  C   UNL     1       1.910  40.159  14.408  0.00  0.00    +0.066 C 
ENDBRANCH  19  20
ENDBRANCH  18  19
ENDBRANCH  14  15
ENDBRANCH  12  13
TORSDOF 6
ENDMDL
MODEL 2
REMARK VINA RESULT:      -7.4      2.049     13.132
REMARK  Name = C:\Users\Docking\Desktop\test protocol\1iep_ligandH.pdb
REMARK  8 active torsions:
REMARK  status: ('A' for Active; 'I' for Inactive)
REMARK    1  A    between atoms: _5  and  _11
REMARK    2  A    between atoms: _19  and  _21
REMARK    3  A    between atoms: _22  and  _66
REMARK    4  A    between atoms: _27  and  _30
REMARK    5  A    between atoms: _32  and  _33
REMARK    6  A    between atoms: _38  and  _43
REMARK    7  A    between atoms: _43  and  _46
REMARK    8  A    between atoms: _53  and  _55
REMARK                            x       y       z     vdW  Elec       q    Type
REMARK                         _______ _______ _______ _____ _____    ______ ____
ROOT
ATOM     10  C   UNL     1      -3.303  41.457  19.518  0.00  0.00    +0.038 A 
ATOM     11  C   UNL     1      -3.237  42.854  19.753  0.00  0.00    +0.047 A 
ATOM     12  C   UNL     1      -4.117  43.498  20.716  0.00  0.00    +0.035 A 
ATOM     32  C   UNL     1      -5.052  42.688  21.424  0.00  0.00    +0.024 A 
ATOM     33  C   UNL     1      -5.134  41.266  21.197  0.00  0.00    +0.007 A 
ATOM     34  C   UNL     1      -4.270  40.626  20.246  0.00  0.00    -0.029 A 
ATOM     35  C   UNL     1      -4.406  39.099  20.039  0.00  0.00    +0.045 C 
ENDROOT
BRANCH  10   9
ATOM      4  C   UNL     1       1.088  40.219  18.027  0.00  0.00    +0.077 A 
ATOM      5  C   UNL     1       1.705  40.770  19.198  0.00  0.00    +0.048 A 
ATOM      6  C   UNL     1       0.859  41.370  20.157  0.00  0.00    +0.116 A 
ATOM      7  N   UNL     1      -0.503  41.409  19.950  0.00  0.00    -0.223 NA
ATOM      8  C   UNL     1      -1.067  40.869  18.808  0.00  0.00    +0.220 A 
ATOM      9  N   UNL     1      -2.434  40.891  18.583  0.00  0.00    -0.283 N 
ATOM     36  H   UNL     1      -2.810  40.488  17.724  0.00  0.00    +0.155 HD
ATOM     37  N   UNL     1      -0.279  40.292  17.877  0.00  0.00    -0.214 NA
BRANCH   4   3
ATOM      1  C   UNL     1       3.662  38.018  16.069  0.00  0.00    +0.020 A 
ATOM      2  C   UNL     1       2.961  38.639  17.169  0.00  0.00    +0.013 A 
ATOM      3  C   UNL     1       1.849  39.549  16.925  0.00  0.00    +0.019 A 
ATOM     38  C   UNL     1       1.468  39.811  15.545  0.00  0.00    +0.120 A 
ATOM     39  N   UNL     1       2.162  39.199  14.506  0.00  0.00    -0.263 NA
ATOM     40  C   UNL     1       3.235  38.323  14.729  0.00  0.00    +0.111 A 
ENDBRANCH   4   3
ENDBRANCH  10   9
BRANCH  12  13
ATOM     13  N   UNL     1      -4.100  44.913  20.990  0.00  0.00    -0.281 N 
ATOM     14  C   UNL     1      -4.718  45.927  20.276  0.00  0.00    +0.248 C 
ATOM     30  O   UNL     1      -5.205  45.790  19.164  0.00  0.00    -0.270 OA
ATOM     31  H   UNL     1      -3.569  45.203  21.811  0.00  0.00    +0.155 HD
BRANCH  14  15
ATOM     15  C   UNL     1      -4.793  47.293  20.878  0.00  0.00    +0.037 A 
ATOM     16  C   UNL     1      -4.688  48.496  20.048  0.00  0.00    +0.013 A 
ATOM     17  C   UNL     1      -4.746  49.801  20.657  0.00  0.00    +0.005 A 
ATOM     18  C   UNL     1      -4.911  49.910  22.104  0.00  0.00    -0.033 A 
ATOM     28  C   UNL     1      -5.018  48.700  22.903  0.00  0.00    +0.005 A 
ATOM     29  C   UNL     1      -4.960  47.419  22.310  0.00  0.00    +0.013 A 
BRANCH  18  19
ATOM     19  C   UNL     1      -4.962  51.262  22.841  0.00  0.00    +0.119 C 
BRANCH  19  20
ATOM     20  N   UNL     1      -5.624  51.286  24.179  0.00  0.00    -0.302 NA
ATOM     21  C   UNL     1      -7.105  51.664  24.081  0.00  0.00    +0.066 C 
ATOM     22  C   UNL     1      -7.787  51.663  25.488  0.00  0.00    -0.064 C 
ATOM     23  N   UNL     1      -7.042  52.627  26.414  0.00  0.00    +0.379 N 
ATOM     24  C   UNL     1      -7.716  52.672  27.720  0.00  0.00    -0.096 C 
ATOM     25  H   UNL     1      -7.107  53.645  25.964  0.00  0.00    -0.082 HD
ATOM     26  C   UNL     1      -5.568  52.260  26.515  0.00  0.00    -0.064 C 
ATOM     27  C   UNL     1      -4.907  52.235  25.108  0.00  0.00    +0.066 C 
ENDBRANCH  19  20
ENDBRANCH  18  19
ENDBRANCH  14  15
ENDBRANCH  12  13
TORSDOF 6
ENDMDL
MODEL 3
REMARK VINA RESULT:      -7.2      1.693     13.490
REMARK  Name = C:\Users\Docking\Desktop\test protocol\1iep_ligandH.pdb
REMARK  8 active torsions:
REMARK  status: ('A' for Active; 'I' for Inactive)
REMARK    1  A    between atoms: _5  and  _11
REMARK    2  A    between atoms: _19  and  _21
REMARK    3  A    between atoms: _22  and  _66
REMARK    4  A    between atoms: _27  and  _30
REMARK    5  A    between atoms: _32  and  _33
REMARK    6  A    between atoms: _38  and  _43
REMARK    7  A    between atoms: _43  and  _46
REMARK    8  A    between atoms: _53  and  _55
REMARK                            x       y       z     vdW  Elec       q    Type
REMARK                         _______ _______ _______ _____ _____    ______ ____
ROOT
ATOM     10  C   UNL     1       1.220  40.957  17.574  0.00  0.00    +0.038 A 
ATOM     11  C   UNL     1       0.107  41.795  17.841  0.00  0.00    +0.047 A 
ATOM     12  C   UNL     1      -0.247  42.164  19.203  0.00  0.00    +0.035 A 
ATOM     32  C   UNL     1       0.555  41.663  20.269  0.00  0.00    +0.024 A 
ATOM     33  C   UNL     1       1.689  40.809  20.016  0.00  0.00    +0.007 A 
ATOM     34  C   UNL     1       2.042  40.440  18.674  0.00  0.00    -0.029 A 
ATOM     35  C   UNL     1       3.264  39.516  18.462  0.00  0.00    +0.045 C 
ENDROOT
BRANCH  10   9
ATOM      4  C   UNL     1       0.537  38.358  13.597  0.00  0.00    +0.077 A 
ATOM      5  C   UNL     1      -0.475  37.556  14.224  0.00  0.00    +0.048 A 
ATOM      6  C   UNL     1      -0.784  37.840  15.573  0.00  0.00    +0.116 A 
ATOM      7  N   UNL     1      -0.126  38.853  16.236  0.00  0.00    -0.223 NA
ATOM      8  C   UNL     1       0.845  39.607  15.602  0.00  0.00    +0.220 A 
ATOM      9  N   UNL     1       1.514  40.635  16.247  0.00  0.00    -0.283 N 
ATOM     36  H   UNL     1       2.230  41.163  15.748  0.00  0.00    +0.155 HD
ATOM     37  N   UNL     1       1.160  39.354  14.315  0.00  0.00    -0.214 NA
BRANCH   4   3
ATOM      1  C   UNL     1       1.785  36.778  10.243  0.00  0.00    +0.020 A 
ATOM      2  C   UNL     1       1.372  36.894  11.623  0.00  0.00    +0.013 A 
ATOM      3  C   UNL     1       0.972  38.182  12.176  0.00  0.00    +0.019 A 
ATOM     38  C   UNL     1       1.000  39.343  11.298  0.00  0.00    +0.120 A 
ATOM     39  N   UNL     1       1.403  39.201   9.974  0.00  0.00    -0.263 NA
ATOM     40  C   UNL     1       1.792  37.967   9.432  0.00  0.00    +0.111 A 
ENDBRANCH   4   3
ENDBRANCH  10   9
BRANCH  12  13
ATOM     13  N   UNL     1      -1.370  43.005  19.536  0.00  0.00    -0.281 N 
ATOM     14  C   UNL     1      -2.718  42.691  19.470  0.00  0.00    +0.248 C 
ATOM     30  O   UNL     1      -3.172  41.706  18.908  0.00  0.00    -0.270 OA
ATOM     31  H   UNL     1      -1.144  43.945  19.861  0.00  0.00    +0.155 HD
BRANCH  14  15
ATOM     15  C   UNL     1      -3.706  43.614  20.109  0.00  0.00    +0.037 A 
ATOM     16  C   UNL     1      -4.251  44.764  19.383  0.00  0.00    +0.013 A 
ATOM     17  C   UNL     1      -5.190  45.647  20.028  0.00  0.00    +0.005 A 
ATOM     18  C   UNL     1      -5.590  45.383  21.407  0.00  0.00    -0.033 A 
ATOM     28  C   UNL     1      -5.038  44.232  22.102  0.00  0.00    +0.005 A 
ATOM     29  C   UNL     1      -4.117  43.364  21.474  0.00  0.00    +0.013 A 
BRANCH  18  19
ATOM     19  C   UNL     1      -6.570  46.285  22.181  0.00  0.00    +0.119 C 
BRANCH  19  20
ATOM     20  N   UNL     1      -6.156  47.700  22.417  0.00  0.00    -0.302 NA
ATOM     21  C   UNL     1      -4.873  47.793  23.247  0.00  0.00    +0.066 C 
ATOM     22  C   UNL     1      -4.442  49.280  23.464  0.00  0.00    -0.064 C 
ATOM     23  N   UNL     1      -5.582  50.045  24.140  0.00  0.00    +0.379 N 
ATOM     24  C   UNL     1      -5.159  51.429  24.399  0.00  0.00    -0.096 C 
ATOM     25  H   UNL     1      -5.776  49.561  25.126  0.00  0.00    -0.082 HD
ATOM     26  C   UNL     1      -6.862  49.955  23.322  0.00  0.00    -0.064 C 
ATOM     27  C   UNL     1      -7.265  48.473  23.087  0.00  0.00    +0.066 C 
ENDBRANCH  19  20
ENDBRANCH  18  19
ENDBRANCH  14  15
ENDBRANCH  12  13
TORSDOF 6
ENDMDL
MODEL 4
REMARK VINA RESULT:      -7.2      1.748      2.124
REMARK  Name = C:\Users\Docking\Desktop\test protocol\1iep_ligandH.pdb
REMARK  8 active torsions:
REMARK  status: ('A' for Active; 'I' for Inactive)
REMARK    1  A    between atoms: _5  and  _11
REMARK    2  A    between atoms: _19  and  _21
REMARK    3  A    between atoms: _22  and  _66
REMARK    4  A    between atoms: _27  and  _30
REMARK    5  A    between atoms: _32  and  _33
REMARK    6  A    between atoms: _38  and  _43
REMARK    7  A    between atoms: _43  and  _46
REMARK    8  A    between atoms: _53  and  _55
REMARK                            x       y       z     vdW  Elec       q    Type
REMARK                         _______ _______ _______ _____ _____    ______ ____
ROOT
ATOM     10  C   UNL     1      -5.238  44.445  21.534  0.00  0.00    +0.038 A 
ATOM     11  C   UNL     1      -4.085  43.723  21.134  0.00  0.00    +0.047 A 
ATOM     12  C   UNL     1      -4.164  42.674  20.129  0.00  0.00    +0.035 A 
ATOM     32  C   UNL     1      -5.435  42.390  19.549  0.00  0.00    +0.024 A 
ATOM     33  C   UNL     1      -6.617  43.113  19.944  0.00  0.00    +0.007 A 
ATOM     34  C   UNL     1      -6.546  44.147  20.937  0.00  0.00    -0.029 A 
ATOM     35  C   UNL     1      -7.847  44.886  21.327  0.00  0.00    +0.045 C 
ENDROOT
BRANCH  10   9
ATOM      4  C   UNL     1      -4.615  49.020  22.843  0.00  0.00    +0.077 A 
ATOM      5  C   UNL     1      -4.522  49.460  21.480  0.00  0.00    +0.048 A 
ATOM      6  C   UNL     1      -4.632  48.475  20.473  0.00  0.00    +0.116 A 
ATOM      7  N   UNL     1      -4.822  47.154  20.814  0.00  0.00    -0.223 NA
ATOM      8  C   UNL     1      -4.906  46.764  22.138  0.00  0.00    +0.220 A 
ATOM      9  N   UNL     1      -5.104  45.441  22.503  0.00  0.00    -0.283 N 
ATOM     36  H   UNL     1      -5.153  45.193  23.491  0.00  0.00    +0.155 HD
ATOM     37  N   UNL     1      -4.802  47.684  23.119  0.00  0.00    -0.214 NA
BRANCH   4   3
ATOM      1  C   UNL     1      -4.981  52.129  25.190  0.00  0.00    +0.020 A 
ATOM      2  C   UNL     1      -5.099  51.279  24.027  0.00  0.00    +0.013 A 
ATOM      3  C   UNL     1      -4.521  49.941  24.020  0.00  0.00    +0.019 A 
ATOM     38  C   UNL     1      -3.824  49.489  25.215  0.00  0.00    +0.120 A 
ATOM     39  N   UNL     1      -3.725  50.330  26.319  0.00  0.00    -0.263 NA
ATOM     40  C   UNL     1      -4.276  51.620  26.337  0.00  0.00    +0.111 A 
ENDBRANCH   4   3
ENDBRANCH  10   9
BRANCH  12  13
ATOM     13  N   UNL     1      -3.029  41.902  19.689  0.00  0.00    -0.281 N 
ATOM     14  C   UNL     1      -1.728  42.335  19.495  0.00  0.00    +0.248 C 
ATOM     30  O   UNL     1      -1.387  43.509  19.465  0.00  0.00    -0.270 OA
ATOM     31  H   UNL     1      -3.206  40.916  19.498  0.00  0.00    +0.155 HD
BRANCH  14  15
ATOM     15  C   UNL     1      -0.651  41.319  19.290  0.00  0.00    +0.037 A 
ATOM     16  C   UNL     1      -0.955  39.985  18.767  0.00  0.00    +0.013 A 
ATOM     17  C   UNL     1       0.100  39.017  18.595  0.00  0.00    +0.005 A 
ATOM     18  C   UNL     1       1.470  39.382  18.946  0.00  0.00    -0.033 A 
ATOM     28  C   UNL     1       1.745  40.715  19.458  0.00  0.00    +0.005 A 
ATOM     29  C   UNL     1       0.713  41.665  19.629  0.00  0.00    +0.013 A 
BRANCH  18  19
ATOM     19  C   UNL     1       2.655  38.407  18.814  0.00  0.00    +0.119 C 
BRANCH  19  20
ATOM     20  N   UNL     1       3.232  38.212  17.451  0.00  0.00    -0.302 NA
ATOM     21  C   UNL     1       2.499  37.119  16.668  0.00  0.00    +0.066 C 
ATOM     22  C   UNL     1       3.101  36.943  15.236  0.00  0.00    -0.064 C 
ATOM     23  N   UNL     1       4.593  36.621  15.349  0.00  0.00    +0.379 N 
ATOM     24  C   UNL     1       5.149  36.398  14.007  0.00  0.00    -0.096 C 
ATOM     25  H   UNL     1       4.690  35.668  15.918  0.00  0.00    -0.082 HD
ATOM     26  C   UNL     1       5.329  37.702  16.128  0.00  0.00    -0.064 C 
ATOM     27  C   UNL     1       4.703  37.889  17.539  0.00  0.00    +0.066 C 
ENDBRANCH  19  20
ENDBRANCH  18  19
ENDBRANCH  14  15
ENDBRANCH  12  13
TORSDOF 6
ENDMDL
MODEL 5
REMARK VINA RESULT:      -7.0     14.942     17.049
REMARK  Name = C:\Users\Docking\Desktop\test protocol\1iep_ligandH.pdb
REMARK  8 active torsions:
REMARK  status: ('A' for Active; 'I' for Inactive)
REMARK    1  A    between atoms: _5  and  _11
REMARK    2  A    between atoms: _19  and  _21
REMARK    3  A    between atoms: _22  and  _66
REMARK    4  A    between atoms: _27  and  _30
REMARK    5  A    between atoms: _32  and  _33
REMARK    6  A    between atoms: _38  and  _43
REMARK    7  A    between atoms: _43  and  _46
REMARK    8  A    between atoms: _53  and  _55
REMARK                            x       y       z     vdW  Elec       q    Type
REMARK                         _______ _______ _______ _____ _____    ______ ____
ROOT
ATOM     10  C   UNL     1      11.135  47.928  17.597  0.00  0.00    +0.038 A 
ATOM     11  C   UNL     1      11.330  47.803  16.198  0.00  0.00    +0.047 A 
ATOM     12  C   UNL     1      11.782  46.552  15.609  0.00  0.00    +0.035 A 
ATOM     32  C   UNL     1      12.024  45.446  16.476  0.00  0.00    +0.024 A 
ATOM     33  C   UNL     1      11.831  45.555  17.901  0.00  0.00    +0.007 A 
ATOM     34  C   UNL     1      11.388  46.788  18.487  0.00  0.00    -0.029 A 
ATOM     35  C   UNL     1      11.205  46.849  20.021  0.00  0.00    +0.045 C 
ENDROOT
BRANCH  10   9
ATOM      4  C   UNL     1      11.965  52.328  19.324  0.00  0.00    +0.077 A 
ATOM      5  C   UNL     1      13.386  52.164  19.224  0.00  0.00    +0.048 A 
ATOM      6  C   UNL     1      13.863  50.929  18.731  0.00  0.00    +0.116 A 
ATOM      7  N   UNL     1      12.976  49.940  18.366  0.00  0.00    -0.223 NA
ATOM      8  C   UNL     1      11.611  50.131  18.477  0.00  0.00    +0.220 A 
ATOM      9  N   UNL     1      10.700  49.152  18.109  0.00  0.00    -0.283 N 
ATOM     36  H   UNL     1       9.701  49.329  18.212  0.00  0.00    +0.155 HD
ATOM     37  N   UNL     1      11.130  51.300  18.947  0.00  0.00    -0.214 NA
BRANCH   4   3
ATOM      1  C   UNL     1      11.355  55.992  20.553  0.00  0.00    +0.020 A 
ATOM      2  C   UNL     1      12.038  54.814  20.070  0.00  0.00    +0.013 A 
ATOM      3  C   UNL     1      11.307  53.577  19.824  0.00  0.00    +0.019 A 
ATOM     38  C   UNL     1       9.874  53.566  20.078  0.00  0.00    +0.120 A 
ATOM     39  N   UNL     1       9.243  54.715  20.544  0.00  0.00    -0.263 NA
ATOM     40  C   UNL     1       9.937  55.911  20.786  0.00  0.00    +0.111 A 
ENDBRANCH   4   3
ENDBRANCH  10   9
BRANCH  12  13
ATOM     13  N   UNL     1      12.006  46.369  14.197  0.00  0.00    -0.281 N 
ATOM     14  C   UNL     1      13.215  46.209  13.539  0.00  0.00    +0.248 C 
ATOM     30  O   UNL     1      14.309  46.414  14.045  0.00  0.00    -0.270 OA
ATOM     31  H   UNL     1      11.172  46.356  13.610  0.00  0.00    +0.155 HD
BRANCH  14  15
ATOM     15  C   UNL     1      13.207  45.773  12.110  0.00  0.00    +0.037 A 
ATOM     16  C   UNL     1      12.194  46.262  11.171  0.00  0.00    +0.013 A 
ATOM     17  C   UNL     1      12.200  45.811   9.802  0.00  0.00    +0.005 A 
ATOM     18  C   UNL     1      13.224  44.866   9.363  0.00  0.00    -0.033 A 
ATOM     28  C   UNL     1      14.220  44.401  10.314  0.00  0.00    +0.005 A 
ATOM     29  C   UNL     1      14.217  44.840  11.657  0.00  0.00    +0.013 A 
BRANCH  18  19
ATOM     19  C   UNL     1      13.293  44.316   7.926  0.00  0.00    +0.119 C 
BRANCH  19  20
ATOM     20  N   UNL     1      14.323  44.903   7.018  0.00  0.00    -0.302 NA
ATOM     21  C   UNL     1      14.618  46.367   7.354  0.00  0.00    +0.066 C 
ATOM     22  C   UNL     1      15.714  46.959   6.409  0.00  0.00    -0.064 C 
ATOM     23  N   UNL     1      15.260  46.818   4.955  0.00  0.00    +0.379 N 
ATOM     24  C   UNL     1      16.262  47.425   4.067  0.00  0.00    -0.096 C 
ATOM     25  H   UNL     1      14.312  47.393   4.840  0.00  0.00    -0.082 HD
ATOM     26  C   UNL     1      14.961  45.365   4.613  0.00  0.00    -0.064 C 
ATOM     27  C   UNL     1      13.893  44.778   5.577  0.00  0.00    +0.066 C 
ENDBRANCH  19  20
ENDBRANCH  18  19
ENDBRANCH  14  15
ENDBRANCH  12  13
TORSDOF 6
ENDMDL
