MODEL 1
REMARK VINA RESULT:      -8.0      0.000      0.000
REMARK  Name = C:\Users\Docking\Desktop\test protocol\1iep_ligandH.pdb
REMARK  8 active torsions:
REMARK  status: ('A' for Active; 'I' for Inactive)
REMARK    1  A    between atoms: _5  and  _11
REMARK    2  A    between atoms: _19  and  _21
REMARK    3  A    between atoms: _22  and  _66
REMARK    4  A    between atoms: _27  and  _30
REMARK    5  A    between atoms: _32  and  _33
REMARK    6  A    between atoms: _38  and  _43
REMARK    7  A    between atoms: _43  and  _46
REMARK    8  A    between atoms: _53  and  _55
REMARK                            x       y       z     vdW  Elec       q    Type
REMARK                         _______ _______ _______ _____ _____    ______ ____
ROOT
ATOM     10  C   UNL     1     -10.429  24.212  25.290  0.00  0.00    +0.038 A 
ATOM     11  C   UNL     1     -10.245  23.104  26.156  0.00  0.00    +0.047 A 
ATOM     12  C   UNL     1      -9.750  21.831  25.654  0.00  0.00    +0.035 A 
ATOM     32  C   UNL     1      -9.449  21.724  24.265  0.00  0.00    +0.024 A 
ATOM     33  C   UNL     1      -9.631  22.840  23.371  0.00  0.00    +0.007 A 
ATOM     34  C   UNL     1     -10.122  24.097  23.859  0.00  0.00    -0.029 A 
ATOM     35  C   UNL     1     -10.304  25.258  22.854  0.00  0.00    +0.045 C 
ENDROOT
BRANCH  10   9
ATOM      4  C   UNL     1     -13.979  27.290  26.273  0.00  0.00    +0.077 A 
ATOM      5  C   UNL     1     -14.959  26.453  25.643  0.00  0.00    +0.048 A 
ATOM      6  C   UNL     1     -14.507  25.242  25.071  0.00  0.00    +0.116 A 
ATOM      7  N   UNL     1     -13.173  24.904  25.132  0.00  0.00    -0.223 NA
ATOM      8  C   UNL     1     -12.253  25.734  25.746  0.00  0.00    +0.220 A 
ATOM      9  N   UNL     1     -10.908  25.410  25.825  0.00  0.00    -0.283 N 
ATOM     36  H   UNL     1     -10.260  26.053  26.280  0.00  0.00    +0.155 HD
ATOM     37  N   UNL     1     -12.659  26.897  26.298  0.00  0.00    -0.214 NA
BRANCH   4   3
ATOM      1  C   UNL     1     -15.380  30.879  26.948  0.00  0.00    +0.020 A 
ATOM      2  C   UNL     1     -15.097  29.633  26.274  0.00  0.00    +0.013 A 
ATOM      3  C   UNL     1     -14.301  28.599  26.924  0.00  0.00    +0.019 A 
ATOM     38  C   UNL     1     -13.803  28.860  28.266  0.00  0.00    +0.120 A 
ATOM     39  N   UNL     1     -14.090  30.070  28.889  0.00  0.00    -0.263 NA
ATOM     40  C   UNL     1     -14.854  31.073  28.273  0.00  0.00    +0.111 A 
ENDBRANCH   4   3
ENDBRANCH  10   9
BRANCH  12  13
ATOM     13  N   UNL     1      -9.551  20.669  26.483  0.00  0.00    -0.281 N 
ATOM     14  C   UNL     1     -10.231  19.463  26.438  0.00  0.00    +0.248 C 
ATOM     30  O   UNL     1     -11.265  19.276  25.813  0.00  0.00    -0.270 OA
ATOM     31  H   UNL     1      -8.819  20.744  27.190  0.00  0.00    +0.155 HD
BRANCH  14  15
ATOM     15  C   UNL     1      -9.693  18.301  27.208  0.00  0.00    +0.037 A 
ATOM     16  C   UNL     1      -8.291  18.252  27.630  0.00  0.00    +0.013 A 
ATOM     17  C   UNL     1      -7.794  17.111  28.358  0.00  0.00    +0.005 A 
ATOM     18  C   UNL     1      -8.702  16.010  28.670  0.00  0.00    -0.033 A 
ATOM     28  C   UNL     1     -10.089  16.087  28.244  0.00  0.00    +0.005 A 
ATOM     29  C   UNL     1     -10.580  17.203  27.529  0.00  0.00    +0.013 A 
BRANCH  18  19
ATOM     19  C   UNL     1      -8.253  14.744  29.423  0.00  0.00    +0.119 C 
BRANCH  19  20
ATOM     20  N   UNL     1      -6.802  14.626  29.758  0.00  0.00    -0.302 NA
ATOM     21  C   UNL     1      -6.039  13.798  28.720  0.00  0.00    +0.066 C 
ATOM     22  C   UNL     1      -4.519  13.704  29.074  0.00  0.00    -0.064 C 
ATOM     23  N   UNL     1      -4.360  13.101  30.470  0.00  0.00    +0.379 N 
ATOM     24  C   UNL     1      -2.930  12.957  30.783  0.00  0.00    -0.096 C 
ATOM     25  H   UNL     1      -4.806  12.079  30.450  0.00  0.00    -0.082 HD
ATOM     26  C   UNL     1      -5.118  13.916  31.508  0.00  0.00    -0.064 C 
ATOM     27  C   UNL     1      -6.622  14.028  31.132  0.00  0.00    +0.066 C 
ENDBRANCH  19  20
ENDBRANCH  18  19
ENDBRANCH  14  15
ENDBRANCH  12  13
TORSDOF 6
ENDMDL
MODEL 2
REMARK VINA RESULT:      -7.8      2.592      3.294
REMARK  Name = C:\Users\Docking\Desktop\test protocol\1iep_ligandH.pdb
REMARK  8 active torsions:
REMARK  status: ('A' for Active; 'I' for Inactive)
REMARK    1  A    between atoms: _5  and  _11
REMARK    2  A    between atoms: _19  and  _21
REMARK    3  A    between atoms: _22  and  _66
REMARK    4  A    between atoms: _27  and  _30
REMARK    5  A    between atoms: _32  and  _33
REMARK    6  A    between atoms: _38  and  _43
REMARK    7  A    between atoms: _43  and  _46
REMARK    8  A    between atoms: _53  and  _55
REMARK                            x       y       z     vdW  Elec       q    Type
REMARK                         _______ _______ _______ _____ _____    ______ ____
ROOT
ATOM     10  C   UNL     1     -10.687  23.770  25.148  0.00  0.00    +0.038 A 
ATOM     11  C   UNL     1     -10.908  22.560  25.854  0.00  0.00    +0.047 A 
ATOM     12  C   UNL     1     -10.602  21.271  25.253  0.00  0.00    +0.035 A 
ATOM     32  C   UNL     1     -10.070  21.252  23.931  0.00  0.00    +0.024 A 
ATOM     33  C   UNL     1      -9.840  22.472  23.198  0.00  0.00    +0.007 A 
ATOM     34  C   UNL     1     -10.142  23.746  23.785  0.00  0.00    -0.029 A 
ATOM     35  C   UNL     1      -9.882  25.022  22.950  0.00  0.00    +0.045 C 
ENDROOT
BRANCH  10   9
ATOM      4  C   UNL     1     -13.781  27.232  26.365  0.00  0.00    +0.077 A 
ATOM      5  C   UNL     1     -14.862  26.591  25.674  0.00  0.00    +0.048 A 
ATOM      6  C   UNL     1     -14.579  25.375  25.012  0.00  0.00    +0.116 A 
ATOM      7  N   UNL     1     -13.305  24.849  25.045  0.00  0.00    -0.223 NA
ATOM      8  C   UNL     1     -12.285  25.494  25.720  0.00  0.00    +0.220 A 
ATOM      9  N   UNL     1     -10.999  24.979  25.773  0.00  0.00    -0.283 N 
ATOM     36  H   UNL     1     -10.272  25.489  26.275  0.00  0.00    +0.155 HD
ATOM     37  N   UNL     1     -12.530  26.657  26.359  0.00  0.00    -0.214 NA
BRANCH   4   3
ATOM      1  C   UNL     1     -13.357  30.072  29.021  0.00  0.00    +0.020 A 
ATOM      2  C   UNL     1     -13.183  28.813  28.335  0.00  0.00    +0.013 A 
ATOM      3  C   UNL     1     -13.924  28.520  27.115  0.00  0.00    +0.019 A 
ATOM     38  C   UNL     1     -14.839  29.532  26.609  0.00  0.00    +0.120 A 
ATOM     39  N   UNL     1     -14.987  30.736  27.291  0.00  0.00    -0.263 NA
ATOM     40  C   UNL     1     -14.281  31.028  28.468  0.00  0.00    +0.111 A 
ENDBRANCH   4   3
ENDBRANCH  10   9
BRANCH  12  13
ATOM     13  N   UNL     1     -10.812  20.010  25.919  0.00  0.00    -0.281 N 
ATOM     14  C   UNL     1      -9.864  19.188  26.507  0.00  0.00    +0.248 C 
ATOM     30  O   UNL     1      -8.657  19.312  26.361  0.00  0.00    -0.270 OA
ATOM     31  H   UNL     1     -11.778  19.682  25.962  0.00  0.00    +0.155 HD
BRANCH  14  15
ATOM     15  C   UNL     1     -10.324  18.058  27.369  0.00  0.00    +0.037 A 
ATOM     16  C   UNL     1     -11.421  18.228  28.325  0.00  0.00    +0.013 A 
ATOM     17  C   UNL     1     -11.833  17.126  29.157  0.00  0.00    +0.005 A 
ATOM     18  C   UNL     1     -11.148  15.841  29.036  0.00  0.00    -0.033 A 
ATOM     28  C   UNL     1     -10.065  15.699  28.076  0.00  0.00    +0.005 A 
ATOM     29  C   UNL     1      -9.658  16.777  27.260  0.00  0.00    +0.013 A 
BRANCH  18  19
ATOM     19  C   UNL     1     -11.507  14.617  29.898  0.00  0.00    +0.119 C 
BRANCH  19  20
ATOM     20  N   UNL     1     -11.109  14.654  31.338  0.00  0.00    -0.302 NA
ATOM     21  C   UNL     1     -12.119  15.425  32.193  0.00  0.00    +0.066 C 
ATOM     22  C   UNL     1     -11.699  15.435  33.699  0.00  0.00    -0.064 C 
ATOM     23  N   UNL     1     -10.301  16.041  33.832  0.00  0.00    +0.379 N 
ATOM     24  C   UNL     1      -9.927  16.105  35.252  0.00  0.00    -0.096 C 
ATOM     25  H   UNL     1     -10.348  17.087  33.447  0.00  0.00    -0.082 HD
ATOM     26  C   UNL     1      -9.292  15.282  32.983  0.00  0.00    -0.064 C 
ATOM     27  C   UNL     1      -9.733  15.253  31.493  0.00  0.00    +0.066 C 
ENDBRANCH  19  20
ENDBRANCH  18  19
ENDBRANCH  14  15
ENDBRANCH  12  13
TORSDOF 6
ENDMDL
MODEL 3
REMARK VINA RESULT:      -7.8      2.332      3.273
REMARK  Name = C:\Users\Docking\Desktop\test protocol\1iep_ligandH.pdb
REMARK  8 active torsions:
REMARK  status: ('A' for Active; 'I' for Inactive)
REMARK    1  A    between atoms: _5  and  _11
REMARK    2  A    between atoms: _19  and  _21
REMARK    3  A    between atoms: _22  and  _66
REMARK    4  A    between atoms: _27  and  _30
REMARK    5  A    between atoms: _32  and  _33
REMARK    6  A    between atoms: _38  and  _43
REMARK    7  A    between atoms: _43  and  _46
REMARK    8  A    between atoms: _53  and  _55
REMARK                            x       y       z     vdW  Elec       q    Type
REMARK                         _______ _______ _______ _____ _____    ______ ____
ROOT
ATOM     10  C   UNL     1      -9.935  23.892  25.208  0.00  0.00    +0.038 A 
ATOM     11  C   UNL     1      -9.870  22.698  25.970  0.00  0.00    +0.047 A 
ATOM     12  C   UNL     1      -9.360  21.463  25.394  0.00  0.00    +0.035 A 
ATOM     32  C   UNL     1      -8.921  21.482  24.038  0.00  0.00    +0.024 A 
ATOM     33  C   UNL     1      -8.980  22.687  23.248  0.00  0.00    +0.007 A 
ATOM     34  C   UNL     1      -9.485  23.907  23.811  0.00  0.00    -0.029 A 
ATOM     35  C   UNL     1      -9.532  25.167  22.916  0.00  0.00    +0.045 C 
ENDROOT
BRANCH  10   9
ATOM      4  C   UNL     1     -13.514  26.914  26.254  0.00  0.00    +0.077 A 
ATOM      5  C   UNL     1     -14.465  26.137  25.512  0.00  0.00    +0.048 A 
ATOM      6  C   UNL     1     -13.992  24.971  24.870  0.00  0.00    +0.116 A 
ATOM      7  N   UNL     1     -12.663  24.617  24.970  0.00  0.00    -0.223 NA
ATOM      8  C   UNL     1     -11.772  25.389  25.692  0.00  0.00    +0.220 A 
ATOM      9  N   UNL     1     -10.434  25.048  25.812  0.00  0.00    -0.283 N 
ATOM     36  H   UNL     1      -9.806  25.648  26.347  0.00  0.00    +0.155 HD
ATOM     37  N   UNL     1     -12.199  26.508  26.313  0.00  0.00    -0.214 NA
BRANCH   4   3
ATOM      1  C   UNL     1     -13.651  29.745  28.949  0.00  0.00    +0.020 A 
ATOM      2  C   UNL     1     -13.281  28.519  28.280  0.00  0.00    +0.013 A 
ATOM      3  C   UNL     1     -13.862  28.170  26.990  0.00  0.00    +0.019 A 
ATOM     38  C   UNL     1     -14.822  29.091  26.399  0.00  0.00    +0.120 A 
ATOM     39  N   UNL     1     -15.160  30.263  27.067  0.00  0.00    -0.263 NA
ATOM     40  C   UNL     1     -14.608  30.609  28.310  0.00  0.00    +0.111 A 
ENDBRANCH   4   3
ENDBRANCH  10   9
BRANCH  12  13
ATOM     13  N   UNL     1      -9.278  20.218  26.117  0.00  0.00    -0.281 N 
ATOM     14  C   UNL     1      -8.139  19.545  26.527  0.00  0.00    +0.248 C 
ATOM     30  O   UNL     1      -7.008  19.806  26.147  0.00  0.00    -0.270 OA
ATOM     31  H   UNL     1     -10.168  19.780  26.354  0.00  0.00    +0.155 HD
BRANCH  14  15
ATOM     15  C   UNL     1      -8.279  18.410  27.489  0.00  0.00    +0.037 A 
ATOM     16  C   UNL     1      -7.115  17.630  27.918  0.00  0.00    +0.013 A 
ATOM     17  C   UNL     1      -7.280  16.529  28.833  0.00  0.00    +0.005 A 
ATOM     18  C   UNL     1      -8.616  16.201  29.327  0.00  0.00    -0.033 A 
ATOM     28  C   UNL     1      -9.752  16.994  28.888  0.00  0.00    +0.005 A 
ATOM     29  C   UNL     1      -9.595  18.074  27.991  0.00  0.00    +0.013 A 
BRANCH  18  19
ATOM     19  C   UNL     1      -8.888  15.030  30.289  0.00  0.00    +0.119 C 
BRANCH  19  20
ATOM     20  N   UNL     1      -9.747  15.308  31.479  0.00  0.00    -0.302 NA
ATOM     21  C   UNL     1      -9.034  14.974  32.792  0.00  0.00    +0.066 C 
ATOM     22  C   UNL     1      -9.939  15.292  34.027  0.00  0.00    -0.064 C 
ATOM     23  N   UNL     1     -11.250  14.514  33.909  0.00  0.00    +0.379 N 
ATOM     24  C   UNL     1     -12.079  14.765  35.098  0.00  0.00    -0.096 C 
ATOM     25  H   UNL     1     -10.999  13.428  33.896  0.00  0.00    -0.082 HD
ATOM     26  C   UNL     1     -11.964  14.838  32.605  0.00  0.00    -0.064 C 
ATOM     27  C   UNL     1     -11.046  14.546  31.385  0.00  0.00    +0.066 C 
ENDBRANCH  19  20
ENDBRANCH  18  19
ENDBRANCH  14  15
ENDBRANCH  12  13
TORSDOF 6
ENDMDL
MODEL 4
REMARK VINA RESULT:      -7.6      4.644     12.520
REMARK  Name = C:\Users\Docking\Desktop\test protocol\1iep_ligandH.pdb
REMARK  8 active torsions:
REMARK  status: ('A' for Active; 'I' for Inactive)
REMARK    1  A    between atoms: _5  and  _11
REMARK    2  A    between atoms: _19  and  _21
REMARK    3  A    between atoms: _22  and  _66
REMARK    4  A    between atoms: _27  and  _30
REMARK    5  A    between atoms: _32  and  _33
REMARK    6  A    between atoms: _38  and  _43
REMARK    7  A    between atoms: _43  and  _46
REMARK    8  A    between atoms: _53  and  _55
REMARK                            x       y       z     vdW  Elec       q    Type
REMARK                         _______ _______ _______ _____ _____    ______ ____
ROOT
ATOM     10  C   UNL     1      -6.680  14.765  30.431  0.00  0.00    +0.038 A 
ATOM     11  C   UNL     1      -6.994  15.682  29.395  0.00  0.00    +0.047 A 
ATOM     12  C   UNL     1      -5.971  16.159  28.477  0.00  0.00    +0.035 A 
ATOM     32  C   UNL     1      -4.639  15.678  28.640  0.00  0.00    +0.024 A 
ATOM     33  C   UNL     1      -4.303  14.747  29.688  0.00  0.00    +0.007 A 
ATOM     34  C   UNL     1      -5.306  14.276  30.599  0.00  0.00    -0.029 A 
ATOM     35  C   UNL     1      -4.887  13.283  31.708  0.00  0.00    +0.045 C 
ENDROOT
BRANCH  10   9
ATOM      4  C   UNL     1      -9.827  15.529  33.973  0.00  0.00    +0.077 A 
ATOM      5  C   UNL     1      -9.382  16.880  34.157  0.00  0.00    +0.048 A 
ATOM      6  C   UNL     1      -8.335  17.338  33.325  0.00  0.00    +0.116 A 
ATOM      7  N   UNL     1      -7.784  16.498  32.382  0.00  0.00    -0.223 NA
ATOM      8  C   UNL     1      -8.236  15.200  32.231  0.00  0.00    +0.220 A 
ATOM      9  N   UNL     1      -7.701  14.341  31.284  0.00  0.00    -0.283 N 
ATOM     36  H   UNL     1      -8.057  13.388  31.209  0.00  0.00    +0.155 HD
ATOM     37  N   UNL     1      -9.233  14.739  33.015  0.00  0.00    -0.214 NA
BRANCH   4   3
ATOM      1  C   UNL     1     -12.075  14.357  36.952  0.00  0.00    +0.020 A 
ATOM      2  C   UNL     1     -10.992  14.981  36.227  0.00  0.00    +0.013 A 
ATOM      3  C   UNL     1     -10.926  14.902  34.773  0.00  0.00    +0.019 A 
ATOM     38  C   UNL     1     -11.980  14.179  34.078  0.00  0.00    +0.120 A 
ATOM     39  N   UNL     1     -13.010  13.588  34.803  0.00  0.00    -0.263 NA
ATOM     40  C   UNL     1     -13.083  13.656  36.202  0.00  0.00    +0.111 A 
ENDBRANCH   4   3
ENDBRANCH  10   9
BRANCH  12  13
ATOM     13  N   UNL     1      -6.229  17.096  27.411  0.00  0.00    -0.281 N 
ATOM     14  C   UNL     1      -7.101  18.172  27.416  0.00  0.00    +0.248 C 
ATOM     30  O   UNL     1      -7.955  18.366  28.269  0.00  0.00    -0.270 OA
ATOM     31  H   UNL     1      -5.705  16.947  26.549  0.00  0.00    +0.155 HD
BRANCH  14  15
ATOM     15  C   UNL     1      -7.024  19.169  26.305  0.00  0.00    +0.037 A 
ATOM     16  C   UNL     1      -8.236  19.717  25.690  0.00  0.00    +0.013 A 
ATOM     17  C   UNL     1      -8.133  20.665  24.609  0.00  0.00    +0.005 A 
ATOM     18  C   UNL     1      -6.811  21.071  24.136  0.00  0.00    -0.033 A 
ATOM     28  C   UNL     1      -5.626  20.515  24.768  0.00  0.00    +0.005 A 
ATOM     29  C   UNL     1      -5.723  19.585  25.827  0.00  0.00    +0.013 A 
BRANCH  18  19
ATOM     19  C   UNL     1      -6.607  22.060  22.974  0.00  0.00    +0.119 C 
BRANCH  19  20
ATOM     20  N   UNL     1      -7.751  22.956  22.629  0.00  0.00    -0.302 NA
ATOM     21  C   UNL     1      -7.632  23.520  21.210  0.00  0.00    +0.066 C 
ATOM     22  C   UNL     1      -8.849  24.437  20.858  0.00  0.00    -0.064 C 
ATOM     23  N   UNL     1      -8.945  25.568  21.884  0.00  0.00    +0.379 N 
ATOM     24  C   UNL     1     -10.052  26.464  21.523  0.00  0.00    -0.096 C 
ATOM     25  H   UNL     1      -8.000  26.156  21.827  0.00  0.00    -0.082 HD
ATOM     26  C   UNL     1      -9.060  25.016  23.298  0.00  0.00    -0.064 C 
ATOM     27  C   UNL     1      -7.862  24.083  23.627  0.00  0.00    +0.066 C 
ENDBRANCH  19  20
ENDBRANCH  18  19
ENDBRANCH  14  15
ENDBRANCH  12  13
TORSDOF 6
ENDMDL
MODEL 5
REMARK VINA RESULT:      -7.5      9.330     11.833
REMARK  Name = C:\Users\Docking\Desktop\test protocol\1iep_ligandH.pdb
REMARK  8 active torsions:
REMARK  status: ('A' for Active; 'I' for Inactive)
REMARK    1  A    between atoms: _5  and  _11
REMARK    2  A    between atoms: _19  and  _21
REMARK    3  A    between atoms: _22  and  _66
REMARK    4  A    between atoms: _27  and  _30
REMARK    5  A    between atoms: _32  and  _33
REMARK    6  A    between atoms: _38  and  _43
REMARK    7  A    between atoms: _43  and  _46
REMARK    8  A    between atoms: _53  and  _55
REMARK                            x       y       z     vdW  Elec       q    Type
REMARK                         _______ _______ _______ _____ _____    ______ ____
ROOT
ATOM     10  C   UNL     1      -7.862  14.855  32.492  0.00  0.00    +0.038 A 
ATOM     11  C   UNL     1      -7.128  13.710  32.088  0.00  0.00    +0.047 A 
ATOM     12  C   UNL     1      -5.688  13.770  31.890  0.00  0.00    +0.035 A 
ATOM     32  C   UNL     1      -5.026  15.012  32.116  0.00  0.00    +0.024 A 
ATOM     33  C   UNL     1      -5.756  16.186  32.526  0.00  0.00    +0.007 A 
ATOM     34  C   UNL     1      -7.177  16.133  32.720  0.00  0.00    -0.029 A 
ATOM     35  C   UNL     1      -7.910  17.424  33.154  0.00  0.00    +0.045 C 
ENDROOT
BRANCH  10   9
ATOM      4  C   UNL     1     -12.359  14.916  30.818  0.00  0.00    +0.077 A 
ATOM      5  C   UNL     1     -11.923  15.229  29.488  0.00  0.00    +0.048 A 
ATOM      6  C   UNL     1     -10.533  15.372  29.278  0.00  0.00    +0.116 A 
ATOM      7  N   UNL     1      -9.654  15.213  30.327  0.00  0.00    -0.223 NA
ATOM      8  C   UNL     1     -10.109  14.913  31.599  0.00  0.00    +0.220 A 
ATOM      9  N   UNL     1      -9.242  14.740  32.667  0.00  0.00    -0.283 N 
ATOM     36  H   UNL     1      -9.618  14.527  33.591  0.00  0.00    +0.155 HD
ATOM     37  N   UNL     1     -11.431  14.772  31.825  0.00  0.00    -0.214 NA
BRANCH   4   3
ATOM      1  C   UNL     1     -16.240  14.461  30.636  0.00  0.00    +0.020 A 
ATOM      2  C   UNL     1     -14.869  14.642  30.216  0.00  0.00    +0.013 A 
ATOM      3  C   UNL     1     -13.796  14.730  31.198  0.00  0.00    +0.019 A 
ATOM     38  C   UNL     1     -14.145  14.630  32.607  0.00  0.00    +0.120 A 
ATOM     39  N   UNL     1     -15.474  14.458  32.981  0.00  0.00    -0.263 NA
ATOM     40  C   UNL     1     -16.516  14.373  32.046  0.00  0.00    +0.111 A 
ENDBRANCH   4   3
ENDBRANCH  10   9
BRANCH  12  13
ATOM     13  N   UNL     1      -4.892  12.643  31.473  0.00  0.00    -0.281 N 
ATOM     14  C   UNL     1      -4.540  12.280  30.183  0.00  0.00    +0.248 C 
ATOM     30  O   UNL     1      -5.038  12.752  29.172  0.00  0.00    -0.270 OA
ATOM     31  H   UNL     1      -4.546  12.039  32.219  0.00  0.00    +0.155 HD
BRANCH  14  15
ATOM     15  C   UNL     1      -3.494  11.230  29.988  0.00  0.00    +0.037 A 
ATOM     16  C   UNL     1      -2.072  11.576  29.926  0.00  0.00    +0.013 A 
ATOM     17  C   UNL     1      -1.085  10.546  29.720  0.00  0.00    +0.005 A 
ATOM     18  C   UNL     1      -1.518   9.158  29.577  0.00  0.00    -0.033 A 
ATOM     28  C   UNL     1      -2.935   8.842  29.649  0.00  0.00    +0.005 A 
ATOM     29  C   UNL     1      -3.905   9.849  29.849  0.00  0.00    +0.013 A 
BRANCH  18  19
ATOM     19  C   UNL     1      -0.536   7.996  29.334  0.00  0.00    +0.119 C 
BRANCH  19  20
ATOM     20  N   UNL     1      -0.318   7.038  30.458  0.00  0.00    -0.302 NA
ATOM     21  C   UNL     1      -1.438   5.997  30.550  0.00  0.00    +0.066 C 
ATOM     22  C   UNL     1      -1.183   4.989  31.718  0.00  0.00    -0.064 C 
ATOM     23  N   UNL     1      -1.049   5.759  33.033  0.00  0.00    +0.379 N 
ATOM     24  C   UNL     1      -0.867   4.809  34.140  0.00  0.00    -0.096 C 
ATOM     25  H   UNL     1      -2.008   6.301  33.206  0.00  0.00    -0.082 HD
ATOM     26  C   UNL     1       0.060   6.798  32.949  0.00  0.00    -0.064 C 
ATOM     27  C   UNL     1      -0.188   7.777  31.767  0.00  0.00    +0.066 C 
ENDBRANCH  19  20
ENDBRANCH  18  19
ENDBRANCH  14  15
ENDBRANCH  12  13
TORSDOF 6
ENDMDL
