MODEL 1
REMARK VINA RESULT:      -9.3      0.000      0.000
REMARK  Name = C:\Users\Docking\Desktop\test protocol\1iep_ligandH.pdb
REMARK  8 active torsions:
REMARK  status: ('A' for Active; 'I' for Inactive)
REMARK    1  A    between atoms: _5  and  _11
REMARK    2  A    between atoms: _19  and  _21
REMARK    3  A    between atoms: _22  and  _66
REMARK    4  A    between atoms: _27  and  _30
REMARK    5  A    between atoms: _32  and  _33
REMARK    6  A    between atoms: _38  and  _43
REMARK    7  A    between atoms: _43  and  _46
REMARK    8  A    between atoms: _53  and  _55
REMARK                            x       y       z     vdW  Elec       q    Type
REMARK                         _______ _______ _______ _____ _____    ______ ____
ROOT
ATOM     10  C   UNL     1       1.686   1.292   0.820  0.00  0.00    +0.038 A 
ATOM     11  C   UNL     1       1.417   0.613  -0.396  0.00  0.00    +0.047 A 
ATOM     12  C   UNL     1       1.911  -0.734  -0.631  0.00  0.00    +0.035 A 
ATOM     32  C   UNL     1       2.675  -1.363   0.396  0.00  0.00    +0.024 A 
ATOM     33  C   UNL     1       2.959  -0.687   1.637  0.00  0.00    +0.007 A 
ATOM     34  C   UNL     1       2.476   0.643   1.874  0.00  0.00    -0.029 A 
ATOM     35  C   UNL     1       2.817   1.322   3.221  0.00  0.00    +0.045 C 
ENDROOT
BRANCH  10   9
ATOM      4  C   UNL     1       1.911   6.040   0.155  0.00  0.00    +0.077 A 
ATOM      5  C   UNL     1       3.142   5.939  -0.576  0.00  0.00    +0.048 A 
ATOM      6  C   UNL     1       3.687   4.647  -0.752  0.00  0.00    +0.116 A 
ATOM      7  N   UNL     1       3.042   3.546  -0.232  0.00  0.00    -0.223 NA
ATOM      8  C   UNL     1       1.857   3.679   0.469  0.00  0.00    +0.220 A 
ATOM      9  N   UNL     1       1.187   2.585   0.993  0.00  0.00    -0.283 N 
ATOM     36  H   UNL     1       0.320   2.725   1.510  0.00  0.00    +0.155 HD
ATOM     37  N   UNL     1       1.317   4.902   0.652  0.00  0.00    -0.214 NA
BRANCH   4   3
ATOM      1  C   UNL     1      -0.867   8.758   0.594  0.00  0.00    +0.020 A 
ATOM      2  C   UNL     1      -0.238   7.486   0.326  0.00  0.00    +0.013 A 
ATOM      3  C   UNL     1       1.209   7.335   0.421  0.00  0.00    +0.019 A 
ATOM     38  C   UNL     1       1.996   8.500   0.794  0.00  0.00    +0.120 A 
ATOM     39  N   UNL     1       1.363   9.714   1.045  0.00  0.00    -0.263 NA
ATOM     40  C   UNL     1      -0.028   9.871   0.955  0.00  0.00    +0.111 A 
ENDBRANCH   4   3
ENDBRANCH  10   9
BRANCH  12  13
ATOM     13  N   UNL     1       1.676  -1.470  -1.848  0.00  0.00    -0.281 N 
ATOM     14  C   UNL     1       1.412  -2.823  -1.989  0.00  0.00    +0.248 C 
ATOM     30  O   UNL     1       1.550  -3.650  -1.100  0.00  0.00    -0.270 OA
ATOM     31  H   UNL     1       1.708  -0.928  -2.712  0.00  0.00    +0.155 HD
BRANCH  14  15
ATOM     15  C   UNL     1       0.941  -3.333  -3.312  0.00  0.00    +0.037 A 
ATOM     16  C   UNL     1       1.639  -2.988  -4.553  0.00  0.00    +0.013 A 
ATOM     17  C   UNL     1       1.153  -3.479  -5.817  0.00  0.00    +0.005 A 
ATOM     18  C   UNL     1      -0.039  -4.324  -5.847  0.00  0.00    -0.033 A 
ATOM     28  C   UNL     1      -0.709  -4.655  -4.601  0.00  0.00    +0.005 A 
ATOM     29  C   UNL     1      -0.237  -4.174  -3.360  0.00  0.00    +0.013 A 
BRANCH  18  19
ATOM     19  C   UNL     1      -0.640  -4.875  -7.154  0.00  0.00    +0.119 C 
BRANCH  19  20
ATOM     20  N   UNL     1      -1.687  -4.050  -7.826  0.00  0.00    -0.302 NA
ATOM     21  C   UNL     1      -3.076  -4.280  -7.222  0.00  0.00    +0.066 C 
ATOM     22  C   UNL     1      -4.155  -3.393  -7.922  0.00  0.00    -0.064 C 
ATOM     23  N   UNL     1      -4.162  -3.690  -9.423  0.00  0.00    +0.379 N 
ATOM     24  C   UNL     1      -5.215  -2.900 -10.075  0.00  0.00    -0.096 C 
ATOM     25  H   UNL     1      -4.417  -4.768  -9.552  0.00  0.00    -0.082 HD
ATOM     26  C   UNL     1      -2.784  -3.467 -10.031  0.00  0.00    -0.064 C 
ATOM     27  C   UNL     1      -1.714  -4.331  -9.308  0.00  0.00    +0.066 C 
ENDBRANCH  19  20
ENDBRANCH  18  19
ENDBRANCH  14  15
ENDBRANCH  12  13
TORSDOF 6
ENDMDL
MODEL 2
REMARK VINA RESULT:      -9.2      8.843     12.399
REMARK  Name = C:\Users\Docking\Desktop\test protocol\1iep_ligandH.pdb
REMARK  8 active torsions:
REMARK  status: ('A' for Active; 'I' for Inactive)
REMARK    1  A    between atoms: _5  and  _11
REMARK    2  A    between atoms: _19  and  _21
REMARK    3  A    between atoms: _22  and  _66
REMARK    4  A    between atoms: _27  and  _30
REMARK    5  A    between atoms: _32  and  _33
REMARK    6  A    between atoms: _38  and  _43
REMARK    7  A    between atoms: _43  and  _46
REMARK    8  A    between atoms: _53  and  _55
REMARK                            x       y       z     vdW  Elec       q    Type
REMARK                         _______ _______ _______ _____ _____    ______ ____
ROOT
ATOM     10  C   UNL     1       0.281  -6.450  -6.707  0.00  0.00    +0.038 A 
ATOM     11  C   UNL     1      -0.084  -7.818  -6.633  0.00  0.00    +0.047 A 
ATOM     12  C   UNL     1       0.312  -8.643  -5.502  0.00  0.00    +0.035 A 
ATOM     32  C   UNL     1       1.078  -8.040  -4.462  0.00  0.00    +0.024 A 
ATOM     33  C   UNL     1       1.459  -6.651  -4.522  0.00  0.00    +0.007 A 
ATOM     34  C   UNL     1       1.074  -5.833  -5.636  0.00  0.00    -0.029 A 
ATOM     35  C   UNL     1       1.516  -4.352  -5.650  0.00  0.00    +0.045 C 
ENDROOT
BRANCH  10   9
ATOM      4  C   UNL     1      -2.882  -3.668  -9.007  0.00  0.00    +0.077 A 
ATOM      5  C   UNL     1      -3.814  -3.726  -7.918  0.00  0.00    +0.048 A 
ATOM      6  C   UNL     1      -3.444  -4.488  -6.787  0.00  0.00    +0.116 A 
ATOM      7  N   UNL     1      -2.230  -5.139  -6.758  0.00  0.00    -0.223 NA
ATOM      8  C   UNL     1      -1.355  -5.064  -7.827  0.00  0.00    +0.220 A 
ATOM      9  N   UNL     1      -0.126  -5.705  -7.816  0.00  0.00    -0.283 N 
ATOM     36  H   UNL     1       0.488  -5.631  -8.627  0.00  0.00    +0.155 HD
ATOM     37  N   UNL     1      -1.686  -4.344  -8.919  0.00  0.00    -0.214 NA
BRANCH   4   3
ATOM      1  C   UNL     1      -4.619  -2.069 -12.126  0.00  0.00    +0.020 A 
ATOM      2  C   UNL     1      -4.436  -2.823 -10.907  0.00  0.00    +0.013 A 
ATOM      3  C   UNL     1      -3.128  -2.901 -10.269  0.00  0.00    +0.019 A 
ATOM     38  C   UNL     1      -2.017  -2.198 -10.894  0.00  0.00    +0.120 A 
ATOM     39  N   UNL     1      -2.224  -1.481 -12.068  0.00  0.00    -0.263 NA
ATOM     40  C   UNL     1      -3.478  -1.400 -12.692  0.00  0.00    +0.111 A 
ENDBRANCH   4   3
ENDBRANCH  10   9
BRANCH  12  13
ATOM     13  N   UNL     1      -0.023 -10.040  -5.376  0.00  0.00    -0.281 N 
ATOM     14  C   UNL     1      -0.988 -10.614  -4.565  0.00  0.00    +0.248 C 
ATOM     30  O   UNL     1      -1.568 -10.031  -3.661  0.00  0.00    -0.270 OA
ATOM     31  H   UNL     1       0.517 -10.683  -5.955  0.00  0.00    +0.155 HD
BRANCH  14  15
ATOM     15  C   UNL     1      -1.351 -12.048  -4.779  0.00  0.00    +0.037 A 
ATOM     16  C   UNL     1      -2.390 -12.697  -3.975  0.00  0.00    +0.013 A 
ATOM     17  C   UNL     1      -2.708 -14.087  -4.191  0.00  0.00    +0.005 A 
ATOM     18  C   UNL     1      -1.987 -14.836  -5.217  0.00  0.00    -0.033 A 
ATOM     28  C   UNL     1      -0.965 -14.166  -6.003  0.00  0.00    +0.005 A 
ATOM     29  C   UNL     1      -0.649 -12.804  -5.794  0.00  0.00    +0.013 A 
BRANCH  18  19
ATOM     19  C   UNL     1      -2.246 -16.327  -5.501  0.00  0.00    +0.119 C 
BRANCH  19  20
ATOM     20  N   UNL     1      -3.217 -16.658  -6.587  0.00  0.00    -0.302 NA
ATOM     21  C   UNL     1      -2.538 -16.743  -7.957  0.00  0.00    +0.066 C 
ATOM     22  C   UNL     1      -3.564 -17.111  -9.078  0.00  0.00    -0.064 C 
ATOM     23  N   UNL     1      -4.690 -16.077  -9.095  0.00  0.00    +0.379 N 
ATOM     24  C   UNL     1      -5.626 -16.388 -10.186  0.00  0.00    -0.096 C 
ATOM     25  H   UNL     1      -4.234 -15.084  -9.314  0.00  0.00    -0.082 HD
ATOM     26  C   UNL     1      -5.369 -15.984  -7.736  0.00  0.00    -0.064 C 
ATOM     27  C   UNL     1      -4.336 -15.647  -6.625  0.00  0.00    +0.066 C 
ENDBRANCH  19  20
ENDBRANCH  18  19
ENDBRANCH  14  15
ENDBRANCH  12  13
TORSDOF 6
ENDMDL
MODEL 3
REMARK VINA RESULT:      -8.8      3.908      7.612
REMARK  Name = C:\Users\Docking\Desktop\test protocol\1iep_ligandH.pdb
REMARK  8 active torsions:
REMARK  status: ('A' for Active; 'I' for Inactive)
REMARK    1  A    between atoms: _5  and  _11
REMARK    2  A    between atoms: _19  and  _21
REMARK    3  A    between atoms: _22  and  _66
REMARK    4  A    between atoms: _27  and  _30
REMARK    5  A    between atoms: _32  and  _33
REMARK    6  A    between atoms: _38  and  _43
REMARK    7  A    between atoms: _43  and  _46
REMARK    8  A    between atoms: _53  and  _55
REMARK                            x       y       z     vdW  Elec       q    Type
REMARK                         _______ _______ _______ _____ _____    ______ ____
ROOT
ATOM     10  C   UNL     1       0.327  -4.752  -3.880  0.00  0.00    +0.038 A 
ATOM     11  C   UNL     1      -0.401  -4.306  -5.012  0.00  0.00    +0.047 A 
ATOM     12  C   UNL     1      -0.472  -5.108  -6.224  0.00  0.00    +0.035 A 
ATOM     32  C   UNL     1       0.209  -6.359  -6.247  0.00  0.00    +0.024 A 
ATOM     33  C   UNL     1       0.955  -6.827  -5.105  0.00  0.00    +0.007 A 
ATOM     34  C   UNL     1       1.031  -6.040  -3.908  0.00  0.00    -0.029 A 
ATOM     35  C   UNL     1       1.851  -6.588  -2.717  0.00  0.00    +0.045 C 
ENDROOT
BRANCH  10   9
ATOM      4  C   UNL     1       2.286  -1.268  -1.221  0.00  0.00    +0.077 A 
ATOM      5  C   UNL     1       3.346  -1.062  -2.166  0.00  0.00    +0.048 A 
ATOM      6  C   UNL     1       3.355  -1.879  -3.319  0.00  0.00    +0.116 A 
ATOM      7  N   UNL     1       2.372  -2.826  -3.504  0.00  0.00    -0.223 NA
ATOM      8  C   UNL     1       1.365  -3.000  -2.573  0.00  0.00    +0.220 A 
ATOM      9  N   UNL     1       0.362  -3.942  -2.742  0.00  0.00    -0.283 N 
ATOM     36  H   UNL     1      -0.359  -4.044  -2.028  0.00  0.00    +0.155 HD
ATOM     37  N   UNL     1       1.335  -2.234  -1.462  0.00  0.00    -0.214 NA
BRANCH   4   3
ATOM      1  C   UNL     1       2.458  -0.159   2.526  0.00  0.00    +0.020 A 
ATOM      2  C   UNL     1       2.626  -0.957   1.333  0.00  0.00    +0.013 A 
ATOM      3  C   UNL     1       2.139  -0.482   0.044  0.00  0.00    +0.019 A 
ATOM     38  C   UNL     1       1.482   0.815  -0.004  0.00  0.00    +0.120 A 
ATOM     39  N   UNL     1       1.334   1.561   1.161  0.00  0.00    -0.263 NA
ATOM     40  C   UNL     1       1.797   1.114   2.407  0.00  0.00    +0.111 A 
ENDBRANCH   4   3
ENDBRANCH  10   9
BRANCH  12  13
ATOM     13  N   UNL     1      -1.190  -4.703  -7.408  0.00  0.00    -0.281 N 
ATOM     14  C   UNL     1      -2.527  -4.361  -7.517  0.00  0.00    +0.248 C 
ATOM     30  O   UNL     1      -3.364  -4.558  -6.649  0.00  0.00    -0.270 OA
ATOM     31  H   UNL     1      -0.645  -4.665  -8.269  0.00  0.00    +0.155 HD
BRANCH  14  15
ATOM     15  C   UNL     1      -3.008  -3.721  -8.780  0.00  0.00    +0.037 A 
ATOM     16  C   UNL     1      -2.066  -3.220  -9.784  0.00  0.00    +0.013 A 
ATOM     17  C   UNL     1      -2.556  -2.592 -10.985  0.00  0.00    +0.005 A 
ATOM     18  C   UNL     1      -3.997  -2.462 -11.189  0.00  0.00    -0.033 A 
ATOM     28  C   UNL     1      -4.909  -2.973 -10.179  0.00  0.00    +0.005 A 
ATOM     29  C   UNL     1      -4.432  -3.589  -9.000  0.00  0.00    +0.013 A 
BRANCH  18  19
ATOM     19  C   UNL     1      -4.609  -1.787 -12.431  0.00  0.00    +0.119 C 
BRANCH  19  20
ATOM     20  N   UNL     1      -4.746  -2.619 -13.663  0.00  0.00    -0.302 NA
ATOM     21  C   UNL     1      -3.744  -3.776 -13.690  0.00  0.00    +0.066 C 
ATOM     22  C   UNL     1      -3.917  -4.649 -14.976  0.00  0.00    -0.064 C 
ATOM     23  N   UNL     1      -3.757  -3.765 -16.214  0.00  0.00    +0.379 N 
ATOM     24  C   UNL     1      -3.862  -4.593 -17.424  0.00  0.00    -0.096 C 
ATOM     25  H   UNL     1      -2.731  -3.331 -16.189  0.00  0.00    -0.082 HD
ATOM     26  C   UNL     1      -4.748  -2.610 -16.194  0.00  0.00    -0.064 C 
ATOM     27  C   UNL     1      -4.588  -1.767 -14.899  0.00  0.00    +0.066 C 
ENDBRANCH  19  20
ENDBRANCH  18  19
ENDBRANCH  14  15
ENDBRANCH  12  13
TORSDOF 6
ENDMDL
MODEL 4
REMARK VINA RESULT:      -8.7      8.968     13.665
REMARK  Name = C:\Users\Docking\Desktop\test protocol\1iep_ligandH.pdb
REMARK  8 active torsions:
REMARK  status: ('A' for Active; 'I' for Inactive)
REMARK    1  A    between atoms: _5  and  _11
REMARK    2  A    between atoms: _19  and  _21
REMARK    3  A    between atoms: _22  and  _66
REMARK    4  A    between atoms: _27  and  _30
REMARK    5  A    between atoms: _32  and  _33
REMARK    6  A    between atoms: _38  and  _43
REMARK    7  A    between atoms: _43  and  _46
REMARK    8  A    between atoms: _53  and  _55
REMARK                            x       y       z     vdW  Elec       q    Type
REMARK                         _______ _______ _______ _____ _____    ______ ____
ROOT
ATOM     10  C   UNL     1      -2.229  -7.243  -4.377  0.00  0.00    +0.038 A 
ATOM     11  C   UNL     1      -2.820  -6.579  -5.483  0.00  0.00    +0.047 A 
ATOM     12  C   UNL     1      -2.350  -5.272  -5.915  0.00  0.00    +0.035 A 
ATOM     32  C   UNL     1      -1.275  -4.671  -5.199  0.00  0.00    +0.024 A 
ATOM     33  C   UNL     1      -0.663  -5.330  -4.073  0.00  0.00    +0.007 A 
ATOM     34  C   UNL     1      -1.124  -6.619  -3.640  0.00  0.00    -0.029 A 
ATOM     35  C   UNL     1      -0.435  -7.277  -2.422  0.00  0.00    +0.045 C 
ENDROOT
BRANCH  10   9
ATOM      4  C   UNL     1      -2.077 -12.040  -4.453  0.00  0.00    +0.077 A 
ATOM      5  C   UNL     1      -0.940 -12.049  -5.328  0.00  0.00    +0.048 A 
ATOM      6  C   UNL     1      -0.429 -10.798  -5.742  0.00  0.00    +0.116 A 
ATOM      7  N   UNL     1      -1.019  -9.631  -5.305  0.00  0.00    -0.223 NA
ATOM      8  C   UNL     1      -2.115  -9.658  -4.463  0.00  0.00    +0.220 A 
ATOM      9  N   UNL     1      -2.720  -8.497  -4.006  0.00  0.00    -0.283 N 
ATOM     36  H   UNL     1      -3.531  -8.559  -3.391  0.00  0.00    +0.155 HD
ATOM     37  N   UNL     1      -2.623 -10.840  -4.055  0.00  0.00    -0.214 NA
BRANCH   4   3
ATOM      1  C   UNL     1      -4.213 -15.304  -4.177  0.00  0.00    +0.020 A 
ATOM      2  C   UNL     1      -3.609 -14.116  -4.734  0.00  0.00    +0.013 A 
ATOM      3  C   UNL     1      -2.729 -13.280  -3.927  0.00  0.00    +0.019 A 
ATOM     38  C   UNL     1      -2.477 -13.680  -2.550  0.00  0.00    +0.120 A 
ATOM     39  N   UNL     1      -3.074 -14.829  -2.041  0.00  0.00    -0.263 NA
ATOM     40  C   UNL     1      -3.925 -15.639  -2.808  0.00  0.00    +0.111 A 
ENDBRANCH   4   3
ENDBRANCH  10   9
BRANCH  12  13
ATOM     13  N   UNL     1      -2.917  -4.547  -7.025  0.00  0.00    -0.281 N 
ATOM     14  C   UNL     1      -2.271  -4.089  -8.162  0.00  0.00    +0.248 C 
ATOM     30  O   UNL     1      -1.057  -4.048  -8.298  0.00  0.00    -0.270 OA
ATOM     31  H   UNL     1      -3.915  -4.347  -6.965  0.00  0.00    +0.155 HD
BRANCH  14  15
ATOM     15  C   UNL     1      -3.092  -3.592  -9.308  0.00  0.00    +0.037 A 
ATOM     16  C   UNL     1      -4.539  -3.401  -9.180  0.00  0.00    +0.013 A 
ATOM     17  C   UNL     1      -5.309  -2.937 -10.306  0.00  0.00    +0.005 A 
ATOM     18  C   UNL     1      -4.633  -2.659 -11.571  0.00  0.00    -0.033 A 
ATOM     28  C   UNL     1      -3.195  -2.851 -11.668  0.00  0.00    +0.005 A 
ATOM     29  C   UNL     1      -2.437  -3.308 -10.567  0.00  0.00    +0.013 A 
BRANCH  18  19
ATOM     19  C   UNL     1      -5.378  -2.180 -12.830  0.00  0.00    +0.119 C 
BRANCH  19  20
ATOM     20  N   UNL     1      -4.557  -1.583 -13.926  0.00  0.00    -0.302 NA
ATOM     21  C   UNL     1      -5.154  -0.269 -14.440  0.00  0.00    +0.066 C 
ATOM     22  C   UNL     1      -4.270   0.353 -15.569  0.00  0.00    -0.064 C 
ATOM     23  N   UNL     1      -4.119  -0.656 -16.709  0.00  0.00    +0.379 N 
ATOM     24  C   UNL     1      -3.337  -0.052 -17.798  0.00  0.00    -0.096 C 
ATOM     25  H   UNL     1      -5.138  -0.874 -17.105  0.00  0.00    -0.082 HD
ATOM     26  C   UNL     1      -3.529  -1.966 -16.206  0.00  0.00    -0.064 C 
ATOM     27  C   UNL     1      -4.399  -2.561 -15.063  0.00  0.00    +0.066 C 
ENDBRANCH  19  20
ENDBRANCH  18  19
ENDBRANCH  14  15
ENDBRANCH  12  13
TORSDOF 6
ENDMDL
MODEL 5
REMARK VINA RESULT:      -8.7      9.357     15.357
REMARK  Name = C:\Users\Docking\Desktop\test protocol\1iep_ligandH.pdb
REMARK  8 active torsions:
REMARK  status: ('A' for Active; 'I' for Inactive)
REMARK    1  A    between atoms: _5  and  _11
REMARK    2  A    between atoms: _19  and  _21
REMARK    3  A    between atoms: _22  and  _66
REMARK    4  A    between atoms: _27  and  _30
REMARK    5  A    between atoms: _32  and  _33
REMARK    6  A    between atoms: _38  and  _43
REMARK    7  A    between atoms: _43  and  _46
REMARK    8  A    between atoms: _53  and  _55
REMARK                            x       y       z     vdW  Elec       q    Type
REMARK                         _______ _______ _______ _____ _____    ______ ____
ROOT
ATOM     10  C   UNL     1      -3.702  -2.610 -13.279  0.00  0.00    +0.038 A 
ATOM     11  C   UNL     1      -4.323  -1.337 -13.221  0.00  0.00    +0.047 A 
ATOM     12  C   UNL     1      -5.077  -0.815 -14.351  0.00  0.00    +0.035 A 
ATOM     32  C   UNL     1      -5.181  -1.619 -15.523  0.00  0.00    +0.024 A 
ATOM     33  C   UNL     1      -4.555  -2.916 -15.599  0.00  0.00    +0.007 A 
ATOM     34  C   UNL     1      -3.808  -3.435 -14.489  0.00  0.00    -0.029 A 
ATOM     35  C   UNL     1      -3.153  -4.828 -14.629  0.00  0.00    +0.045 C 
ENDROOT
BRANCH  10   9
ATOM      4  C   UNL     1      -3.337  -3.553  -8.587  0.00  0.00    +0.077 A 
ATOM      5  C   UNL     1      -4.667  -3.081  -8.328  0.00  0.00    +0.048 A 
ATOM      6  C   UNL     1      -5.409  -2.597  -9.429  0.00  0.00    +0.116 A 
ATOM      7  N   UNL     1      -4.853  -2.591 -10.690  0.00  0.00    -0.223 NA
ATOM      8  C   UNL     1      -3.567  -3.052 -10.904  0.00  0.00    +0.220 A 
ATOM      9  N   UNL     1      -2.991  -3.062 -12.165  0.00  0.00    -0.283 N 
ATOM     36  H   UNL     1      -2.037  -3.403 -12.281  0.00  0.00    +0.155 HD
ATOM     37  N   UNL     1      -2.837  -3.518  -9.870  0.00  0.00    -0.214 NA
BRANCH   4   3
ATOM      1  C   UNL     1      -1.979  -5.464  -5.456  0.00  0.00    +0.020 A 
ATOM      2  C   UNL     1      -2.897  -4.964  -6.453  0.00  0.00    +0.013 A 
ATOM      3  C   UNL     1      -2.430  -4.098  -7.528  0.00  0.00    +0.019 A 
ATOM     38  C   UNL     1      -1.016  -3.754  -7.566  0.00  0.00    +0.120 A 
ATOM     39  N   UNL     1      -0.156  -4.249  -6.591  0.00  0.00    -0.263 NA
ATOM     40  C   UNL     1      -0.594  -5.082  -5.551  0.00  0.00    +0.111 A 
ENDBRANCH   4   3
ENDBRANCH  10   9
BRANCH  12  13
ATOM     13  N   UNL     1      -5.722   0.475 -14.353  0.00  0.00    -0.281 N 
ATOM     14  C   UNL     1      -5.477   1.548 -15.194  0.00  0.00    +0.248 C 
ATOM     30  O   UNL     1      -4.512   1.636 -15.939  0.00  0.00    -0.270 OA
ATOM     31  H   UNL     1      -6.447   0.613 -13.649  0.00  0.00    +0.155 HD
BRANCH  14  15
ATOM     15  C   UNL     1      -6.435   2.695 -15.198  0.00  0.00    +0.037 A 
ATOM     16  C   UNL     1      -7.706   2.622 -15.923  0.00  0.00    +0.013 A 
ATOM     17  C   UNL     1      -8.604   3.750 -15.924  0.00  0.00    +0.005 A 
ATOM     18  C   UNL     1      -8.233   4.961 -15.197  0.00  0.00    -0.033 A 
ATOM     28  C   UNL     1      -6.968   5.005 -14.482  0.00  0.00    +0.005 A 
ATOM     29  C   UNL     1      -6.085   3.902 -14.479  0.00  0.00    +0.013 A 
BRANCH  18  19
ATOM     19  C   UNL     1      -9.120   6.220 -15.161  0.00  0.00    +0.119 C 
BRANCH  19  20
ATOM     20  N   UNL     1      -9.887   6.481 -13.906  0.00  0.00    -0.302 NA
ATOM     21  C   UNL     1     -10.828   5.325 -13.557  0.00  0.00    +0.066 C 
ATOM     22  C   UNL     1     -11.605   5.605 -12.229  0.00  0.00    -0.064 C 
ATOM     23  N   UNL     1     -12.383   6.916 -12.364  0.00  0.00    +0.379 N 
ATOM     24  C   UNL     1     -13.161   7.153 -11.139  0.00  0.00    -0.096 C 
ATOM     25  H   UNL     1     -13.105   6.795 -13.205  0.00  0.00    -0.082 HD
ATOM     26  C   UNL     1     -11.455   8.070 -12.714  0.00  0.00    -0.064 C 
ATOM     27  C   UNL     1     -10.666   7.768 -14.019  0.00  0.00    +0.066 C 
ENDBRANCH  19  20
ENDBRANCH  18  19
ENDBRANCH  14  15
ENDBRANCH  12  13
TORSDOF 6
ENDMDL
