MODEL 1
REMARK VINA RESULT:      -9.2      0.000      0.000
REMARK  Name = C:\Users\Docking\Desktop\test protocol\1iep_ligandH.pdb
REMARK  8 active torsions:
REMARK  status: ('A' for Active; 'I' for Inactive)
REMARK    1  A    between atoms: _5  and  _11
REMARK    2  A    between atoms: _19  and  _21
REMARK    3  A    between atoms: _22  and  _66
REMARK    4  A    between atoms: _27  and  _30
REMARK    5  A    between atoms: _32  and  _33
REMARK    6  A    between atoms: _38  and  _43
REMARK    7  A    between atoms: _43  and  _46
REMARK    8  A    between atoms: _53  and  _55
REMARK                            x       y       z     vdW  Elec       q    Type
REMARK                         _______ _______ _______ _____ _____    ______ ____
ROOT
ATOM     10  C   UNL     1      17.839   7.359  20.465  0.00  0.00    +0.038 A 
ATOM     11  C   UNL     1      18.699   6.389  19.890  0.00  0.00    +0.047 A 
ATOM     12  C   UNL     1      18.166   5.212  19.222  0.00  0.00    +0.035 A 
ATOM     32  C   UNL     1      16.751   5.056  19.155  0.00  0.00    +0.024 A 
ATOM     33  C   UNL     1      15.862   6.032  19.735  0.00  0.00    +0.007 A 
ATOM     34  C   UNL     1      16.382   7.194  20.398  0.00  0.00    -0.029 A 
ATOM     35  C   UNL     1      15.382   8.204  21.007  0.00  0.00    +0.045 C 
ENDROOT
BRANCH  10   9
ATOM      4  C   UNL     1      19.243   9.743  24.387  0.00  0.00    +0.077 A 
ATOM      5  C   UNL     1      18.785   8.699  25.257  0.00  0.00    +0.048 A 
ATOM      6  C   UNL     1      18.188   7.568  24.656  0.00  0.00    +0.116 A 
ATOM      7  N   UNL     1      18.063   7.498  23.286  0.00  0.00    -0.223 NA
ATOM      8  C   UNL     1      18.513   8.523  22.475  0.00  0.00    +0.220 A 
ATOM      9  N   UNL     1      18.405   8.470  21.094  0.00  0.00    -0.283 N 
ATOM     36  H   UNL     1      18.743   9.251  20.531  0.00  0.00    +0.155 HD
ATOM     37  N   UNL     1      19.086   9.614  23.025  0.00  0.00    -0.214 NA
BRANCH   4   3
ATOM      1  C   UNL     1      20.107  12.939  26.470  0.00  0.00    +0.020 A 
ATOM      2  C   UNL     1      19.438  11.731  26.044  0.00  0.00    +0.013 A 
ATOM      3  C   UNL     1      19.898  10.999  24.871  0.00  0.00    +0.019 A 
ATOM     38  C   UNL     1      21.047  11.520  24.145  0.00  0.00    +0.120 A 
ATOM     39  N   UNL     1      21.670  12.687  24.577  0.00  0.00    -0.263 NA
ATOM     40  C   UNL     1      21.235  13.401  25.704  0.00  0.00    +0.111 A 
ENDBRANCH   4   3
ENDBRANCH  10   9
BRANCH  12  13
ATOM     13  N   UNL     1      18.990   4.190  18.626  0.00  0.00    -0.281 N 
ATOM     14  C   UNL     1      19.509   3.056  19.230  0.00  0.00    +0.248 C 
ATOM     30  O   UNL     1      19.520   2.858  20.436  0.00  0.00    -0.270 OA
ATOM     31  H   UNL     1      19.219   4.317  17.640  0.00  0.00    +0.155 HD
BRANCH  14  15
ATOM     15  C   UNL     1      20.117   1.995  18.371  0.00  0.00    +0.037 A 
ATOM     16  C   UNL     1      20.982   2.337  17.238  0.00  0.00    +0.013 A 
ATOM     17  C   UNL     1      21.542   1.294  16.415  0.00  0.00    +0.005 A 
ATOM     18  C   UNL     1      21.239  -0.102  16.723  0.00  0.00    -0.033 A 
ATOM     28  C   UNL     1      20.383  -0.413  17.856  0.00  0.00    +0.005 A 
ATOM     29  C   UNL     1      19.831   0.606  18.664  0.00  0.00    +0.013 A 
BRANCH  18  19
ATOM     19  C   UNL     1      21.776  -1.278  15.886  0.00  0.00    +0.119 C 
BRANCH  19  20
ATOM     20  N   UNL     1      20.935  -1.743  14.743  0.00  0.00    -0.302 NA
ATOM     21  C   UNL     1      21.475  -1.253  13.396  0.00  0.00    +0.066 C 
ATOM     22  C   UNL     1      20.597  -1.767  12.210  0.00  0.00    -0.064 C 
ATOM     23  N   UNL     1      19.152  -1.310  12.413  0.00  0.00    +0.379 N 
ATOM     24  C   UNL     1      18.335  -1.742  11.269  0.00  0.00    -0.096 C 
ATOM     25  H   UNL     1      19.149  -0.195  12.428  0.00  0.00    -0.082 HD
ATOM     26  C   UNL     1      18.608  -1.791  13.750  0.00  0.00    -0.064 C 
ATOM     27  C   UNL     1      19.504  -1.299  14.921  0.00  0.00    +0.066 C 
ENDBRANCH  19  20
ENDBRANCH  18  19
ENDBRANCH  14  15
ENDBRANCH  12  13
TORSDOF 6
ENDMDL
MODEL 2
REMARK VINA RESULT:      -9.1      4.288      8.246
REMARK  Name = C:\Users\Docking\Desktop\test protocol\1iep_ligandH.pdb
REMARK  8 active torsions:
REMARK  status: ('A' for Active; 'I' for Inactive)
REMARK    1  A    between atoms: _5  and  _11
REMARK    2  A    between atoms: _19  and  _21
REMARK    3  A    between atoms: _22  and  _66
REMARK    4  A    between atoms: _27  and  _30
REMARK    5  A    between atoms: _32  and  _33
REMARK    6  A    between atoms: _38  and  _43
REMARK    7  A    between atoms: _43  and  _46
REMARK    8  A    between atoms: _53  and  _55
REMARK                            x       y       z     vdW  Elec       q    Type
REMARK                         _______ _______ _______ _____ _____    ______ ____
ROOT
ATOM     10  C   UNL     1      22.559  12.840  24.878  0.00  0.00    +0.038 A 
ATOM     11  C   UNL     1      22.287  11.686  24.099  0.00  0.00    +0.047 A 
ATOM     12  C   UNL     1      20.925  11.216  23.900  0.00  0.00    +0.035 A 
ATOM     32  C   UNL     1      19.862  11.948  24.507  0.00  0.00    +0.024 A 
ATOM     33  C   UNL     1      20.121  13.122  25.303  0.00  0.00    +0.007 A 
ATOM     34  C   UNL     1      21.462  13.588  25.504  0.00  0.00    -0.029 A 
ATOM     35  C   UNL     1      21.681  14.850  26.372  0.00  0.00    +0.045 C 
ENDROOT
BRANCH  10   9
ATOM      4  C   UNL     1      26.819  12.621  27.077  0.00  0.00    +0.077 A 
ATOM      5  C   UNL     1      26.354  11.632  28.007  0.00  0.00    +0.048 A 
ATOM      6  C   UNL     1      25.010  11.212  27.890  0.00  0.00    +0.116 A 
ATOM      7  N   UNL     1      24.201  11.747  26.912  0.00  0.00    -0.223 NA
ATOM      8  C   UNL     1      24.680  12.700  26.032  0.00  0.00    +0.220 A 
ATOM      9  N   UNL     1      23.885  13.246  25.036  0.00  0.00    -0.283 N 
ATOM     36  H   UNL     1      24.274  13.952  24.411  0.00  0.00    +0.155 HD
ATOM     37  N   UNL     1      25.959  13.119  26.124  0.00  0.00    -0.214 NA
BRANCH   4   3
ATOM      1  C   UNL     1      29.968  14.814  26.321  0.00  0.00    +0.020 A 
ATOM      2  C   UNL     1      28.607  14.331  26.292  0.00  0.00    +0.013 A 
ATOM      3  C   UNL     1      28.214  13.163  27.071  0.00  0.00    +0.019 A 
ATOM     38  C   UNL     1      29.231  12.503  27.876  0.00  0.00    +0.120 A 
ATOM     39  N   UNL     1      30.534  12.990  27.884  0.00  0.00    -0.263 NA
ATOM     40  C   UNL     1      30.924  14.112  27.137  0.00  0.00    +0.111 A 
ENDBRANCH   4   3
ENDBRANCH  10   9
BRANCH  12  13
ATOM     13  N   UNL     1      20.588  10.047  23.126  0.00  0.00    -0.281 N 
ATOM     14  C   UNL     1      19.726   9.018  23.468  0.00  0.00    +0.248 C 
ATOM     30  O   UNL     1      19.274   8.840  24.589  0.00  0.00    -0.270 OA
ATOM     31  H   UNL     1      21.041   9.968  22.215  0.00  0.00    +0.155 HD
BRANCH  14  15
ATOM     15  C   UNL     1      19.318   8.038  22.416  0.00  0.00    +0.037 A 
ATOM     16  C   UNL     1      18.324   6.997  22.692  0.00  0.00    +0.013 A 
ATOM     17  C   UNL     1      17.961   6.053  21.665  0.00  0.00    +0.005 A 
ATOM     18  C   UNL     1      18.593   6.147  20.351  0.00  0.00    -0.033 A 
ATOM     28  C   UNL     1      19.573   7.192  20.103  0.00  0.00    +0.005 A 
ATOM     29  C   UNL     1      19.931   8.118  21.108  0.00  0.00    +0.013 A 
BRANCH  18  19
ATOM     19  C   UNL     1      18.283   5.169  19.202  0.00  0.00    +0.119 C 
BRANCH  19  20
ATOM     20  N   UNL     1      19.352   4.199  18.822  0.00  0.00    -0.302 NA
ATOM     21  C   UNL     1      19.926   4.491  17.432  0.00  0.00    +0.066 C 
ATOM     22  C   UNL     1      21.059   3.479  17.061  0.00  0.00    -0.064 C 
ATOM     23  N   UNL     1      20.509   2.054  17.131  0.00  0.00    +0.379 N 
ATOM     24  C   UNL     1      21.556   1.104  16.726  0.00  0.00    -0.096 C 
ATOM     25  H   UNL     1      19.677   1.975  16.394  0.00  0.00    -0.082 HD
ATOM     26  C   UNL     1      19.934   1.756  18.509  0.00  0.00    -0.064 C 
ATOM     27  C   UNL     1      18.830   2.784  18.881  0.00  0.00    +0.066 C 
ENDBRANCH  19  20
ENDBRANCH  18  19
ENDBRANCH  14  15
ENDBRANCH  12  13
TORSDOF 6
ENDMDL
MODEL 3
REMARK VINA RESULT:      -9.1      5.218      8.654
REMARK  Name = C:\Users\Docking\Desktop\test protocol\1iep_ligandH.pdb
REMARK  8 active torsions:
REMARK  status: ('A' for Active; 'I' for Inactive)
REMARK    1  A    between atoms: _5  and  _11
REMARK    2  A    between atoms: _19  and  _21
REMARK    3  A    between atoms: _22  and  _66
REMARK    4  A    between atoms: _27  and  _30
REMARK    5  A    between atoms: _32  and  _33
REMARK    6  A    between atoms: _38  and  _43
REMARK    7  A    between atoms: _43  and  _46
REMARK    8  A    between atoms: _53  and  _55
REMARK                            x       y       z     vdW  Elec       q    Type
REMARK                         _______ _______ _______ _____ _____    ______ ____
ROOT
ATOM     10  C   UNL     1      21.427  12.674  25.221  0.00  0.00    +0.038 A 
ATOM     11  C   UNL     1      20.936  11.768  24.247  0.00  0.00    +0.047 A 
ATOM     12  C   UNL     1      19.593  11.217  24.341  0.00  0.00    +0.035 A 
ATOM     32  C   UNL     1      18.776  11.613  25.440  0.00  0.00    +0.024 A 
ATOM     33  C   UNL     1      19.259  12.532  26.440  0.00  0.00    +0.007 A 
ATOM     34  C   UNL     1      20.584  13.077  26.353  0.00  0.00    -0.029 A 
ATOM     35  C   UNL     1      21.052  14.053  27.458  0.00  0.00    +0.045 C 
ENDROOT
BRANCH  10   9
ATOM      4  C   UNL     1      26.073  12.780  26.423  0.00  0.00    +0.077 A 
ATOM      5  C   UNL     1      25.895  11.777  27.433  0.00  0.00    +0.048 A 
ATOM      6  C   UNL     1      24.591  11.265  27.617  0.00  0.00    +0.116 A 
ATOM      7  N   UNL     1      23.550  11.728  26.842  0.00  0.00    -0.223 NA
ATOM      8  C   UNL     1      23.755  12.697  25.878  0.00  0.00    +0.220 A 
ATOM      9  N   UNL     1      22.724  13.172  25.082  0.00  0.00    -0.283 N 
ATOM     36  H   UNL     1      22.915  13.893  24.386  0.00  0.00    +0.155 HD
ATOM     37  N   UNL     1      24.991  13.204  25.684  0.00  0.00    -0.214 NA
BRANCH   4   3
ATOM      1  C   UNL     1      29.248  15.060  26.571  0.00  0.00    +0.020 A 
ATOM      2  C   UNL     1      27.971  14.480  26.918  0.00  0.00    +0.013 A 
ATOM      3  C   UNL     1      27.391  13.416  26.109  0.00  0.00    +0.019 A 
ATOM     38  C   UNL     1      28.135  12.957  24.945  0.00  0.00    +0.120 A 
ATOM     39  N   UNL     1      29.361  13.536  24.634  0.00  0.00    -0.263 NA
ATOM     40  C   UNL     1      29.929  14.561  25.405  0.00  0.00    +0.111 A 
ENDBRANCH   4   3
ENDBRANCH  10   9
BRANCH  12  13
ATOM     13  N   UNL     1      19.043  10.287  23.386  0.00  0.00    -0.281 N 
ATOM     14  C   UNL     1      18.808   8.932  23.555  0.00  0.00    +0.248 C 
ATOM     30  O   UNL     1      19.236   8.268  24.487  0.00  0.00    -0.270 OA
ATOM     31  H   UNL     1      18.797  10.674  22.475  0.00  0.00    +0.155 HD
BRANCH  14  15
ATOM     15  C   UNL     1      17.991   8.208  22.534  0.00  0.00    +0.037 A 
ATOM     16  C   UNL     1      18.492   7.992  21.175  0.00  0.00    +0.013 A 
ATOM     17  C   UNL     1      17.677   7.305  20.204  0.00  0.00    +0.005 A 
ATOM     18  C   UNL     1      16.351   6.829  20.591  0.00  0.00    -0.033 A 
ATOM     28  C   UNL     1      15.881   7.052  21.948  0.00  0.00    +0.005 A 
ATOM     29  C   UNL     1      16.677   7.726  22.902  0.00  0.00    +0.013 A 
BRANCH  18  19
ATOM     19  C   UNL     1      15.405   6.105  19.615  0.00  0.00    +0.119 C 
BRANCH  19  20
ATOM     20  N   UNL     1      14.916   4.751  20.014  0.00  0.00    -0.302 NA
ATOM     21  C   UNL     1      16.029   3.701  19.965  0.00  0.00    +0.066 C 
ATOM     22  C   UNL     1      15.505   2.296  20.407  0.00  0.00    -0.064 C 
ATOM     23  N   UNL     1      14.334   1.886  19.512  0.00  0.00    +0.379 N 
ATOM     24  C   UNL     1      13.877   0.541  19.887  0.00  0.00    -0.096 C 
ATOM     25  H   UNL     1      14.711   1.836  18.464  0.00  0.00    -0.082 HD
ATOM     26  C   UNL     1      13.224   2.927  19.552  0.00  0.00    -0.064 C 
ATOM     27  C   UNL     1      13.762   4.326  19.140  0.00  0.00    +0.066 C 
ENDBRANCH  19  20
ENDBRANCH  18  19
ENDBRANCH  14  15
ENDBRANCH  12  13
TORSDOF 6
ENDMDL
MODEL 4
REMARK VINA RESULT:      -9.1      4.950     13.261
REMARK  Name = C:\Users\Docking\Desktop\test protocol\1iep_ligandH.pdb
REMARK  8 active torsions:
REMARK  status: ('A' for Active; 'I' for Inactive)
REMARK    1  A    between atoms: _5  and  _11
REMARK    2  A    between atoms: _19  and  _21
REMARK    3  A    between atoms: _22  and  _66
REMARK    4  A    between atoms: _27  and  _30
REMARK    5  A    between atoms: _32  and  _33
REMARK    6  A    between atoms: _38  and  _43
REMARK    7  A    between atoms: _43  and  _46
REMARK    8  A    between atoms: _53  and  _55
REMARK                            x       y       z     vdW  Elec       q    Type
REMARK                         _______ _______ _______ _____ _____    ______ ____
ROOT
ATOM     10  C   UNL     1      22.555   6.921  19.182  0.00  0.00    +0.038 A 
ATOM     11  C   UNL     1      22.503   7.915  20.192  0.00  0.00    +0.047 A 
ATOM     12  C   UNL     1      23.663   8.738  20.499  0.00  0.00    +0.035 A 
ATOM     32  C   UNL     1      24.859   8.523  19.754  0.00  0.00    +0.024 A 
ATOM     33  C   UNL     1      24.930   7.516  18.724  0.00  0.00    +0.007 A 
ATOM     34  C   UNL     1      23.789   6.700  18.419  0.00  0.00    -0.029 A 
ATOM     35  C   UNL     1      23.924   5.631  17.310  0.00  0.00    +0.045 C 
ENDROOT
BRANCH  10   9
ATOM      4  C   UNL     1      17.834   6.130  19.535  0.00  0.00    +0.077 A 
ATOM      5  C   UNL     1      17.633   7.319  20.312  0.00  0.00    +0.048 A 
ATOM      6  C   UNL     1      18.771   8.103  20.605  0.00  0.00    +0.116 A 
ATOM      7  N   UNL     1      20.013   7.717  20.150  0.00  0.00    -0.223 NA
ATOM      8  C   UNL     1      20.173   6.563  19.404  0.00  0.00    +0.220 A 
ATOM      9  N   UNL     1      21.411   6.161  18.929  0.00  0.00    -0.283 N 
ATOM     36  H   UNL     1      21.488   5.299  18.389  0.00  0.00    +0.155 HD
ATOM     37  N   UNL     1      19.101   5.797  19.112  0.00  0.00    -0.214 NA
BRANCH   4   3
ATOM      1  C   UNL     1      14.291   4.614  18.864  0.00  0.00    +0.020 A 
ATOM      2  C   UNL     1      15.319   5.549  19.259  0.00  0.00    +0.013 A 
ATOM      3  C   UNL     1      16.729   5.200  19.141  0.00  0.00    +0.019 A 
ATOM     38  C   UNL     1      17.068   3.886  18.615  0.00  0.00    +0.120 A 
ATOM     39  N   UNL     1      16.056   3.006  18.244  0.00  0.00    -0.263 NA
ATOM     40  C   UNL     1      14.696   3.331  18.354  0.00  0.00    +0.111 A 
ENDBRANCH   4   3
ENDBRANCH  10   9
BRANCH  12  13
ATOM     13  N   UNL     1      23.672   9.757  21.519  0.00  0.00    -0.281 N 
ATOM     14  C   UNL     1      23.398  11.107  21.376  0.00  0.00    +0.248 C 
ATOM     30  O   UNL     1      23.311  11.685  20.303  0.00  0.00    -0.270 OA
ATOM     31  H   UNL     1      23.910   9.445  22.460  0.00  0.00    +0.155 HD
BRANCH  14  15
ATOM     15  C   UNL     1      23.207  11.939  22.604  0.00  0.00    +0.037 A 
ATOM     16  C   UNL     1      23.283  13.401  22.550  0.00  0.00    +0.013 A 
ATOM     17  C   UNL     1      23.113  14.178  23.752  0.00  0.00    +0.005 A 
ATOM     18  C   UNL     1      22.863  13.494  25.018  0.00  0.00    -0.033 A 
ATOM     28  C   UNL     1      22.787  12.042  25.042  0.00  0.00    +0.005 A 
ATOM     29  C   UNL     1      22.955  11.277  23.866  0.00  0.00    +0.013 A 
BRANCH  18  19
ATOM     19  C   UNL     1      22.689  14.242  26.353  0.00  0.00    +0.119 C 
BRANCH  19  20
ATOM     20  N   UNL     1      22.484  13.414  27.579  0.00  0.00    -0.302 NA
ATOM     21  C   UNL     1      21.032  13.458  28.065  0.00  0.00    +0.066 C 
ATOM     22  C   UNL     1      20.830  12.569  29.335  0.00  0.00    -0.064 C 
ATOM     23  N   UNL     1      21.784  13.034  30.437  0.00  0.00    +0.379 N 
ATOM     24  C   UNL     1      21.556  12.237  31.651  0.00  0.00    -0.096 C 
ATOM     25  H   UNL     1      21.535  14.094  30.675  0.00  0.00    -0.082 HD
ATOM     26  C   UNL     1      23.230  12.995  29.961  0.00  0.00    -0.064 C 
ATOM     27  C   UNL     1      23.413  13.859  28.681  0.00  0.00    +0.066 C 
ENDBRANCH  19  20
ENDBRANCH  18  19
ENDBRANCH  14  15
ENDBRANCH  12  13
TORSDOF 6
ENDMDL
MODEL 5
REMARK VINA RESULT:      -9.0      8.500     11.947
REMARK  Name = C:\Users\Docking\Desktop\test protocol\1iep_ligandH.pdb
REMARK  8 active torsions:
REMARK  status: ('A' for Active; 'I' for Inactive)
REMARK    1  A    between atoms: _5  and  _11
REMARK    2  A    between atoms: _19  and  _21
REMARK    3  A    between atoms: _22  and  _66
REMARK    4  A    between atoms: _27  and  _30
REMARK    5  A    between atoms: _32  and  _33
REMARK    6  A    between atoms: _38  and  _43
REMARK    7  A    between atoms: _43  and  _46
REMARK    8  A    between atoms: _53  and  _55
REMARK                            x       y       z     vdW  Elec       q    Type
REMARK                         _______ _______ _______ _____ _____    ______ ____
ROOT
ATOM     10  C   UNL     1      10.439   4.080  26.779  0.00  0.00    +0.038 A 
ATOM     11  C   UNL     1      11.505   4.822  26.210  0.00  0.00    +0.047 A 
ATOM     12  C   UNL     1      12.685   4.157  25.679  0.00  0.00    +0.035 A 
ATOM     32  C   UNL     1      12.744   2.734  25.741  0.00  0.00    +0.024 A 
ATOM     33  C   UNL     1      11.669   1.964  26.316  0.00  0.00    +0.007 A 
ATOM     34  C   UNL     1      10.504   2.615  26.844  0.00  0.00    -0.029 A 
ATOM     35  C   UNL     1       9.386   1.739  27.456  0.00  0.00    +0.045 C 
ENDROOT
BRANCH  10   9
ATOM      4  C   UNL     1       8.153   6.486  30.246  0.00  0.00    +0.077 A 
ATOM      5  C   UNL     1       9.250   6.333  31.157  0.00  0.00    +0.048 A 
ATOM      6  C   UNL     1      10.382   5.623  30.697  0.00  0.00    +0.116 A 
ATOM      7  N   UNL     1      10.403   5.108  29.419  0.00  0.00    -0.223 NA
ATOM      8  C   UNL     1       9.327   5.272  28.566  0.00  0.00    +0.220 A 
ATOM      9  N   UNL     1       9.330   4.769  27.274  0.00  0.00    -0.283 N 
ATOM     36  H   UNL     1       8.513   4.905  26.679  0.00  0.00    +0.155 HD
ATOM     37  N   UNL     1       8.234   5.945  28.983  0.00  0.00    -0.214 NA
BRANCH   4   3
ATOM      1  C   UNL     1       4.958   8.730  30.003  0.00  0.00    +0.020 A 
ATOM      2  C   UNL     1       6.175   8.048  29.626  0.00  0.00    +0.013 A 
ATOM      3  C   UNL     1       6.889   7.215  30.584  0.00  0.00    +0.019 A 
ATOM     38  C   UNL     1       6.341   7.090  31.927  0.00  0.00    +0.120 A 
ATOM     39  N   UNL     1       5.168   7.759  32.262  0.00  0.00    -0.263 NA
ATOM     40  C   UNL     1       4.473   8.566  31.348  0.00  0.00    +0.111 A 
ENDBRANCH   4   3
ENDBRANCH  10   9
BRANCH  12  13
ATOM     13  N   UNL     1      13.803   4.858  25.097  0.00  0.00    -0.281 N 
ATOM     14  C   UNL     1      13.872   5.468  23.855  0.00  0.00    +0.248 C 
ATOM     30  O   UNL     1      13.049   5.318  22.965  0.00  0.00    -0.270 OA
ATOM     31  H   UNL     1      14.645   4.911  25.671  0.00  0.00    +0.155 HD
BRANCH  14  15
ATOM     15  C   UNL     1      15.031   6.363  23.554  0.00  0.00    +0.037 A 
ATOM     16  C   UNL     1      15.050   7.205  22.356  0.00  0.00    +0.013 A 
ATOM     17  C   UNL     1      16.187   8.046  22.080  0.00  0.00    +0.005 A 
ATOM     18  C   UNL     1      17.316   8.050  23.007  0.00  0.00    -0.033 A 
ATOM     28  C   UNL     1      17.269   7.208  24.192  0.00  0.00    +0.005 A 
ATOM     29  C   UNL     1      16.156   6.382  24.465  0.00  0.00    +0.013 A 
BRANCH  18  19
ATOM     19  C   UNL     1      18.581   8.900  22.782  0.00  0.00    +0.119 C 
BRANCH  19  20
ATOM     20  N   UNL     1      19.771   8.214  22.196  0.00  0.00    -0.302 NA
ATOM     21  C   UNL     1      21.074   8.952  22.513  0.00  0.00    +0.066 C 
ATOM     22  C   UNL     1      22.310   8.209  21.911  0.00  0.00    -0.064 C 
ATOM     23  N   UNL     1      22.127   8.059  20.400  0.00  0.00    +0.379 N 
ATOM     24  C   UNL     1      23.314   7.412  19.823  0.00  0.00    -0.096 C 
ATOM     25  H   UNL     1      22.054   9.083  19.966  0.00  0.00    -0.082 HD
ATOM     26  C   UNL     1      20.831   7.328  20.076  0.00  0.00    -0.064 C 
ATOM     27  C   UNL     1      19.612   8.059  20.703  0.00  0.00    +0.066 C 
ENDBRANCH  19  20
ENDBRANCH  18  19
ENDBRANCH  14  15
ENDBRANCH  12  13
TORSDOF 6
ENDMDL
