MODEL 1
REMARK VINA RESULT:     -10.0      0.000      0.000
REMARK  Name = C:\Users\Docking\Desktop\test protocol\1iep_ligandH.pdb
REMARK  8 active torsions:
REMARK  status: ('A' for Active; 'I' for Inactive)
REMARK    1  A    between atoms: _5  and  _11
REMARK    2  A    between atoms: _19  and  _21
REMARK    3  A    between atoms: _22  and  _66
REMARK    4  A    between atoms: _27  and  _30
REMARK    5  A    between atoms: _32  and  _33
REMARK    6  A    between atoms: _38  and  _43
REMARK    7  A    between atoms: _43  and  _46
REMARK    8  A    between atoms: _53  and  _55
REMARK                            x       y       z     vdW  Elec       q    Type
REMARK                         _______ _______ _______ _____ _____    ______ ____
ROOT
ATOM     10  C   UNL     1      24.826  12.504  26.032  0.00  0.00    +0.038 A 
ATOM     11  C   UNL     1      24.809  11.609  24.931  0.00  0.00    +0.047 A 
ATOM     12  C   UNL     1      23.612  11.430  24.125  0.00  0.00    +0.035 A 
ATOM     32  C   UNL     1      22.449  12.180  24.467  0.00  0.00    +0.024 A 
ATOM     33  C   UNL     1      22.448  13.093  25.583  0.00  0.00    +0.007 A 
ATOM     34  C   UNL     1      23.625  13.272  26.383  0.00  0.00    -0.029 A 
ATOM     35  C   UNL     1      23.565  14.259  27.572  0.00  0.00    +0.045 C 
ENDROOT
BRANCH  10   9
ATOM      4  C   UNL     1      29.336  14.055  26.566  0.00  0.00    +0.077 A 
ATOM      5  C   UNL     1      29.359  14.625  25.250  0.00  0.00    +0.048 A 
ATOM      6  C   UNL     1      28.192  14.491  24.465  0.00  0.00    +0.116 A 
ATOM      7  N   UNL     1      27.090  13.834  24.969  0.00  0.00    -0.223 NA
ATOM      8  C   UNL     1      27.102  13.294  26.242  0.00  0.00    +0.220 A 
ATOM      9  N   UNL     1      26.003  12.637  26.772  0.00  0.00    -0.283 N 
ATOM     36  H   UNL     1      26.054  12.246  27.712  0.00  0.00    +0.155 HD
ATOM     37  N   UNL     1      28.205  13.408  27.011  0.00  0.00    -0.214 NA
BRANCH   4   3
ATOM      1  C   UNL     1      32.166  15.377  28.920  0.00  0.00    +0.020 A 
ATOM      2  C   UNL     1      31.051  15.372  28.002  0.00  0.00    +0.013 A 
ATOM      3  C   UNL     1      30.491  14.117  27.517  0.00  0.00    +0.019 A 
ATOM     38  C   UNL     1      31.087  12.875  27.984  0.00  0.00    +0.120 A 
ATOM     39  N   UNL     1      32.162  12.910  28.868  0.00  0.00    -0.263 NA
ATOM     40  C   UNL     1      32.710  14.112  29.340  0.00  0.00    +0.111 A 
ENDBRANCH   4   3
ENDBRANCH  10   9
BRANCH  12  13
ATOM     13  N   UNL     1      23.533  10.530  23.001  0.00  0.00    -0.281 N 
ATOM     14  C   UNL     1      23.367  10.851  21.664  0.00  0.00    +0.248 C 
ATOM     30  O   UNL     1      23.044  11.956  21.253  0.00  0.00    -0.270 OA
ATOM     31  H   UNL     1      23.610   9.536  23.218  0.00  0.00    +0.155 HD
BRANCH  14  15
ATOM     15  C   UNL     1      23.574   9.787  20.635  0.00  0.00    +0.037 A 
ATOM     16  C   UNL     1      23.095   8.419  20.849  0.00  0.00    +0.013 A 
ATOM     17  C   UNL     1      23.324   7.407  19.848  0.00  0.00    +0.005 A 
ATOM     18  C   UNL     1      24.034   7.761  18.622  0.00  0.00    -0.033 A 
ATOM     28  C   UNL     1      24.493   9.127  18.432  0.00  0.00    +0.005 A 
ATOM     29  C   UNL     1      24.272  10.121  19.412  0.00  0.00    +0.013 A 
BRANCH  18  19
ATOM     19  C   UNL     1      24.341   6.742  17.509  0.00  0.00    +0.119 C 
BRANCH  19  20
ATOM     20  N   UNL     1      23.506   5.504  17.466  0.00  0.00    -0.302 NA
ATOM     21  C   UNL     1      24.180   4.384  16.670  0.00  0.00    +0.066 C 
ATOM     22  C   UNL     1      23.303   3.089  16.654  0.00  0.00    -0.064 C 
ATOM     23  N   UNL     1      21.927   3.416  16.071  0.00  0.00    +0.379 N 
ATOM     24  C   UNL     1      21.120   2.189  16.001  0.00  0.00    -0.096 C 
ATOM     25  H   UNL     1      22.080   3.780  15.029  0.00  0.00    -0.082 HD
ATOM     26  C   UNL     1      21.250   4.531  16.855  0.00  0.00    -0.064 C 
ATOM     27  C   UNL     1      22.143   5.803  16.889  0.00  0.00    +0.066 C 
ENDBRANCH  19  20
ENDBRANCH  18  19
ENDBRANCH  14  15
ENDBRANCH  12  13
TORSDOF 6
ENDMDL
MODEL 2
REMARK VINA RESULT:      -9.9      1.056      1.292
REMARK  Name = C:\Users\Docking\Desktop\test protocol\1iep_ligandH.pdb
REMARK  8 active torsions:
REMARK  status: ('A' for Active; 'I' for Inactive)
REMARK    1  A    between atoms: _5  and  _11
REMARK    2  A    between atoms: _19  and  _21
REMARK    3  A    between atoms: _22  and  _66
REMARK    4  A    between atoms: _27  and  _30
REMARK    5  A    between atoms: _32  and  _33
REMARK    6  A    between atoms: _38  and  _43
REMARK    7  A    between atoms: _43  and  _46
REMARK    8  A    between atoms: _53  and  _55
REMARK                            x       y       z     vdW  Elec       q    Type
REMARK                         _______ _______ _______ _____ _____    ______ ____
ROOT
ATOM     10  C   UNL     1      23.453  13.105  25.496  0.00  0.00    +0.038 A 
ATOM     11  C   UNL     1      23.666  12.198  24.427  0.00  0.00    +0.047 A 
ATOM     12  C   UNL     1      22.551  11.643  23.676  0.00  0.00    +0.035 A 
ATOM     32  C   UNL     1      21.230  12.037  24.040  0.00  0.00    +0.024 A 
ATOM     33  C   UNL     1      20.994  12.957  25.124  0.00  0.00    +0.007 A 
ATOM     34  C   UNL     1      22.091  13.506  25.870  0.00  0.00    -0.029 A 
ATOM     35  C   UNL     1      21.779  14.483  27.027  0.00  0.00    +0.045 C 
ENDROOT
BRANCH  10   9
ATOM      4  C   UNL     1      28.175  13.830  25.958  0.00  0.00    +0.077 A 
ATOM      5  C   UNL     1      28.462  13.126  24.741  0.00  0.00    +0.048 A 
ATOM      6  C   UNL     1      27.366  12.586  24.030  0.00  0.00    +0.116 A 
ATOM      7  N   UNL     1      26.084  12.745  24.509  0.00  0.00    -0.223 NA
ATOM      8  C   UNL     1      25.842  13.428  25.687  0.00  0.00    +0.220 A 
ATOM      9  N   UNL     1      24.560  13.607  26.183  0.00  0.00    -0.283 N 
ATOM     36  H   UNL     1      24.424  14.110  27.060  0.00  0.00    +0.155 HD
ATOM     37  N   UNL     1      26.871  13.952  26.386  0.00  0.00    -0.214 NA
BRANCH   4   3
ATOM      1  C   UNL     1      30.025  16.209  28.451  0.00  0.00    +0.020 A 
ATOM      2  C   UNL     1      28.976  15.641  27.636  0.00  0.00    +0.013 A 
ATOM      3  C   UNL     1      29.225  14.459  26.820  0.00  0.00    +0.019 A 
ATOM     38  C   UNL     1      30.556  13.872  26.852  0.00  0.00    +0.120 A 
ATOM     39  N   UNL     1      31.547  14.442  27.645  0.00  0.00    -0.263 NA
ATOM     40  C   UNL     1      31.319  15.580  28.433  0.00  0.00    +0.111 A 
ENDBRANCH   4   3
ENDBRANCH  10   9
BRANCH  12  13
ATOM     13  N   UNL     1      22.706  10.712  22.587  0.00  0.00    -0.281 N 
ATOM     14  C   UNL     1      23.183  10.966  21.311  0.00  0.00    +0.248 C 
ATOM     30  O   UNL     1      23.348  12.083  20.845  0.00  0.00    -0.270 OA
ATOM     31  H   UNL     1      22.432   9.749  22.779  0.00  0.00    +0.155 HD
BRANCH  14  15
ATOM     15  C   UNL     1      23.509   9.811  20.419  0.00  0.00    +0.037 A 
ATOM     16  C   UNL     1      23.198   8.435  20.813  0.00  0.00    +0.013 A 
ATOM     17  C   UNL     1      23.538   7.339  19.942  0.00  0.00    +0.005 A 
ATOM     18  C   UNL     1      24.193   7.615  18.665  0.00  0.00    -0.033 A 
ATOM     28  C   UNL     1      24.485   8.990  18.297  0.00  0.00    +0.005 A 
ATOM     29  C   UNL     1      24.154  10.068  19.149  0.00  0.00    +0.013 A 
BRANCH  18  19
ATOM     19  C   UNL     1      24.612   6.506  17.683  0.00  0.00    +0.119 C 
BRANCH  19  20
ATOM     20  N   UNL     1      23.721   5.311  17.580  0.00  0.00    -0.302 NA
ATOM     21  C   UNL     1      24.313   4.229  16.673  0.00  0.00    +0.066 C 
ATOM     22  C   UNL     1      23.379   2.978  16.595  0.00  0.00    -0.064 C 
ATOM     23  N   UNL     1      21.998   3.406  16.096  0.00  0.00    +0.379 N 
ATOM     24  C   UNL     1      21.135   2.223  15.967  0.00  0.00    -0.096 C 
ATOM     25  H   UNL     1      22.126   3.844  15.079  0.00  0.00    -0.082 HD
ATOM     26  C   UNL     1      21.403   4.484  16.992  0.00  0.00    -0.064 C 
ATOM     27  C   UNL     1      22.352   5.711  17.086  0.00  0.00    +0.066 C 
ENDBRANCH  19  20
ENDBRANCH  18  19
ENDBRANCH  14  15
ENDBRANCH  12  13
TORSDOF 6
ENDMDL
MODEL 3
REMARK VINA RESULT:      -9.2      2.853      3.892
REMARK  Name = C:\Users\Docking\Desktop\test protocol\1iep_ligandH.pdb
REMARK  8 active torsions:
REMARK  status: ('A' for Active; 'I' for Inactive)
REMARK    1  A    between atoms: _5  and  _11
REMARK    2  A    between atoms: _19  and  _21
REMARK    3  A    between atoms: _22  and  _66
REMARK    4  A    between atoms: _27  and  _30
REMARK    5  A    between atoms: _32  and  _33
REMARK    6  A    between atoms: _38  and  _43
REMARK    7  A    between atoms: _43  and  _46
REMARK    8  A    between atoms: _53  and  _55
REMARK                            x       y       z     vdW  Elec       q    Type
REMARK                         _______ _______ _______ _____ _____    ______ ____
ROOT
ATOM     10  C   UNL     1      22.531  12.888  24.629  0.00  0.00    +0.038 A 
ATOM     11  C   UNL     1      22.246  11.742  23.844  0.00  0.00    +0.047 A 
ATOM     12  C   UNL     1      20.877  11.305  23.619  0.00  0.00    +0.035 A 
ATOM     32  C   UNL     1      19.821  12.062  24.206  0.00  0.00    +0.024 A 
ATOM     33  C   UNL     1      20.093  13.229  25.008  0.00  0.00    +0.007 A 
ATOM     34  C   UNL     1      21.442  13.663  25.236  0.00  0.00    -0.029 A 
ATOM     35  C   UNL     1      21.674  14.917  26.109  0.00  0.00    +0.045 C 
ENDROOT
BRANCH  10   9
ATOM      4  C   UNL     1      26.661  12.774  27.072  0.00  0.00    +0.077 A 
ATOM      5  C   UNL     1      26.108  11.918  28.082  0.00  0.00    +0.048 A 
ATOM      6  C   UNL     1      24.755  11.536  27.940  0.00  0.00    +0.116 A 
ATOM      7  N   UNL     1      24.020  11.982  26.863  0.00  0.00    -0.223 NA
ATOM      8  C   UNL     1      24.583  12.808  25.908  0.00  0.00    +0.220 A 
ATOM      9  N   UNL     1      23.864  13.262  24.813  0.00  0.00    -0.283 N 
ATOM     36  H   UNL     1      24.313  13.876  24.134  0.00  0.00    +0.155 HD
ATOM     37  N   UNL     1      25.872  13.188  26.022  0.00  0.00    -0.214 NA
BRANCH   4   3
ATOM      1  C   UNL     1      29.828  15.048  26.762  0.00  0.00    +0.020 A 
ATOM      2  C   UNL     1      28.446  14.628  26.737  0.00  0.00    +0.013 A 
ATOM      3  C   UNL     1      28.077  13.261  27.081  0.00  0.00    +0.019 A 
ATOM     38  C   UNL     1      29.138  12.337  27.449  0.00  0.00    +0.120 A 
ATOM     39  N   UNL     1      30.460  12.769  27.463  0.00  0.00    -0.263 NA
ATOM     40  C   UNL     1      30.828  14.082  27.132  0.00  0.00    +0.111 A 
ENDBRANCH   4   3
ENDBRANCH  10   9
BRANCH  12  13
ATOM     13  N   UNL     1      20.527  10.145  22.837  0.00  0.00    -0.281 N 
ATOM     14  C   UNL     1      19.618   9.148  23.153  0.00  0.00    +0.248 C 
ATOM     30  O   UNL     1      19.120   8.991  24.258  0.00  0.00    -0.270 OA
ATOM     31  H   UNL     1      21.008  10.046  21.943  0.00  0.00    +0.155 HD
BRANCH  14  15
ATOM     15  C   UNL     1      19.213   8.178  22.090  0.00  0.00    +0.037 A 
ATOM     16  C   UNL     1      18.234   7.121  22.359  0.00  0.00    +0.013 A 
ATOM     17  C   UNL     1      17.874   6.188  21.322  0.00  0.00    +0.005 A 
ATOM     18  C   UNL     1      18.493   6.308  20.004  0.00  0.00    -0.033 A 
ATOM     28  C   UNL     1      19.457   7.369  19.763  0.00  0.00    +0.005 A 
ATOM     29  C   UNL     1      19.813   8.285  20.778  0.00  0.00    +0.013 A 
BRANCH  18  19
ATOM     19  C   UNL     1      18.184   5.343  18.844  0.00  0.00    +0.119 C 
BRANCH  19  20
ATOM     20  N   UNL     1      19.254   4.377  18.455  0.00  0.00    -0.302 NA
ATOM     21  C   UNL     1      19.762   4.624  17.031  0.00  0.00    +0.066 C 
ATOM     22  C   UNL     1      20.896   3.619  16.649  0.00  0.00    -0.064 C 
ATOM     23  N   UNL     1      20.378   2.188  16.798  0.00  0.00    +0.379 N 
ATOM     24  C   UNL     1      21.424   1.241  16.384  0.00  0.00    -0.096 C 
ATOM     25  H   UNL     1      19.516   2.066  16.102  0.00  0.00    -0.082 HD
ATOM     26  C   UNL     1      19.869   1.934  18.210  0.00  0.00    -0.064 C 
ATOM     27  C   UNL     1      18.762   2.957  18.591  0.00  0.00    +0.066 C 
ENDBRANCH  19  20
ENDBRANCH  18  19
ENDBRANCH  14  15
ENDBRANCH  12  13
TORSDOF 6
ENDMDL
MODEL 4
REMARK VINA RESULT:      -9.1      2.393      3.228
REMARK  Name = C:\Users\Docking\Desktop\test protocol\1iep_ligandH.pdb
REMARK  8 active torsions:
REMARK  status: ('A' for Active; 'I' for Inactive)
REMARK    1  A    between atoms: _5  and  _11
REMARK    2  A    between atoms: _19  and  _21
REMARK    3  A    between atoms: _22  and  _66
REMARK    4  A    between atoms: _27  and  _30
REMARK    5  A    between atoms: _32  and  _33
REMARK    6  A    between atoms: _38  and  _43
REMARK    7  A    between atoms: _43  and  _46
REMARK    8  A    between atoms: _53  and  _55
REMARK                            x       y       z     vdW  Elec       q    Type
REMARK                         _______ _______ _______ _____ _____    ______ ____
ROOT
ATOM     10  C   UNL     1      22.091  12.612  25.204  0.00  0.00    +0.038 A 
ATOM     11  C   UNL     1      22.556  11.980  24.022  0.00  0.00    +0.047 A 
ATOM     12  C   UNL     1      21.704  11.071  23.270  0.00  0.00    +0.035 A 
ATOM     32  C   UNL     1      20.383  10.831  23.750  0.00  0.00    +0.024 A 
ATOM     33  C   UNL     1      19.895  11.464  24.949  0.00  0.00    +0.007 A 
ATOM     34  C   UNL     1      20.732  12.360  25.696  0.00  0.00    -0.029 A 
ATOM     35  C   UNL     1      20.158  13.006  26.979  0.00  0.00    +0.045 C 
ENDROOT
BRANCH  10   9
ATOM      4  C   UNL     1      25.611  13.463  28.353  0.00  0.00    +0.077 A 
ATOM      5  C   UNL     1      25.728  12.073  28.688  0.00  0.00    +0.048 A 
ATOM      6  C   UNL     1      24.859  11.172  28.032  0.00  0.00    +0.116 A 
ATOM      7  N   UNL     1      23.946  11.638  27.112  0.00  0.00    -0.223 NA
ATOM      8  C   UNL     1      23.858  12.986  26.814  0.00  0.00    +0.220 A 
ATOM      9  N   UNL     1      22.951  13.475  25.886  0.00  0.00    -0.283 N 
ATOM     36  H   UNL     1      22.913  14.477  25.699  0.00  0.00    +0.155 HD
ATOM     37  N   UNL     1      24.675  13.866  27.427  0.00  0.00    -0.214 NA
BRANCH   4   3
ATOM      1  C   UNL     1      28.680  15.477  29.707  0.00  0.00    +0.020 A 
ATOM      2  C   UNL     1      27.905  14.410  29.117  0.00  0.00    +0.013 A 
ATOM      3  C   UNL     1      26.461  14.537  28.959  0.00  0.00    +0.019 A 
ATOM     38  C   UNL     1      25.828  15.766  29.412  0.00  0.00    +0.120 A 
ATOM     39  N   UNL     1      26.600  16.776  29.978  0.00  0.00    -0.263 NA
ATOM     40  C   UNL     1      27.989  16.664  30.137  0.00  0.00    +0.111 A 
ENDBRANCH   4   3
ENDBRANCH  10   9
BRANCH  12  13
ATOM     13  N   UNL     1      22.123  10.394  22.068  0.00  0.00    -0.281 N 
ATOM     14  C   UNL     1      23.337  10.501  21.410  0.00  0.00    +0.248 C 
ATOM     30  O   UNL     1      24.173  11.363  21.638  0.00  0.00    -0.270 OA
ATOM     31  H   UNL     1      21.443   9.758  21.653  0.00  0.00    +0.155 HD
BRANCH  14  15
ATOM     15  C   UNL     1      23.664   9.518  20.333  0.00  0.00    +0.037 A 
ATOM     16  C   UNL     1      24.188   9.956  19.037  0.00  0.00    +0.013 A 
ATOM     17  C   UNL     1      24.479   8.988  18.009  0.00  0.00    +0.005 A 
ATOM     18  C   UNL     1      24.247   7.570  18.275  0.00  0.00    -0.033 A 
ATOM     28  C   UNL     1      23.731   7.163  19.571  0.00  0.00    +0.005 A 
ATOM     29  C   UNL     1      23.444   8.109  20.580  0.00  0.00    +0.013 A 
BRANCH  18  19
ATOM     19  C   UNL     1      24.509   6.470  17.229  0.00  0.00    +0.119 C 
BRANCH  19  20
ATOM     20  N   UNL     1      23.634   5.261  17.275  0.00  0.00    -0.302 NA
ATOM     21  C   UNL     1      24.239   4.084  16.505  0.00  0.00    +0.066 C 
ATOM     22  C   UNL     1      23.321   2.821  16.582  0.00  0.00    -0.064 C 
ATOM     23  N   UNL     1      21.934   3.168  16.039  0.00  0.00    +0.379 N 
ATOM     24  C   UNL     1      21.086   1.967  16.056  0.00  0.00    -0.096 C 
ATOM     25  H   UNL     1      22.056   3.481  14.976  0.00  0.00    -0.082 HD
ATOM     26  C   UNL     1      21.326   4.339  16.798  0.00  0.00    -0.064 C 
ATOM     27  C   UNL     1      22.260   5.580  16.739  0.00  0.00    +0.066 C 
ENDBRANCH  19  20
ENDBRANCH  18  19
ENDBRANCH  14  15
ENDBRANCH  12  13
TORSDOF 6
ENDMDL
MODEL 5
REMARK VINA RESULT:      -9.0      3.500     13.218
REMARK  Name = C:\Users\Docking\Desktop\test protocol\1iep_ligandH.pdb
REMARK  8 active torsions:
REMARK  status: ('A' for Active; 'I' for Inactive)
REMARK    1  A    between atoms: _5  and  _11
REMARK    2  A    between atoms: _19  and  _21
REMARK    3  A    between atoms: _22  and  _66
REMARK    4  A    between atoms: _27  and  _30
REMARK    5  A    between atoms: _32  and  _33
REMARK    6  A    between atoms: _38  and  _43
REMARK    7  A    between atoms: _43  and  _46
REMARK    8  A    between atoms: _53  and  _55
REMARK                            x       y       z     vdW  Elec       q    Type
REMARK                         _______ _______ _______ _____ _____    ______ ____
ROOT
ATOM     10  C   UNL     1      22.335   6.760  18.680  0.00  0.00    +0.038 A 
ATOM     11  C   UNL     1      22.417   7.656  19.776  0.00  0.00    +0.047 A 
ATOM     12  C   UNL     1      23.612   8.452  20.010  0.00  0.00    +0.035 A 
ATOM     32  C   UNL     1      24.705   8.311  19.104  0.00  0.00    +0.024 A 
ATOM     33  C   UNL     1      24.638   7.405  17.985  0.00  0.00    +0.007 A 
ATOM     34  C   UNL     1      23.463   6.616  17.752  0.00  0.00    -0.029 A 
ATOM     35  C   UNL     1      23.449   5.655  16.540  0.00  0.00    +0.045 C 
ENDROOT
BRANCH  10   9
ATOM      4  C   UNL     1      17.622   6.087  19.292  0.00  0.00    +0.077 A 
ATOM      5  C   UNL     1      17.488   7.297  20.051  0.00  0.00    +0.048 A 
ATOM      6  C   UNL     1      18.657   8.060  20.268  0.00  0.00    +0.116 A 
ATOM      7  N   UNL     1      19.865   7.636  19.758  0.00  0.00    -0.223 NA
ATOM      8  C   UNL     1      19.960   6.463  19.032  0.00  0.00    +0.220 A 
ATOM      9  N   UNL     1      21.163   6.021  18.503  0.00  0.00    -0.283 N 
ATOM     36  H   UNL     1      21.192   5.147  17.979  0.00  0.00    +0.155 HD
ATOM     37  N   UNL     1      18.858   5.716  18.812  0.00  0.00    -0.214 NA
BRANCH   4   3
ATOM      1  C   UNL     1      14.016   4.649  18.815  0.00  0.00    +0.020 A 
ATOM      2  C   UNL     1      15.083   5.569  19.134  0.00  0.00    +0.013 A 
ATOM      3  C   UNL     1      16.478   5.175  18.976  0.00  0.00    +0.019 A 
ATOM     38  C   UNL     1      16.760   3.833  18.488  0.00  0.00    +0.120 A 
ATOM     39  N   UNL     1      15.711   2.969  18.189  0.00  0.00    -0.263 NA
ATOM     40  C   UNL     1      14.365   3.337  18.339  0.00  0.00    +0.111 A 
ENDBRANCH   4   3
ENDBRANCH  10   9
BRANCH  12  13
ATOM     13  N   UNL     1      23.757   9.372  21.110  0.00  0.00    -0.281 N 
ATOM     14  C   UNL     1      23.411  10.712  21.151  0.00  0.00    +0.248 C 
ATOM     30  O   UNL     1      23.119  11.381  20.170  0.00  0.00    -0.270 OA
ATOM     31  H   UNL     1      24.164   8.988  21.963  0.00  0.00    +0.155 HD
BRANCH  14  15
ATOM     15  C   UNL     1      23.401  11.416  22.469  0.00  0.00    +0.037 A 
ATOM     16  C   UNL     1      24.557  12.193  22.924  0.00  0.00    +0.013 A 
ATOM     17  C   UNL     1      24.527  12.848  24.208  0.00  0.00    +0.005 A 
ATOM     18  C   UNL     1      23.336  12.730  25.045  0.00  0.00    -0.033 A 
ATOM     28  C   UNL     1      22.202  11.957  24.567  0.00  0.00    +0.005 A 
ATOM     29  C   UNL     1      22.227  11.313  23.310  0.00  0.00    +0.013 A 
BRANCH  18  19
ATOM     19  C   UNL     1      23.225  13.378  26.438  0.00  0.00    +0.119 C 
BRANCH  19  20
ATOM     20  N   UNL     1      24.144  12.874  27.502  0.00  0.00    -0.302 NA
ATOM     21  C   UNL     1      25.506  13.574  27.463  0.00  0.00    +0.066 C 
ATOM     22  C   UNL     1      26.447  13.051  28.597  0.00  0.00    -0.064 C 
ATOM     23  N   UNL     1      26.612  11.536  28.460  0.00  0.00    +0.379 N 
ATOM     24  C   UNL     1      27.543  11.049  29.489  0.00  0.00    -0.096 C 
ATOM     25  H   UNL     1      27.073  11.335  27.465  0.00  0.00    -0.082 HD
ATOM     26  C   UNL     1      25.263  10.833  28.495  0.00  0.00    -0.064 C 
ATOM     27  C   UNL     1      24.325  11.381  27.383  0.00  0.00    +0.066 C 
ENDBRANCH  19  20
ENDBRANCH  18  19
ENDBRANCH  14  15
ENDBRANCH  12  13
TORSDOF 6
ENDMDL
