MODEL 1
REMARK VINA RESULT:      -8.0      0.000      0.000
REMARK  Name = C:\Users\Docking\Desktop\test protocol\1iep_ligandH.pdb
REMARK  8 active torsions:
REMARK  status: ('A' for Active; 'I' for Inactive)
REMARK    1  A    between atoms: _5  and  _11
REMARK    2  A    between atoms: _19  and  _21
REMARK    3  A    between atoms: _22  and  _66
REMARK    4  A    between atoms: _27  and  _30
REMARK    5  A    between atoms: _32  and  _33
REMARK    6  A    between atoms: _38  and  _43
REMARK    7  A    between atoms: _43  and  _46
REMARK    8  A    between atoms: _53  and  _55
REMARK                            x       y       z     vdW  Elec       q    Type
REMARK                         _______ _______ _______ _____ _____    ______ ____
ROOT
ATOM     10  C   UNL     1      41.211 -46.034  69.102  0.00  0.00    +0.038 A 
ATOM     11  C   UNL     1      40.091 -45.778  69.933  0.00  0.00    +0.047 A 
ATOM     12  C   UNL     1      40.024 -46.301  71.288  0.00  0.00    +0.035 A 
ATOM     32  C   UNL     1      41.118 -47.080  71.767  0.00  0.00    +0.024 A 
ATOM     33  C   UNL     1      42.264 -47.351  70.935  0.00  0.00    +0.007 A 
ATOM     34  C   UNL     1      42.334 -46.840  69.596  0.00  0.00    -0.029 A 
ATOM     35  C   UNL     1      43.585 -47.168  68.747  0.00  0.00    +0.045 C 
ENDROOT
BRANCH  10   9
ATOM      4  C   UNL     1      40.444 -46.395  64.377  0.00  0.00    +0.077 A 
ATOM      5  C   UNL     1      40.010 -47.757  64.492  0.00  0.00    +0.048 A 
ATOM      6  C   UNL     1      40.005 -48.330  65.783  0.00  0.00    +0.116 A 
ATOM      7  N   UNL     1      40.407 -47.587  66.872  0.00  0.00    -0.223 NA
ATOM      8  C   UNL     1      40.822 -46.276  66.726  0.00  0.00    +0.220 A 
ATOM      9  N   UNL     1      41.223 -45.507  67.808  0.00  0.00    -0.283 N 
ATOM     36  H   UNL     1      41.529 -44.546  67.658  0.00  0.00    +0.155 HD
ATOM     37  N   UNL     1      40.837 -45.706  65.503  0.00  0.00    -0.214 NA
BRANCH   4   3
ATOM      1  C   UNL     1      39.426 -44.609  61.049  0.00  0.00    +0.020 A 
ATOM      2  C   UNL     1      39.316 -45.333  62.295  0.00  0.00    +0.013 A 
ATOM      3  C   UNL     1      40.502 -45.649  63.081  0.00  0.00    +0.019 A 
ATOM     38  C   UNL     1      41.795 -45.214  62.574  0.00  0.00    +0.120 A 
ATOM     39  N   UNL     1      41.871 -44.521  61.370  0.00  0.00    -0.263 NA
ATOM     40  C   UNL     1      40.737 -44.212  60.605  0.00  0.00    +0.111 A 
ENDBRANCH   4   3
ENDBRANCH  10   9
BRANCH  12  13
ATOM     13  N   UNL     1      38.909 -46.080  72.176  0.00  0.00    -0.281 N 
ATOM     14  C   UNL     1      38.778 -45.106  73.152  0.00  0.00    +0.248 C 
ATOM     30  O   UNL     1      39.693 -44.405  73.557  0.00  0.00    -0.270 OA
ATOM     31  H   UNL     1      38.122 -46.720  72.072  0.00  0.00    +0.155 HD
BRANCH  14  15
ATOM     15  C   UNL     1      37.438 -44.889  73.779  0.00  0.00    +0.037 A 
ATOM     16  C   UNL     1      36.202 -45.199  73.057  0.00  0.00    +0.013 A 
ATOM     17  C   UNL     1      34.923 -44.964  73.679  0.00  0.00    +0.005 A 
ATOM     18  C   UNL     1      34.875 -44.416  75.032  0.00  0.00    -0.033 A 
ATOM     28  C   UNL     1      36.117 -44.122  75.727  0.00  0.00    +0.005 A 
ATOM     29  C   UNL     1      37.372 -44.350  75.121  0.00  0.00    +0.013 A 
BRANCH  18  19
ATOM     19  C   UNL     1      33.554 -44.114  75.765  0.00  0.00    +0.119 C 
BRANCH  19  20
ATOM     20  N   UNL     1      33.261 -44.902  77.000  0.00  0.00    -0.302 NA
ATOM     21  C   UNL     1      33.655 -46.374  76.848  0.00  0.00    +0.066 C 
ATOM     22  C   UNL     1      33.362 -47.179  78.156  0.00  0.00    -0.064 C 
ATOM     23  N   UNL     1      31.880 -47.048  78.511  0.00  0.00    +0.379 N 
ATOM     24  C   UNL     1      31.590 -47.851  79.708  0.00  0.00    -0.096 C 
ATOM     25  H   UNL     1      31.291 -47.475  77.666  0.00  0.00    -0.082 HD
ATOM     26  C   UNL     1      31.480 -45.587  78.661  0.00  0.00    -0.064 C 
ATOM     27  C   UNL     1      31.802 -44.790  77.366  0.00  0.00    +0.066 C 
ENDBRANCH  19  20
ENDBRANCH  18  19
ENDBRANCH  14  15
ENDBRANCH  12  13
TORSDOF 6
ENDMDL
MODEL 2
REMARK VINA RESULT:      -7.8      3.057     11.764
REMARK  Name = C:\Users\Docking\Desktop\test protocol\1iep_ligandH.pdb
REMARK  8 active torsions:
REMARK  status: ('A' for Active; 'I' for Inactive)
REMARK    1  A    between atoms: _5  and  _11
REMARK    2  A    between atoms: _19  and  _21
REMARK    3  A    between atoms: _22  and  _66
REMARK    4  A    between atoms: _27  and  _30
REMARK    5  A    between atoms: _32  and  _33
REMARK    6  A    between atoms: _38  and  _43
REMARK    7  A    between atoms: _43  and  _46
REMARK    8  A    between atoms: _53  and  _55
REMARK                            x       y       z     vdW  Elec       q    Type
REMARK                         _______ _______ _______ _____ _____    ______ ____
ROOT
ATOM     10  C   UNL     1      39.378 -45.505  72.347  0.00  0.00    +0.038 A 
ATOM     11  C   UNL     1      39.436 -45.843  70.971  0.00  0.00    +0.047 A 
ATOM     12  C   UNL     1      40.678 -46.288  70.357  0.00  0.00    +0.035 A 
ATOM     32  C   UNL     1      41.841 -46.380  71.176  0.00  0.00    +0.024 A 
ATOM     33  C   UNL     1      41.800 -46.040  72.577  0.00  0.00    +0.007 A 
ATOM     34  C   UNL     1      40.579 -45.598  73.187  0.00  0.00    -0.029 A 
ATOM     35  C   UNL     1      40.594 -45.240  74.691  0.00  0.00    +0.045 C 
ENDROOT
BRANCH  10   9
ATOM      4  C   UNL     1      35.871 -42.268  72.859  0.00  0.00    +0.077 A 
ATOM      5  C   UNL     1      36.535 -41.326  72.005  0.00  0.00    +0.048 A 
ATOM      6  C   UNL     1      37.781 -41.711  71.460  0.00  0.00    +0.116 A 
ATOM      7  N   UNL     1      38.313 -42.948  71.753  0.00  0.00    -0.223 NA
ATOM      8  C   UNL     1      37.647 -43.832  72.582  0.00  0.00    +0.220 A 
ATOM      9  N   UNL     1      38.160 -45.084  72.885  0.00  0.00    -0.283 N 
ATOM     36  H   UNL     1      37.641 -45.704  73.506  0.00  0.00    +0.155 HD
ATOM     37  N   UNL     1      36.457 -43.488  73.116  0.00  0.00    -0.214 NA
BRANCH   4   3
ATOM      1  C   UNL     1      32.597 -40.520  74.094  0.00  0.00    +0.020 A 
ATOM      2  C   UNL     1      33.876 -40.717  73.451  0.00  0.00    +0.013 A 
ATOM      3  C   UNL     1      34.547 -42.010  73.508  0.00  0.00    +0.019 A 
ATOM     38  C   UNL     1      33.892 -43.091  74.229  0.00  0.00    +0.120 A 
ATOM     39  N   UNL     1      32.661 -42.871  74.840  0.00  0.00    -0.263 NA
ATOM     40  C   UNL     1      32.007 -41.631  74.793  0.00  0.00    +0.111 A 
ENDBRANCH   4   3
ENDBRANCH  10   9
BRANCH  12  13
ATOM     13  N   UNL     1      40.799 -46.636  68.964  0.00  0.00    -0.281 N 
ATOM     14  C   UNL     1      40.271 -47.739  68.312  0.00  0.00    +0.248 C 
ATOM     30  O   UNL     1      39.790 -48.710  68.877  0.00  0.00    -0.270 OA
ATOM     31  H   UNL     1      41.341 -45.992  68.387  0.00  0.00    +0.155 HD
BRANCH  14  15
ATOM     15  C   UNL     1      40.294 -47.775  66.818  0.00  0.00    +0.037 A 
ATOM     16  C   UNL     1      39.761 -48.921  66.077  0.00  0.00    +0.013 A 
ATOM     17  C   UNL     1      39.811 -48.937  64.636  0.00  0.00    +0.005 A 
ATOM     18  C   UNL     1      40.395 -47.801  63.927  0.00  0.00    -0.033 A 
ATOM     28  C   UNL     1      40.911 -46.675  64.687  0.00  0.00    +0.005 A 
ATOM     29  C   UNL     1      40.865 -46.656  66.099  0.00  0.00    +0.013 A 
BRANCH  18  19
ATOM     19  C   UNL     1      40.508 -47.742  62.392  0.00  0.00    +0.119 C 
BRANCH  19  20
ATOM     20  N   UNL     1      39.346 -47.180  61.642  0.00  0.00    -0.302 NA
ATOM     21  C   UNL     1      39.425 -45.656  61.517  0.00  0.00    +0.066 C 
ATOM     22  C   UNL     1      38.214 -45.087  60.710  0.00  0.00    -0.064 C 
ATOM     23  N   UNL     1      36.909 -45.508  61.389  0.00  0.00    +0.379 N 
ATOM     24  C   UNL     1      35.769 -44.926  60.665  0.00  0.00    -0.096 C 
ATOM     25  H   UNL     1      36.911 -45.080  62.418  0.00  0.00    -0.082 HD
ATOM     26  C   UNL     1      36.823 -47.022  61.519  0.00  0.00    -0.064 C 
ATOM     27  C   UNL     1      38.047 -47.580  62.298  0.00  0.00    +0.066 C 
ENDBRANCH  19  20
ENDBRANCH  18  19
ENDBRANCH  14  15
ENDBRANCH  12  13
TORSDOF 6
ENDMDL
MODEL 3
REMARK VINA RESULT:      -7.8      1.527      2.037
REMARK  Name = C:\Users\Docking\Desktop\test protocol\1iep_ligandH.pdb
REMARK  8 active torsions:
REMARK  status: ('A' for Active; 'I' for Inactive)
REMARK    1  A    between atoms: _5  and  _11
REMARK    2  A    between atoms: _19  and  _21
REMARK    3  A    between atoms: _22  and  _66
REMARK    4  A    between atoms: _27  and  _30
REMARK    5  A    between atoms: _32  and  _33
REMARK    6  A    between atoms: _38  and  _43
REMARK    7  A    between atoms: _43  and  _46
REMARK    8  A    between atoms: _53  and  _55
REMARK                            x       y       z     vdW  Elec       q    Type
REMARK                         _______ _______ _______ _____ _____    ______ ____
ROOT
ATOM     10  C   UNL     1      40.657 -47.431  67.448  0.00  0.00    +0.038 A 
ATOM     11  C   UNL     1      39.802 -46.960  68.477  0.00  0.00    +0.047 A 
ATOM     12  C   UNL     1      40.053 -47.286  69.872  0.00  0.00    +0.035 A 
ATOM     32  C   UNL     1      41.187 -48.092  70.184  0.00  0.00    +0.024 A 
ATOM     33  C   UNL     1      42.066 -48.580  69.150  0.00  0.00    +0.007 A 
ATOM     34  C   UNL     1      41.821 -48.263  67.772  0.00  0.00    -0.029 A 
ATOM     35  C   UNL     1      42.793 -48.819  66.705  0.00  0.00    +0.045 C 
ENDROOT
BRANCH  10   9
ATOM      4  C   UNL     1      40.783 -44.382  63.743  0.00  0.00    +0.077 A 
ATOM      5  C   UNL     1      41.457 -43.379  64.515  0.00  0.00    +0.048 A 
ATOM      6  C   UNL     1      41.747 -43.684  65.864  0.00  0.00    +0.116 A 
ATOM      7  N   UNL     1      41.385 -44.905  66.390  0.00  0.00    -0.223 NA
ATOM      8  C   UNL     1      40.734 -45.850  65.619  0.00  0.00    +0.220 A 
ATOM      9  N   UNL     1      40.368 -47.087  66.125  0.00  0.00    -0.283 N 
ATOM     36  H   UNL     1      39.883 -47.754  65.526  0.00  0.00    +0.155 HD
ATOM     37  N   UNL     1      40.445 -45.582  64.328  0.00  0.00    -0.214 NA
BRANCH   4   3
ATOM      1  C   UNL     1      38.808 -44.426  60.366  0.00  0.00    +0.020 A 
ATOM      2  C   UNL     1      39.118 -44.614  61.765  0.00  0.00    +0.013 A 
ATOM      3  C   UNL     1      40.411 -44.210  62.303  0.00  0.00    +0.019 A 
ATOM     38  C   UNL     1      41.376 -43.613  61.392  0.00  0.00    +0.120 A 
ATOM     39  N   UNL     1      41.050 -43.445  60.049  0.00  0.00    -0.263 NA
ATOM     40  C   UNL     1      39.810 -43.832  59.520  0.00  0.00    +0.111 A 
ENDBRANCH   4   3
ENDBRANCH  10   9
BRANCH  12  13
ATOM     13  N   UNL     1      39.215 -46.844  70.959  0.00  0.00    -0.281 N 
ATOM     14  C   UNL     1      39.363 -45.710  71.741  0.00  0.00    +0.248 C 
ATOM     30  O   UNL     1      40.365 -45.011  71.763  0.00  0.00    -0.270 OA
ATOM     31  H   UNL     1      38.417 -47.439  71.179  0.00  0.00    +0.155 HD
BRANCH  14  15
ATOM     15  C   UNL     1      38.240 -45.301  72.639  0.00  0.00    +0.037 A 
ATOM     16  C   UNL     1      36.864 -45.215  72.144  0.00  0.00    +0.013 A 
ATOM     17  C   UNL     1      35.802 -44.802  73.027  0.00  0.00    +0.005 A 
ATOM     18  C   UNL     1      36.114 -44.472  74.416  0.00  0.00    -0.033 A 
ATOM     28  C   UNL     1      37.487 -44.571  74.882  0.00  0.00    +0.005 A 
ATOM     29  C   UNL     1      38.530 -44.975  74.019  0.00  0.00    +0.013 A 
BRANCH  18  19
ATOM     19  C   UNL     1      35.047 -44.002  75.423  0.00  0.00    +0.119 C 
BRANCH  19  20
ATOM     20  N   UNL     1      34.734 -44.914  76.563  0.00  0.00    -0.302 NA
ATOM     21  C   UNL     1      34.221 -46.275  76.086  0.00  0.00    +0.066 C 
ATOM     22  C   UNL     1      33.920 -47.225  77.291  0.00  0.00    -0.064 C 
ATOM     23  N   UNL     1      32.903 -46.559  78.219  0.00  0.00    +0.379 N 
ATOM     24  C   UNL     1      32.574 -47.473  79.323  0.00  0.00    -0.096 C 
ATOM     25  H   UNL     1      31.971 -46.387  77.632  0.00  0.00    -0.082 HD
ATOM     26  C   UNL     1      33.404 -45.203  78.697  0.00  0.00    -0.064 C 
ATOM     27  C   UNL     1      33.728 -44.278  77.491  0.00  0.00    +0.066 C 
ENDBRANCH  19  20
ENDBRANCH  18  19
ENDBRANCH  14  15
ENDBRANCH  12  13
TORSDOF 6
ENDMDL
MODEL 4
REMARK VINA RESULT:      -7.7     20.204     22.635
REMARK  Name = C:\Users\Docking\Desktop\test protocol\1iep_ligandH.pdb
REMARK  8 active torsions:
REMARK  status: ('A' for Active; 'I' for Inactive)
REMARK    1  A    between atoms: _5  and  _11
REMARK    2  A    between atoms: _19  and  _21
REMARK    3  A    between atoms: _22  and  _66
REMARK    4  A    between atoms: _27  and  _30
REMARK    5  A    between atoms: _32  and  _33
REMARK    6  A    between atoms: _38  and  _43
REMARK    7  A    between atoms: _43  and  _46
REMARK    8  A    between atoms: _53  and  _55
REMARK                            x       y       z     vdW  Elec       q    Type
REMARK                         _______ _______ _______ _____ _____    ______ ____
ROOT
ATOM     10  C   UNL     1      23.258 -63.119  68.253  0.00  0.00    +0.038 A 
ATOM     11  C   UNL     1      22.534 -61.905  68.374  0.00  0.00    +0.047 A 
ATOM     12  C   UNL     1      21.495 -61.745  69.380  0.00  0.00    +0.035 A 
ATOM     32  C   UNL     1      21.221 -62.842  70.248  0.00  0.00    +0.024 A 
ATOM     33  C   UNL     1      21.946 -64.084  70.138  0.00  0.00    +0.007 A 
ATOM     34  C   UNL     1      22.970 -64.248  69.146  0.00  0.00    -0.029 A 
ATOM     35  C   UNL     1      23.711 -65.603  69.069  0.00  0.00    +0.045 C 
ENDROOT
BRANCH  10   9
ATOM      4  C   UNL     1      24.656 -63.803  63.713  0.00  0.00    +0.077 A 
ATOM      5  C   UNL     1      23.308 -64.010  63.267  0.00  0.00    +0.048 A 
ATOM      6  C   UNL     1      22.285 -63.938  64.238  0.00  0.00    +0.116 A 
ATOM      7  N   UNL     1      22.598 -63.679  65.555  0.00  0.00    -0.223 NA
ATOM      8  C   UNL     1      23.908 -63.487  65.952  0.00  0.00    +0.220 A 
ATOM      9  N   UNL     1      24.245 -63.217  67.270  0.00  0.00    -0.283 N 
ATOM     36  H   UNL     1      25.224 -63.088  67.524  0.00  0.00    +0.155 HD
ATOM     37  N   UNL     1      24.904 -63.551  65.044  0.00  0.00    -0.214 NA
BRANCH   4   3
ATOM      1  C   UNL     1      28.224 -63.250  62.208  0.00  0.00    +0.020 A 
ATOM      2  C   UNL     1      27.104 -63.179  63.118  0.00  0.00    +0.013 A 
ATOM      3  C   UNL     1      25.846 -63.844  62.805  0.00  0.00    +0.019 A 
ATOM     38  C   UNL     1      25.752 -64.579  61.553  0.00  0.00    +0.120 A 
ATOM     39  N   UNL     1      26.846 -64.628  60.694  0.00  0.00    -0.263 NA
ATOM     40  C   UNL     1      28.062 -63.991  60.984  0.00  0.00    +0.111 A 
ENDBRANCH   4   3
ENDBRANCH  10   9
BRANCH  12  13
ATOM     13  N   UNL     1      20.722 -60.540  69.545  0.00  0.00    -0.281 N 
ATOM     14  C   UNL     1      19.400 -60.423  69.943  0.00  0.00    +0.248 C 
ATOM     30  O   UNL     1      18.615 -61.357  70.013  0.00  0.00    -0.270 OA
ATOM     31  H   UNL     1      21.208 -59.666  69.344  0.00  0.00    +0.155 HD
BRANCH  14  15
ATOM     15  C   UNL     1      18.870 -59.073  70.302  0.00  0.00    +0.037 A 
ATOM     16  C   UNL     1      17.729 -58.491  69.592  0.00  0.00    +0.013 A 
ATOM     17  C   UNL     1      17.249 -57.179  69.947  0.00  0.00    +0.005 A 
ATOM     18  C   UNL     1      17.910 -56.440  71.020  0.00  0.00    -0.033 A 
ATOM     28  C   UNL     1      19.037 -57.044  71.712  0.00  0.00    +0.005 A 
ATOM     29  C   UNL     1      19.511 -58.329  71.366  0.00  0.00    +0.013 A 
BRANCH  18  19
ATOM     19  C   UNL     1      17.478 -55.026  71.452  0.00  0.00    +0.119 C 
BRANCH  19  20
ATOM     20  N   UNL     1      18.190 -54.419  72.616  0.00  0.00    -0.302 NA
ATOM     21  C   UNL     1      17.218 -53.806  73.628  0.00  0.00    +0.066 C 
ATOM     22  C   UNL     1      17.978 -53.196  74.850  0.00  0.00    -0.064 C 
ATOM     23  N   UNL     1      18.977 -52.148  74.354  0.00  0.00    +0.379 N 
ATOM     24  C   UNL     1      19.652 -51.531  75.505  0.00  0.00    -0.096 C 
ATOM     25  H   UNL     1      18.399 -51.350  73.833  0.00  0.00    -0.082 HD
ATOM     26  C   UNL     1      19.946 -52.749  73.346  0.00  0.00    -0.064 C 
ATOM     27  C   UNL     1      19.178 -53.379  72.150  0.00  0.00    +0.066 C 
ENDBRANCH  19  20
ENDBRANCH  18  19
ENDBRANCH  14  15
ENDBRANCH  12  13
TORSDOF 6
ENDMDL
MODEL 5
REMARK VINA RESULT:      -7.7     22.588     24.606
REMARK  Name = C:\Users\Docking\Desktop\test protocol\1iep_ligandH.pdb
REMARK  8 active torsions:
REMARK  status: ('A' for Active; 'I' for Inactive)
REMARK    1  A    between atoms: _5  and  _11
REMARK    2  A    between atoms: _19  and  _21
REMARK    3  A    between atoms: _22  and  _66
REMARK    4  A    between atoms: _27  and  _30
REMARK    5  A    between atoms: _32  and  _33
REMARK    6  A    between atoms: _38  and  _43
REMARK    7  A    between atoms: _43  and  _46
REMARK    8  A    between atoms: _53  and  _55
REMARK                            x       y       z     vdW  Elec       q    Type
REMARK                         _______ _______ _______ _____ _____    ______ ____
ROOT
ATOM     10  C   UNL     1      26.531 -47.320  51.044  0.00  0.00    +0.038 A 
ATOM     11  C   UNL     1      27.472 -46.267  51.175  0.00  0.00    +0.047 A 
ATOM     12  C   UNL     1      27.055 -44.874  51.128  0.00  0.00    +0.035 A 
ATOM     32  C   UNL     1      25.669 -44.590  50.949  0.00  0.00    +0.024 A 
ATOM     33  C   UNL     1      24.699 -45.648  50.813  0.00  0.00    +0.007 A 
ATOM     34  C   UNL     1      25.106 -47.024  50.856  0.00  0.00    -0.029 A 
ATOM     35  C   UNL     1      24.024 -48.117  50.699  0.00  0.00    +0.045 C 
ENDROOT
BRANCH  10   9
ATOM      4  C   UNL     1      28.216 -51.302  48.960  0.00  0.00    +0.077 A 
ATOM      5  C   UNL     1      28.157 -50.714  47.653  0.00  0.00    +0.048 A 
ATOM      6  C   UNL     1      27.680 -49.387  47.559  0.00  0.00    +0.116 A 
ATOM      7  N   UNL     1      27.295 -48.708  48.695  0.00  0.00    -0.223 NA
ATOM      8  C   UNL     1      27.363 -49.306  49.940  0.00  0.00    +0.220 A 
ATOM      9  N   UNL     1      26.988 -48.639  51.097  0.00  0.00    -0.283 N 
ATOM     36  H   UNL     1      27.046 -49.117  51.995  0.00  0.00    +0.155 HD
ATOM     37  N   UNL     1      27.813 -50.572  50.056  0.00  0.00    -0.214 NA
BRANCH   4   3
ATOM      1  C   UNL     1      30.419 -54.345  50.049  0.00  0.00    +0.020 A 
ATOM      2  C   UNL     1      29.999 -52.982  49.816  0.00  0.00    +0.013 A 
ATOM      3  C   UNL     1      28.700 -52.694  49.222  0.00  0.00    +0.019 A 
ATOM     38  C   UNL     1      27.842 -53.816  48.873  0.00  0.00    +0.120 A 
ATOM     39  N   UNL     1      28.273 -55.118  49.108  0.00  0.00    -0.263 NA
ATOM     40  C   UNL     1      29.522 -55.408  49.677  0.00  0.00    +0.111 A 
ENDBRANCH   4   3
ENDBRANCH  10   9
BRANCH  12  13
ATOM     13  N   UNL     1      27.966 -43.763  51.248  0.00  0.00    -0.281 N 
ATOM     14  C   UNL     1      28.456 -42.952  50.237  0.00  0.00    +0.248 C 
ATOM     30  O   UNL     1      28.352 -43.195  49.044  0.00  0.00    -0.270 OA
ATOM     31  H   UNL     1      28.288 -43.548  52.191  0.00  0.00    +0.155 HD
BRANCH  14  15
ATOM     15  C   UNL     1      29.180 -41.697  50.606  0.00  0.00    +0.037 A 
ATOM     16  C   UNL     1      30.624 -41.563  50.396  0.00  0.00    +0.013 A 
ATOM     17  C   UNL     1      31.300 -40.348  50.776  0.00  0.00    +0.005 A 
ATOM     18  C   UNL     1      30.531 -39.256  51.370  0.00  0.00    -0.033 A 
ATOM     28  C   UNL     1      29.099 -39.415  51.562  0.00  0.00    +0.005 A 
ATOM     29  C   UNL     1      28.433 -40.604  51.192  0.00  0.00    +0.013 A 
BRANCH  18  19
ATOM     19  C   UNL     1      31.174 -37.933  51.825  0.00  0.00    +0.119 C 
BRANCH  19  20
ATOM     20  N   UNL     1      31.707 -37.030  50.761  0.00  0.00    -0.302 NA
ATOM     21  C   UNL     1      33.235 -37.081  50.678  0.00  0.00    +0.066 C 
ATOM     22  C   UNL     1      33.774 -36.148  49.545  0.00  0.00    -0.064 C 
ATOM     23  N   UNL     1      33.293 -34.718  49.794  0.00  0.00    +0.379 N 
ATOM     24  C   UNL     1      33.846 -33.827  48.763  0.00  0.00    -0.096 C 
ATOM     25  H   UNL     1      33.701 -34.390  50.778  0.00  0.00    -0.082 HD
ATOM     26  C   UNL     1      31.774 -34.658  49.881  0.00  0.00    -0.064 C 
ATOM     27  C   UNL     1      31.247 -35.611  50.990  0.00  0.00    +0.066 C 
ENDBRANCH  19  20
ENDBRANCH  18  19
ENDBRANCH  14  15
ENDBRANCH  12  13
TORSDOF 6
ENDMDL
