MODEL 1
REMARK VINA RESULT:      -7.8      0.000      0.000
REMARK  Name = C:\Users\Docking\Desktop\test protocol\1iep_ligandH.pdb
REMARK  8 active torsions:
REMARK  status: ('A' for Active; 'I' for Inactive)
REMARK    1  A    between atoms: _5  and  _11
REMARK    2  A    between atoms: _19  and  _21
REMARK    3  A    between atoms: _22  and  _66
REMARK    4  A    between atoms: _27  and  _30
REMARK    5  A    between atoms: _32  and  _33
REMARK    6  A    between atoms: _38  and  _43
REMARK    7  A    between atoms: _43  and  _46
REMARK    8  A    between atoms: _53  and  _55
REMARK                            x       y       z     vdW  Elec       q    Type
REMARK                         _______ _______ _______ _____ _____    ______ ____
ROOT
ATOM     10  C   UNL     1     -15.302  23.036  11.993  0.00  0.00    +0.038 A 
ATOM     11  C   UNL     1     -15.683  23.747  13.160  0.00  0.00    +0.047 A 
ATOM     12  C   UNL     1     -15.388  25.164  13.308  0.00  0.00    +0.035 A 
ATOM     32  C   UNL     1     -14.705  25.826  12.246  0.00  0.00    +0.024 A 
ATOM     33  C   UNL     1     -14.310  25.119  11.054  0.00  0.00    +0.007 A 
ATOM     34  C   UNL     1     -14.597  23.720  10.903  0.00  0.00    -0.029 A 
ATOM     35  C   UNL     1     -14.144  23.011   9.606  0.00  0.00    +0.045 C 
ENDROOT
BRANCH  10   9
ATOM      4  C   UNL     1     -14.727  18.467  13.346  0.00  0.00    +0.077 A 
ATOM      5  C   UNL     1     -13.705  18.814  14.291  0.00  0.00    +0.048 A 
ATOM      6  C   UNL     1     -13.352  20.178  14.394  0.00  0.00    +0.116 A 
ATOM      7  N   UNL     1     -13.980  21.117  13.605  0.00  0.00    -0.223 NA
ATOM      8  C   UNL     1     -14.961  20.749  12.702  0.00  0.00    +0.220 A 
ATOM      9  N   UNL     1     -15.611  21.677  11.904  0.00  0.00    -0.283 N 
ATOM     36  H   UNL     1     -16.324  21.364  11.245  0.00  0.00    +0.155 HD
ATOM     37  N   UNL     1     -15.315  19.452  12.584  0.00  0.00    -0.214 NA
BRANCH   4   3
ATOM      1  C   UNL     1     -16.801  15.385  12.121  0.00  0.00    +0.020 A 
ATOM      2  C   UNL     1     -16.374  16.753  12.303  0.00  0.00    +0.013 A 
ATOM      3  C   UNL     1     -15.212  17.068  13.124  0.00  0.00    +0.019 A 
ATOM     38  C   UNL     1     -14.497  15.966  13.751  0.00  0.00    +0.120 A 
ATOM     39  N   UNL     1     -14.932  14.659  13.559  0.00  0.00    -0.263 NA
ATOM     40  C   UNL     1     -16.051  14.344  12.772  0.00  0.00    +0.111 A 
ENDBRANCH   4   3
ENDBRANCH  10   9
BRANCH  12  13
ATOM     13  N   UNL     1     -15.742  25.936  14.473  0.00  0.00    -0.281 N 
ATOM     14  C   UNL     1     -16.885  26.690  14.679  0.00  0.00    +0.248 C 
ATOM     30  O   UNL     1     -17.683  26.990  13.803  0.00  0.00    -0.270 OA
ATOM     31  H   UNL     1     -15.068  25.925  15.239  0.00  0.00    +0.155 HD
BRANCH  14  15
ATOM     15  C   UNL     1     -17.177  27.198  16.054  0.00  0.00    +0.037 A 
ATOM     16  C   UNL     1     -18.037  28.365  16.267  0.00  0.00    +0.013 A 
ATOM     17  C   UNL     1     -18.289  28.844  17.603  0.00  0.00    +0.005 A 
ATOM     18  C   UNL     1     -17.680  28.155  18.737  0.00  0.00    -0.033 A 
ATOM     28  C   UNL     1     -16.835  26.996  18.498  0.00  0.00    +0.005 A 
ATOM     29  C   UNL     1     -16.585  26.524  17.190  0.00  0.00    +0.013 A 
BRANCH  18  19
ATOM     19  C   UNL     1     -17.876  28.609  20.196  0.00  0.00    +0.119 C 
BRANCH  19  20
ATOM     20  N   UNL     1     -17.183  27.820  21.257  0.00  0.00    -0.302 NA
ATOM     21  C   UNL     1     -18.125  27.451  22.407  0.00  0.00    +0.066 C 
ATOM     22  C   UNL     1     -17.389  26.607  23.497  0.00  0.00    -0.064 C 
ATOM     23  N   UNL     1     -16.182  27.391  24.017  0.00  0.00    +0.379 N 
ATOM     24  C   UNL     1     -15.522  26.624  25.083  0.00  0.00    -0.096 C 
ATOM     25  H   UNL     1     -16.562  28.338  24.466  0.00  0.00    -0.082 HD
ATOM     26  C   UNL     1     -15.242  27.764  22.880  0.00  0.00    -0.064 C 
ATOM     27  C   UNL     1     -15.990  28.578  21.787  0.00  0.00    +0.066 C 
ENDBRANCH  19  20
ENDBRANCH  18  19
ENDBRANCH  14  15
ENDBRANCH  12  13
TORSDOF 6
ENDMDL
MODEL 2
REMARK VINA RESULT:      -7.6     33.448     36.313
REMARK  Name = C:\Users\Docking\Desktop\test protocol\1iep_ligandH.pdb
REMARK  8 active torsions:
REMARK  status: ('A' for Active; 'I' for Inactive)
REMARK    1  A    between atoms: _5  and  _11
REMARK    2  A    between atoms: _19  and  _21
REMARK    3  A    between atoms: _22  and  _66
REMARK    4  A    between atoms: _27  and  _30
REMARK    5  A    between atoms: _32  and  _33
REMARK    6  A    between atoms: _38  and  _43
REMARK    7  A    between atoms: _43  and  _46
REMARK    8  A    between atoms: _53  and  _55
REMARK                            x       y       z     vdW  Elec       q    Type
REMARK                         _______ _______ _______ _____ _____    ______ ____
ROOT
ATOM     10  C   UNL     1      17.166  20.007  13.315  0.00  0.00    +0.038 A 
ATOM     11  C   UNL     1      18.155  20.971  12.995  0.00  0.00    +0.047 A 
ATOM     12  C   UNL     1      18.544  21.222  11.616  0.00  0.00    +0.035 A 
ATOM     32  C   UNL     1      17.903  20.474  10.587  0.00  0.00    +0.024 A 
ATOM     33  C   UNL     1      16.895  19.489  10.894  0.00  0.00    +0.007 A 
ATOM     34  C   UNL     1      16.509  19.235  12.252  0.00  0.00    -0.029 A 
ATOM     35  C   UNL     1      15.429  18.163  12.523  0.00  0.00    +0.045 C 
ENDROOT
BRANCH  10   9
ATOM      4  C   UNL     1      14.546  20.989  17.215  0.00  0.00    +0.077 A 
ATOM      5  C   UNL     1      13.800  22.005  16.531  0.00  0.00    +0.048 A 
ATOM      6  C   UNL     1      14.126  22.249  15.178  0.00  0.00    +0.116 A 
ATOM      7  N   UNL     1      15.126  21.525  14.565  0.00  0.00    -0.223 NA
ATOM      8  C   UNL     1      15.827  20.553  15.254  0.00  0.00    +0.220 A 
ATOM      9  N   UNL     1      16.831  19.807  14.656  0.00  0.00    -0.283 N 
ATOM     36  H   UNL     1      17.330  19.104  15.201  0.00  0.00    +0.155 HD
ATOM     37  N   UNL     1      15.536  20.302  16.548  0.00  0.00    -0.214 NA
BRANCH   4   3
ATOM      1  C   UNL     1      14.585  20.986  21.127  0.00  0.00    +0.020 A 
ATOM      2  C   UNL     1      14.836  21.392  19.763  0.00  0.00    +0.013 A 
ATOM      3  C   UNL     1      14.317  20.613  18.646  0.00  0.00    +0.019 A 
ATOM     38  C   UNL     1      13.542  19.418  18.946  0.00  0.00    +0.120 A 
ATOM     39  N   UNL     1      13.318  19.051  20.269  0.00  0.00    -0.263 NA
ATOM     40  C   UNL     1      13.813  19.792  21.352  0.00  0.00    +0.111 A 
ENDBRANCH   4   3
ENDBRANCH  10   9
BRANCH  12  13
ATOM     13  N   UNL     1      19.548  22.183  11.232  0.00  0.00    -0.281 N 
ATOM     14  C   UNL     1      20.856  21.940  10.844  0.00  0.00    +0.248 C 
ATOM     30  O   UNL     1      21.427  20.867  10.975  0.00  0.00    -0.270 OA
ATOM     31  H   UNL     1      19.260  23.161  11.248  0.00  0.00    +0.155 HD
BRANCH  14  15
ATOM     15  C   UNL     1      21.647  23.052  10.236  0.00  0.00    +0.037 A 
ATOM     16  C   UNL     1      23.112  23.014  10.206  0.00  0.00    +0.013 A 
ATOM     17  C   UNL     1      23.852  24.109   9.629  0.00  0.00    +0.005 A 
ATOM     18  C   UNL     1      23.127  25.250   9.076  0.00  0.00    -0.033 A 
ATOM     28  C   UNL     1      21.674  25.259   9.114  0.00  0.00    +0.005 A 
ATOM     29  C   UNL     1      20.945  24.189   9.680  0.00  0.00    +0.013 A 
BRANCH  18  19
ATOM     19  C   UNL     1      23.835  26.471   8.459  0.00  0.00    +0.119 C 
BRANCH  19  20
ATOM     20  N   UNL     1      24.015  27.670   9.332  0.00  0.00    -0.302 NA
ATOM     21  C   UNL     1      24.028  28.971   8.525  0.00  0.00    +0.066 C 
ATOM     22  C   UNL     1      24.194  30.216   9.455  0.00  0.00    -0.064 C 
ATOM     23  N   UNL     1      25.480  30.072  10.272  0.00  0.00    +0.379 N 
ATOM     24  C   UNL     1      25.669  31.268  11.105  0.00  0.00    -0.096 C 
ATOM     25  H   UNL     1      26.332  30.021   9.554  0.00  0.00    -0.082 HD
ATOM     26  C   UNL     1      25.476  28.779  11.075  0.00  0.00    -0.064 C 
ATOM     27  C   UNL     1      25.281  27.550  10.144  0.00  0.00    +0.066 C 
ENDBRANCH  19  20
ENDBRANCH  18  19
ENDBRANCH  14  15
ENDBRANCH  12  13
TORSDOF 6
ENDMDL
MODEL 3
REMARK VINA RESULT:      -7.4     26.356     28.995
REMARK  Name = C:\Users\Docking\Desktop\test protocol\1iep_ligandH.pdb
REMARK  8 active torsions:
REMARK  status: ('A' for Active; 'I' for Inactive)
REMARK    1  A    between atoms: _5  and  _11
REMARK    2  A    between atoms: _19  and  _21
REMARK    3  A    between atoms: _22  and  _66
REMARK    4  A    between atoms: _27  and  _30
REMARK    5  A    between atoms: _32  and  _33
REMARK    6  A    between atoms: _38  and  _43
REMARK    7  A    between atoms: _43  and  _46
REMARK    8  A    between atoms: _53  and  _55
REMARK                            x       y       z     vdW  Elec       q    Type
REMARK                         _______ _______ _______ _____ _____    ______ ____
ROOT
ATOM     10  C   UNL     1      13.442  23.415  11.206  0.00  0.00    +0.038 A 
ATOM     11  C   UNL     1      12.625  24.567  11.073  0.00  0.00    +0.047 A 
ATOM     12  C   UNL     1      11.977  24.887   9.810  0.00  0.00    +0.035 A 
ATOM     32  C   UNL     1      12.180  24.010   8.705  0.00  0.00    +0.024 A 
ATOM     33  C   UNL     1      13.008  22.836   8.823  0.00  0.00    +0.007 A 
ATOM     34  C   UNL     1      13.652  22.516  10.065  0.00  0.00    -0.029 A 
ATOM     35  C   UNL     1      14.533  21.247  10.132  0.00  0.00    +0.045 C 
ENDROOT
BRANCH  10   9
ATOM      4  C   UNL     1      13.601  21.163  15.442  0.00  0.00    +0.077 A 
ATOM      5  C   UNL     1      12.374  20.465  15.184  0.00  0.00    +0.048 A 
ATOM      6  C   UNL     1      11.730  20.719  13.952  0.00  0.00    +0.116 A 
ATOM      7  N   UNL     1      12.281  21.607  13.053  0.00  0.00    -0.223 NA
ATOM      8  C   UNL     1      13.464  22.264  13.334  0.00  0.00    +0.220 A 
ATOM      9  N   UNL     1      14.040  23.155  12.441  0.00  0.00    -0.283 N 
ATOM     36  H   UNL     1      14.910  23.626  12.689  0.00  0.00    +0.155 HD
ATOM     37  N   UNL     1      14.098  22.040  14.504  0.00  0.00    -0.214 NA
BRANCH   4   3
ATOM      1  C   UNL     1      16.408  20.162  17.976  0.00  0.00    +0.020 A 
ATOM      2  C   UNL     1      15.675  20.293  16.738  0.00  0.00    +0.013 A 
ATOM      3  C   UNL     1      14.401  20.999  16.697  0.00  0.00    +0.019 A 
ATOM     38  C   UNL     1      13.892  21.567  17.936  0.00  0.00    +0.120 A 
ATOM     39  N   UNL     1      14.620  21.425  19.114  0.00  0.00    -0.263 NA
ATOM     40  C   UNL     1      15.846  20.746  19.166  0.00  0.00    +0.111 A 
ENDBRANCH   4   3
ENDBRANCH  10   9
BRANCH  12  13
ATOM     13  N   UNL     1      11.143  26.047   9.613  0.00  0.00    -0.281 N 
ATOM     14  C   UNL     1      11.366  27.122   8.769  0.00  0.00    +0.248 C 
ATOM     30  O   UNL     1      12.429  27.354   8.211  0.00  0.00    -0.270 OA
ATOM     31  H   UNL     1      10.284  26.078  10.161  0.00  0.00    +0.155 HD
BRANCH  14  15
ATOM     15  C   UNL     1      10.253  28.089   8.521  0.00  0.00    +0.037 A 
ATOM     16  C   UNL     1       9.081  28.139   9.398  0.00  0.00    +0.013 A 
ATOM     17  C   UNL     1       8.014  29.069   9.126  0.00  0.00    +0.005 A 
ATOM     18  C   UNL     1       8.115  29.958   7.971  0.00  0.00    -0.033 A 
ATOM     28  C   UNL     1       9.292  29.890   7.120  0.00  0.00    +0.005 A 
ATOM     29  C   UNL     1      10.340  28.979   7.383  0.00  0.00    +0.013 A 
BRANCH  18  19
ATOM     19  C   UNL     1       7.015  30.967   7.592  0.00  0.00    +0.119 C 
BRANCH  19  20
ATOM     20  N   UNL     1       7.443  32.366   7.295  0.00  0.00    -0.302 NA
ATOM     21  C   UNL     1       8.169  33.009   8.480  0.00  0.00    +0.066 C 
ATOM     22  C   UNL     1       8.629  34.465   8.143  0.00  0.00    -0.064 C 
ATOM     23  N   UNL     1       7.414  35.300   7.734  0.00  0.00    +0.379 N 
ATOM     24  C   UNL     1       7.836  36.684   7.473  0.00  0.00    -0.096 C 
ATOM     25  H   UNL     1       6.710  35.317   8.598  0.00  0.00    -0.082 HD
ATOM     26  C   UNL     1       6.685  34.665   6.558  0.00  0.00    -0.064 C 
ATOM     27  C   UNL     1       6.258  33.209   6.892  0.00  0.00    +0.066 C 
ENDBRANCH  19  20
ENDBRANCH  18  19
ENDBRANCH  14  15
ENDBRANCH  12  13
TORSDOF 6
ENDMDL
MODEL 4
REMARK VINA RESULT:      -7.3      8.023     11.329
REMARK  Name = C:\Users\Docking\Desktop\test protocol\1iep_ligandH.pdb
REMARK  8 active torsions:
REMARK  status: ('A' for Active; 'I' for Inactive)
REMARK    1  A    between atoms: _5  and  _11
REMARK    2  A    between atoms: _19  and  _21
REMARK    3  A    between atoms: _22  and  _66
REMARK    4  A    between atoms: _27  and  _30
REMARK    5  A    between atoms: _32  and  _33
REMARK    6  A    between atoms: _38  and  _43
REMARK    7  A    between atoms: _43  and  _46
REMARK    8  A    between atoms: _53  and  _55
REMARK                            x       y       z     vdW  Elec       q    Type
REMARK                         _______ _______ _______ _____ _____    ______ ____
ROOT
ATOM     10  C   UNL     1     -12.740  19.146  26.429  0.00  0.00    +0.038 A 
ATOM     11  C   UNL     1     -13.197  20.174  25.565  0.00  0.00    +0.047 A 
ATOM     12  C   UNL     1     -13.558  21.485  26.081  0.00  0.00    +0.035 A 
ATOM     32  C   UNL     1     -13.439  21.717  27.482  0.00  0.00    +0.024 A 
ATOM     33  C   UNL     1     -12.977  20.683  28.375  0.00  0.00    +0.007 A 
ATOM     34  C   UNL     1     -12.622  19.387  27.873  0.00  0.00    -0.029 A 
ATOM     35  C   UNL     1     -12.139  18.315  28.877  0.00  0.00    +0.045 C 
ENDROOT
BRANCH  10   9
ATOM      4  C   UNL     1     -13.914  14.797  24.775  0.00  0.00    +0.077 A 
ATOM      5  C   UNL     1     -15.306  15.002  25.052  0.00  0.00    +0.048 A 
ATOM      6  C   UNL     1     -15.678  16.238  25.627  0.00  0.00    +0.116 A 
ATOM      7  N   UNL     1     -14.720  17.190  25.900  0.00  0.00    -0.223 NA
ATOM      8  C   UNL     1     -13.385  16.959  25.622  0.00  0.00    +0.220 A 
ATOM      9  N   UNL     1     -12.406  17.906  25.881  0.00  0.00    -0.283 N 
ATOM     36  H   UNL     1     -11.432  17.694  25.668  0.00  0.00    +0.155 HD
ATOM     37  N   UNL     1     -13.005  15.787  25.074  0.00  0.00    -0.214 NA
BRANCH   4   3
ATOM      1  C   UNL     1     -13.436  11.065  23.705  0.00  0.00    +0.020 A 
ATOM      2  C   UNL     1     -14.006  12.244  24.315  0.00  0.00    +0.013 A 
ATOM      3  C   UNL     1     -13.365  13.544  24.165  0.00  0.00    +0.019 A 
ATOM     38  C   UNL     1     -12.139  13.618  23.386  0.00  0.00    +0.120 A 
ATOM     39  N   UNL     1     -11.612  12.465  22.812  0.00  0.00    -0.263 NA
ATOM     40  C   UNL     1     -12.219  11.208  22.950  0.00  0.00    +0.111 A 
ENDBRANCH   4   3
ENDBRANCH  10   9
BRANCH  12  13
ATOM     13  N   UNL     1     -14.036  22.565  25.253  0.00  0.00    -0.281 N 
ATOM     14  C   UNL     1     -15.338  23.013  25.105  0.00  0.00    +0.248 C 
ATOM     30  O   UNL     1     -16.325  22.412  25.503  0.00  0.00    -0.270 OA
ATOM     31  H   UNL     1     -13.328  23.058  24.709  0.00  0.00    +0.155 HD
BRANCH  14  15
ATOM     15  C   UNL     1     -15.581  24.309  24.402  0.00  0.00    +0.037 A 
ATOM     16  C   UNL     1     -15.916  24.349  22.976  0.00  0.00    +0.013 A 
ATOM     17  C   UNL     1     -16.128  25.614  22.318  0.00  0.00    +0.005 A 
ATOM     18  C   UNL     1     -16.007  26.850  23.087  0.00  0.00    -0.033 A 
ATOM     28  C   UNL     1     -15.679  26.781  24.501  0.00  0.00    +0.005 A 
ATOM     29  C   UNL     1     -15.469  25.544  25.149  0.00  0.00    +0.013 A 
BRANCH  18  19
ATOM     19  C   UNL     1     -16.196  28.245  22.462  0.00  0.00    +0.119 C 
BRANCH  19  20
ATOM     20  N   UNL     1     -17.153  28.360  21.322  0.00  0.00    -0.302 NA
ATOM     21  C   UNL     1     -16.455  28.199  19.968  0.00  0.00    +0.066 C 
ATOM     22  C   UNL     1     -17.475  28.299  18.787  0.00  0.00    -0.064 C 
ATOM     23  N   UNL     1     -18.208  29.639  18.862  0.00  0.00    +0.379 N 
ATOM     24  C   UNL     1     -19.126  29.762  17.720  0.00  0.00    -0.096 C 
ATOM     25  H   UNL     1     -17.445  30.447  18.771  0.00  0.00    -0.082 HD
ATOM     26  C   UNL     1     -18.902  29.809  20.206  0.00  0.00    -0.064 C 
ATOM     27  C   UNL     1     -17.885  29.678  21.374  0.00  0.00    +0.066 C 
ENDBRANCH  19  20
ENDBRANCH  18  19
ENDBRANCH  14  15
ENDBRANCH  12  13
TORSDOF 6
ENDMDL
MODEL 5
REMARK VINA RESULT:      -7.3     33.808     36.694
REMARK  Name = C:\Users\Docking\Desktop\test protocol\1iep_ligandH.pdb
REMARK  8 active torsions:
REMARK  status: ('A' for Active; 'I' for Inactive)
REMARK    1  A    between atoms: _5  and  _11
REMARK    2  A    between atoms: _19  and  _21
REMARK    3  A    between atoms: _22  and  _66
REMARK    4  A    between atoms: _27  and  _30
REMARK    5  A    between atoms: _32  and  _33
REMARK    6  A    between atoms: _38  and  _43
REMARK    7  A    between atoms: _43  and  _46
REMARK    8  A    between atoms: _53  and  _55
REMARK                            x       y       z     vdW  Elec       q    Type
REMARK                         _______ _______ _______ _____ _____    ______ ____
ROOT
ATOM     10  C   UNL     1      16.785  20.661  12.718  0.00  0.00    +0.038 A 
ATOM     11  C   UNL     1      17.738  21.660  12.393  0.00  0.00    +0.047 A 
ATOM     12  C   UNL     1      18.386  21.686  11.091  0.00  0.00    +0.035 A 
ATOM     32  C   UNL     1      18.038  20.681  10.143  0.00  0.00    +0.024 A 
ATOM     33  C   UNL     1      17.072  19.657  10.457  0.00  0.00    +0.007 A 
ATOM     34  C   UNL     1      16.431  19.625  11.740  0.00  0.00    -0.029 A 
ATOM     35  C   UNL     1      15.408  18.501  12.024  0.00  0.00    +0.045 C 
ENDROOT
BRANCH  10   9
ATOM      4  C   UNL     1      16.630  19.384  17.342  0.00  0.00    +0.077 A 
ATOM      5  C   UNL     1      17.814  18.582  17.221  0.00  0.00    +0.048 A 
ATOM      6  C   UNL     1      18.428  18.519  15.950  0.00  0.00    +0.116 A 
ATOM      7  N   UNL     1      17.890  19.211  14.887  0.00  0.00    -0.223 NA
ATOM      8  C   UNL     1      16.747  19.973  15.037  0.00  0.00    +0.220 A 
ATOM      9  N   UNL     1      16.193  20.683  13.983  0.00  0.00    -0.283 N 
ATOM     36  H   UNL     1      15.344  21.228  14.133  0.00  0.00    +0.155 HD
ATOM     37  N   UNL     1      16.140  20.048  16.240  0.00  0.00    -0.214 NA
BRANCH   4   3
ATOM      1  C   UNL     1      14.654  20.952  20.331  0.00  0.00    +0.020 A 
ATOM      2  C   UNL     1      15.384  20.844  19.089  0.00  0.00    +0.013 A 
ATOM      3  C   UNL     1      15.869  19.552  18.620  0.00  0.00    +0.019 A 
ATOM     38  C   UNL     1      15.596  18.380  19.438  0.00  0.00    +0.120 A 
ATOM     39  N   UNL     1      14.891  18.515  20.630  0.00  0.00    -0.263 NA
ATOM     40  C   UNL     1      14.421  19.753  21.092  0.00  0.00    +0.111 A 
ENDBRANCH   4   3
ENDBRANCH  10   9
BRANCH  12  13
ATOM     13  N   UNL     1      19.367  22.670  10.708  0.00  0.00    -0.281 N 
ATOM     14  C   UNL     1      20.747  22.543  10.708  0.00  0.00    +0.248 C 
ATOM     30  O   UNL     1      21.356  21.630  11.244  0.00  0.00    -0.270 OA
ATOM     31  H   UNL     1      19.000  23.570  10.398  0.00  0.00    +0.155 HD
BRANCH  14  15
ATOM     15  C   UNL     1      21.569  23.589  10.026  0.00  0.00    +0.037 A 
ATOM     16  C   UNL     1      20.941  24.682   9.280  0.00  0.00    +0.013 A 
ATOM     17  C   UNL     1      21.757  25.668   8.617  0.00  0.00    +0.005 A 
ATOM     18  C   UNL     1      23.212  25.566   8.700  0.00  0.00    -0.033 A 
ATOM     28  C   UNL     1      23.809  24.474   9.451  0.00  0.00    +0.005 A 
ATOM     29  C   UNL     1      23.012  23.505  10.101  0.00  0.00    +0.013 A 
BRANCH  18  19
ATOM     19  C   UNL     1      24.161  26.561   8.007  0.00  0.00    +0.119 C 
BRANCH  19  20
ATOM     20  N   UNL     1      23.782  28.005   8.042  0.00  0.00    -0.302 NA
ATOM     21  C   UNL     1      24.241  28.751   6.786  0.00  0.00    +0.066 C 
ATOM     22  C   UNL     1      23.817  30.255   6.830  0.00  0.00    -0.064 C 
ATOM     23  N   UNL     1      24.393  30.908   8.087  0.00  0.00    +0.379 N 
ATOM     24  C   UNL     1      24.044  32.336   8.102  0.00  0.00    -0.096 C 
ATOM     25  H   UNL     1      25.503  30.831   8.029  0.00  0.00    -0.082 HD
ATOM     26  C   UNL     1      23.944  30.171   9.341  0.00  0.00    -0.064 C 
ATOM     27  C   UNL     1      24.344  28.671   9.274  0.00  0.00    +0.066 C 
ENDBRANCH  19  20
ENDBRANCH  18  19
ENDBRANCH  14  15
ENDBRANCH  12  13
TORSDOF 6
ENDMDL
