MODEL 1
REMARK VINA RESULT:      -7.8      0.000      0.000
REMARK  Name = C:\Users\Docking\Desktop\test protocol\1iep_ligandH.pdb
REMARK  8 active torsions:
REMARK  status: ('A' for Active; 'I' for Inactive)
REMARK    1  A    between atoms: _5  and  _11
REMARK    2  A    between atoms: _19  and  _21
REMARK    3  A    between atoms: _22  and  _66
REMARK    4  A    between atoms: _27  and  _30
REMARK    5  A    between atoms: _32  and  _33
REMARK    6  A    between atoms: _38  and  _43
REMARK    7  A    between atoms: _43  and  _46
REMARK    8  A    between atoms: _53  and  _55
REMARK                            x       y       z     vdW  Elec       q    Type
REMARK                         _______ _______ _______ _____ _____    ______ ____
ROOT
ATOM     10  C   UNL     1      -1.720 -37.847  -5.853  0.00  0.00    +0.038 A 
ATOM     11  C   UNL     1      -1.310 -36.786  -5.006  0.00  0.00    +0.047 A 
ATOM     12  C   UNL     1      -0.427 -37.025  -3.874  0.00  0.00    +0.035 A 
ATOM     32  C   UNL     1       0.022 -38.357  -3.636  0.00  0.00    +0.024 A 
ATOM     33  C   UNL     1      -0.386 -39.447  -4.487  0.00  0.00    +0.007 A 
ATOM     34  C   UNL     1      -1.259 -39.218  -5.602  0.00  0.00    -0.029 A 
ATOM     35  C   UNL     1      -1.669 -40.426  -6.477  0.00  0.00    +0.045 C 
ENDROOT
BRANCH  10   9
ATOM      4  C   UNL     1      -2.494 -36.628 -10.430  0.00  0.00    +0.077 A 
ATOM      5  C   UNL     1      -1.089 -36.526 -10.702  0.00  0.00    +0.048 A 
ATOM      6  C   UNL     1      -0.201 -36.788  -9.635  0.00  0.00    +0.116 A 
ATOM      7  N   UNL     1      -0.692 -37.127  -8.393  0.00  0.00    -0.223 NA
ATOM      8  C   UNL     1      -2.053 -37.215  -8.164  0.00  0.00    +0.220 A 
ATOM      9  N   UNL     1      -2.569 -37.561  -6.924  0.00  0.00    -0.283 N 
ATOM     36  H   UNL     1      -3.579 -37.608  -6.794  0.00  0.00    +0.155 HD
ATOM     37  N   UNL     1      -2.922 -36.968  -9.166  0.00  0.00    -0.214 NA
BRANCH   4   3
ATOM      1  C   UNL     1      -4.328 -35.942 -13.816  0.00  0.00    +0.020 A 
ATOM      2  C   UNL     1      -3.264 -36.173 -12.867  0.00  0.00    +0.013 A 
ATOM      3  C   UNL     1      -3.558 -36.384 -11.455  0.00  0.00    +0.019 A 
ATOM     38  C   UNL     1      -4.950 -36.357 -11.033  0.00  0.00    +0.120 A 
ATOM     39  N   UNL     1      -5.954 -36.131 -11.970  0.00  0.00    -0.263 NA
ATOM     40  C   UNL     1      -5.683 -35.924 -13.331  0.00  0.00    +0.111 A 
ENDBRANCH   4   3
ENDBRANCH  10   9
BRANCH  12  13
ATOM     13  N   UNL     1       0.017 -35.988  -2.975  0.00  0.00    -0.281 N 
ATOM     14  C   UNL     1       1.305 -35.741  -2.530  0.00  0.00    +0.248 C 
ATOM     30  O   UNL     1       2.245 -36.510  -2.671  0.00  0.00    -0.270 OA
ATOM     31  H   UNL     1      -0.707 -35.361  -2.624  0.00  0.00    +0.155 HD
BRANCH  14  15
ATOM     15  C   UNL     1       1.588 -34.461  -1.812  0.00  0.00    +0.037 A 
ATOM     16  C   UNL     1       2.469 -33.444  -2.390  0.00  0.00    +0.013 A 
ATOM     17  C   UNL     1       2.738 -32.225  -1.668  0.00  0.00    +0.005 A 
ATOM     18  C   UNL     1       2.123 -32.017  -0.360  0.00  0.00    -0.033 A 
ATOM     28  C   UNL     1       1.249 -33.041   0.188  0.00  0.00    +0.005 A 
ATOM     29  C   UNL     1       0.983 -34.237  -0.516  0.00  0.00    +0.013 A 
BRANCH  18  19
ATOM     19  C   UNL     1       2.371 -30.757   0.490  0.00  0.00    +0.119 C 
BRANCH  19  20
ATOM     20  N   UNL     1       1.585 -30.618   1.752  0.00  0.00    -0.302 NA
ATOM     21  C   UNL     1       0.467 -29.579   1.621  0.00  0.00    +0.066 C 
ATOM     22  C   UNL     1      -0.359 -29.463   2.943  0.00  0.00    -0.064 C 
ATOM     23  N   UNL     1       0.579 -29.106   4.098  0.00  0.00    +0.379 N 
ATOM     24  C   UNL     1      -0.204 -28.939   5.332  0.00  0.00    -0.096 C 
ATOM     25  H   UNL     1       1.049 -28.124   3.860  0.00  0.00    -0.082 HD
ATOM     26  C   UNL     1       1.695 -30.132   4.234  0.00  0.00    -0.064 C 
ATOM     27  C   UNL     1       2.491 -30.262   2.905  0.00  0.00    +0.066 C 
ENDBRANCH  19  20
ENDBRANCH  18  19
ENDBRANCH  14  15
ENDBRANCH  12  13
TORSDOF 6
ENDMDL
MODEL 2
REMARK VINA RESULT:      -7.6      2.542     12.795
REMARK  Name = C:\Users\Docking\Desktop\test protocol\1iep_ligandH.pdb
REMARK  8 active torsions:
REMARK  status: ('A' for Active; 'I' for Inactive)
REMARK    1  A    between atoms: _5  and  _11
REMARK    2  A    between atoms: _19  and  _21
REMARK    3  A    between atoms: _22  and  _66
REMARK    4  A    between atoms: _27  and  _30
REMARK    5  A    between atoms: _32  and  _33
REMARK    6  A    between atoms: _38  and  _43
REMARK    7  A    between atoms: _43  and  _46
REMARK    8  A    between atoms: _53  and  _55
REMARK                            x       y       z     vdW  Elec       q    Type
REMARK                         _______ _______ _______ _____ _____    ______ ____
ROOT
ATOM     10  C   UNL     1       2.162 -31.948   1.108  0.00  0.00    +0.038 A 
ATOM     11  C   UNL     1       1.691 -32.611  -0.054  0.00  0.00    +0.047 A 
ATOM     12  C   UNL     1       1.464 -34.048  -0.059  0.00  0.00    +0.035 A 
ATOM     32  C   UNL     1       1.723 -34.778   1.137  0.00  0.00    +0.024 A 
ATOM     33  C   UNL     1       2.203 -34.120   2.327  0.00  0.00    +0.007 A 
ATOM     34  C   UNL     1       2.432 -32.703   2.338  0.00  0.00    -0.029 A 
ATOM     35  C   UNL     1       2.953 -32.051   3.640  0.00  0.00    +0.045 C 
ENDROOT
BRANCH  10   9
ATOM      4  C   UNL     1       0.751 -27.432   1.917  0.00  0.00    +0.077 A 
ATOM      5  C   UNL     1      -0.506 -27.860   2.462  0.00  0.00    +0.048 A 
ATOM      6  C   UNL     1      -0.753 -29.250   2.510  0.00  0.00    +0.116 A 
ATOM      7  N   UNL     1       0.194 -30.138   2.045  0.00  0.00    -0.223 NA
ATOM      8  C   UNL     1       1.394 -29.692   1.524  0.00  0.00    +0.220 A 
ATOM      9  N   UNL     1       2.363 -30.567   1.058  0.00  0.00    -0.283 N 
ATOM     36  H   UNL     1       3.233 -30.198   0.674  0.00  0.00    +0.155 HD
ATOM     37  N   UNL     1       1.653 -28.369   1.466  0.00  0.00    -0.214 NA
BRANCH   4   3
ATOM      1  C   UNL     1       2.884 -24.155   1.811  0.00  0.00    +0.020 A 
ATOM      2  C   UNL     1       2.542 -25.554   1.930  0.00  0.00    +0.013 A 
ATOM      3  C   UNL     1       1.159 -25.997   1.803  0.00  0.00    +0.019 A 
ATOM     38  C   UNL     1       0.138 -24.991   1.552  0.00  0.00    +0.120 A 
ATOM     39  N   UNL     1       0.497 -23.651   1.443  0.00  0.00    -0.263 NA
ATOM     40  C   UNL     1       1.824 -23.213   1.565  0.00  0.00    +0.111 A 
ENDBRANCH   4   3
ENDBRANCH  10   9
BRANCH  12  13
ATOM     13  N   UNL     1       0.994 -34.777  -1.211  0.00  0.00    -0.281 N 
ATOM     14  C   UNL     1       1.719 -35.617  -2.041  0.00  0.00    +0.248 C 
ATOM     30  O   UNL     1       2.939 -35.701  -2.044  0.00  0.00    -0.270 OA
ATOM     31  H   UNL     1       0.008 -34.661  -1.443  0.00  0.00    +0.155 HD
BRANCH  14  15
ATOM     15  C   UNL     1       0.985 -36.477  -3.018  0.00  0.00    +0.037 A 
ATOM     16  C   UNL     1       1.553 -37.740  -3.496  0.00  0.00    +0.013 A 
ATOM     17  C   UNL     1       0.831 -38.542  -4.452  0.00  0.00    +0.005 A 
ATOM     18  C   UNL     1      -0.469 -38.083  -4.935  0.00  0.00    -0.033 A 
ATOM     28  C   UNL     1      -1.011 -36.829  -4.440  0.00  0.00    +0.005 A 
ATOM     29  C   UNL     1      -0.306 -36.039  -3.504  0.00  0.00    +0.013 A 
BRANCH  18  19
ATOM     19  C   UNL     1      -1.299 -38.864  -5.971  0.00  0.00    +0.119 C 
BRANCH  19  20
ATOM     20  N   UNL     1      -1.150 -38.471  -7.404  0.00  0.00    -0.302 NA
ATOM     21  C   UNL     1       0.199 -37.802  -7.678  0.00  0.00    +0.066 C 
ATOM     22  C   UNL     1       0.348 -37.418  -9.186  0.00  0.00    -0.064 C 
ATOM     23  N   UNL     1      -0.805 -36.498  -9.591  0.00  0.00    +0.379 N 
ATOM     24  C   UNL     1      -0.637 -36.088 -10.993  0.00  0.00    -0.096 C 
ATOM     25  H   UNL     1      -0.743 -35.581  -8.961  0.00  0.00    -0.082 HD
ATOM     26  C   UNL     1      -2.151 -37.155  -9.319  0.00  0.00    -0.064 C 
ATOM     27  C   UNL     1      -2.276 -37.559  -7.824  0.00  0.00    +0.066 C 
ENDBRANCH  19  20
ENDBRANCH  18  19
ENDBRANCH  14  15
ENDBRANCH  12  13
TORSDOF 6
ENDMDL
MODEL 3
REMARK VINA RESULT:      -7.6      1.994     12.428
REMARK  Name = C:\Users\Docking\Desktop\test protocol\1iep_ligandH.pdb
REMARK  8 active torsions:
REMARK  status: ('A' for Active; 'I' for Inactive)
REMARK    1  A    between atoms: _5  and  _11
REMARK    2  A    between atoms: _19  and  _21
REMARK    3  A    between atoms: _22  and  _66
REMARK    4  A    between atoms: _27  and  _30
REMARK    5  A    between atoms: _32  and  _33
REMARK    6  A    between atoms: _38  and  _43
REMARK    7  A    between atoms: _43  and  _46
REMARK    8  A    between atoms: _53  and  _55
REMARK                            x       y       z     vdW  Elec       q    Type
REMARK                         _______ _______ _______ _____ _____    ______ ____
ROOT
ATOM     10  C   UNL     1       1.446 -36.994  -1.977  0.00  0.00    +0.038 A 
ATOM     11  C   UNL     1       0.828 -36.883  -3.248  0.00  0.00    +0.047 A 
ATOM     12  C   UNL     1       0.930 -37.952  -4.230  0.00  0.00    +0.035 A 
ATOM     32  C   UNL     1       1.666 -39.122  -3.881  0.00  0.00    +0.024 A 
ATOM     33  C   UNL     1       2.301 -39.250  -2.593  0.00  0.00    +0.007 A 
ATOM     34  C   UNL     1       2.207 -38.198  -1.622  0.00  0.00    -0.029 A 
ATOM     35  C   UNL     1       2.914 -38.387  -0.260  0.00  0.00    +0.045 C 
ENDROOT
BRANCH  10   9
ATOM      4  C   UNL     1       2.501 -32.560  -0.469  0.00  0.00    +0.077 A 
ATOM      5  C   UNL     1       3.407 -32.341  -1.560  0.00  0.00    +0.048 A 
ATOM      6  C   UNL     1       3.579 -33.397  -2.483  0.00  0.00    +0.116 A 
ATOM      7  N   UNL     1       2.890 -34.580  -2.318  0.00  0.00    -0.223 NA
ATOM      8  C   UNL     1       2.026 -34.759  -1.254  0.00  0.00    +0.220 A 
ATOM      9  N   UNL     1       1.317 -35.937  -1.073  0.00  0.00    -0.283 N 
ATOM     36  H   UNL     1       0.694 -36.032  -0.271  0.00  0.00    +0.155 HD
ATOM     37  N   UNL     1       1.845 -33.766  -0.358  0.00  0.00    -0.214 NA
BRANCH   4   3
ATOM      1  C   UNL     1       1.417 -29.266   1.340  0.00  0.00    +0.020 A 
ATOM      2  C   UNL     1       1.681 -30.216   0.284  0.00  0.00    +0.013 A 
ATOM      3  C   UNL     1       2.211 -31.539   0.586  0.00  0.00    +0.019 A 
ATOM     38  C   UNL     1       2.465 -31.873   1.979  0.00  0.00    +0.120 A 
ATOM     39  N   UNL     1       2.203 -30.938   2.976  0.00  0.00    -0.263 NA
ATOM     40  C   UNL     1       1.694 -29.661   2.696  0.00  0.00    +0.111 A 
ENDBRANCH   4   3
ENDBRANCH  10   9
BRANCH  12  13
ATOM     13  N   UNL     1       0.330 -37.893  -5.540  0.00  0.00    -0.281 N 
ATOM     14  C   UNL     1      -0.825 -37.230  -5.918  0.00  0.00    +0.248 C 
ATOM     30  O   UNL     1      -1.639 -36.759  -5.138  0.00  0.00    -0.270 OA
ATOM     31  H   UNL     1       0.817 -38.402  -6.278  0.00  0.00    +0.155 HD
BRANCH  14  15
ATOM     15  C   UNL     1      -1.128 -37.079  -7.374  0.00  0.00    +0.037 A 
ATOM     16  C   UNL     1      -0.445 -37.897  -8.380  0.00  0.00    +0.013 A 
ATOM     17  C   UNL     1      -0.743 -37.720  -9.780  0.00  0.00    +0.005 A 
ATOM     18  C   UNL     1      -1.730 -36.721 -10.181  0.00  0.00    -0.033 A 
ATOM     28  C   UNL     1      -2.396 -35.927  -9.161  0.00  0.00    +0.005 A 
ATOM     29  C   UNL     1      -2.106 -36.097  -7.789  0.00  0.00    +0.013 A 
BRANCH  18  19
ATOM     19  C   UNL     1      -2.095 -36.449 -11.652  0.00  0.00    +0.119 C 
BRANCH  19  20
ATOM     20  N   UNL     1      -3.544 -36.479 -12.014  0.00  0.00    -0.302 NA
ATOM     21  C   UNL     1      -4.174 -37.849 -11.749  0.00  0.00    +0.066 C 
ATOM     22  C   UNL     1      -5.695 -37.856 -12.112  0.00  0.00    -0.064 C 
ATOM     23  N   UNL     1      -5.868 -37.455 -13.578  0.00  0.00    +0.379 N 
ATOM     24  C   UNL     1      -7.292 -37.516 -13.938  0.00  0.00    -0.096 C 
ATOM     25  H   UNL     1      -5.329 -38.207 -14.199  0.00  0.00    -0.082 HD
ATOM     26  C   UNL     1      -5.242 -36.095 -13.851  0.00  0.00    -0.064 C 
ATOM     27  C   UNL     1      -3.738 -36.090 -13.459  0.00  0.00    +0.066 C 
ENDBRANCH  19  20
ENDBRANCH  18  19
ENDBRANCH  14  15
ENDBRANCH  12  13
TORSDOF 6
ENDMDL
MODEL 4
REMARK VINA RESULT:      -7.5      3.184     13.374
REMARK  Name = C:\Users\Docking\Desktop\test protocol\1iep_ligandH.pdb
REMARK  8 active torsions:
REMARK  status: ('A' for Active; 'I' for Inactive)
REMARK    1  A    between atoms: _5  and  _11
REMARK    2  A    between atoms: _19  and  _21
REMARK    3  A    between atoms: _22  and  _66
REMARK    4  A    between atoms: _27  and  _30
REMARK    5  A    between atoms: _32  and  _33
REMARK    6  A    between atoms: _38  and  _43
REMARK    7  A    between atoms: _43  and  _46
REMARK    8  A    between atoms: _53  and  _55
REMARK                            x       y       z     vdW  Elec       q    Type
REMARK                         _______ _______ _______ _____ _____    ______ ____
ROOT
ATOM     10  C   UNL     1       2.248 -35.010   1.395  0.00  0.00    +0.038 A 
ATOM     11  C   UNL     1       1.501 -35.434   0.266  0.00  0.00    +0.047 A 
ATOM     12  C   UNL     1       2.041 -35.318  -1.080  0.00  0.00    +0.035 A 
ATOM     32  C   UNL     1       3.346 -34.769  -1.239  0.00  0.00    +0.024 A 
ATOM     33  C   UNL     1       4.119 -34.332  -0.103  0.00  0.00    +0.007 A 
ATOM     34  C   UNL     1       3.591 -34.441   1.227  0.00  0.00    -0.029 A 
ATOM     35  C   UNL     1       4.461 -33.951   2.408  0.00  0.00    +0.045 C 
ENDROOT
BRANCH  10   9
ATOM      4  C   UNL     1      -0.073 -33.236   5.203  0.00  0.00    +0.077 A 
ATOM      5  C   UNL     1      -0.139 -31.924   4.626  0.00  0.00    +0.048 A 
ATOM      6  C   UNL     1       0.443 -31.746   3.351  0.00  0.00    +0.116 A 
ATOM      7  N   UNL     1       1.043 -32.808   2.709  0.00  0.00    -0.223 NA
ATOM      8  C   UNL     1       1.090 -34.060   3.295  0.00  0.00    +0.220 A 
ATOM      9  N   UNL     1       1.681 -35.144   2.664  0.00  0.00    -0.283 N 
ATOM     36  H   UNL     1       1.703 -36.050   3.133  0.00  0.00    +0.155 HD
ATOM     37  N   UNL     1       0.543 -34.256   4.512  0.00  0.00    -0.214 NA
BRANCH   4   3
ATOM      1  C   UNL     1      -0.633 -33.517   9.064  0.00  0.00    +0.020 A 
ATOM      2  C   UNL     1      -0.040 -33.156   7.797  0.00  0.00    +0.013 A 
ATOM      3  C   UNL     1      -0.646 -33.583   6.542  0.00  0.00    +0.019 A 
ATOM     38  C   UNL     1      -1.861 -34.381   6.604  0.00  0.00    +0.120 A 
ATOM     39  N   UNL     1      -2.409 -34.715   7.839  0.00  0.00    -0.263 NA
ATOM     40  C   UNL     1      -1.834 -34.311   9.053  0.00  0.00    +0.111 A 
ENDBRANCH   4   3
ENDBRANCH  10   9
BRANCH  12  13
ATOM     13  N   UNL     1       1.326 -35.724  -2.264  0.00  0.00    -0.281 N 
ATOM     14  C   UNL     1       1.370 -36.950  -2.907  0.00  0.00    +0.248 C 
ATOM     30  O   UNL     1       2.200 -37.819  -2.682  0.00  0.00    -0.270 OA
ATOM     31  H   UNL     1       0.713 -35.022  -2.679  0.00  0.00    +0.155 HD
BRANCH  14  15
ATOM     15  C   UNL     1       0.356 -37.248  -3.963  0.00  0.00    +0.037 A 
ATOM     16  C   UNL     1      -0.880 -36.469  -4.072  0.00  0.00    +0.013 A 
ATOM     17  C   UNL     1      -1.850 -36.789  -5.089  0.00  0.00    +0.005 A 
ATOM     18  C   UNL     1      -1.587 -37.894  -6.007  0.00  0.00    -0.033 A 
ATOM     28  C   UNL     1      -0.351 -38.647  -5.881  0.00  0.00    +0.005 A 
ATOM     29  C   UNL     1       0.602 -38.337  -4.884  0.00  0.00    +0.013 A 
BRANCH  18  19
ATOM     19  C   UNL     1      -2.575 -38.319  -7.109  0.00  0.00    +0.119 C 
BRANCH  19  20
ATOM     20  N   UNL     1      -2.593 -37.507  -8.362  0.00  0.00    -0.302 NA
ATOM     21  C   UNL     1      -4.003 -37.385  -8.948  0.00  0.00    +0.066 C 
ATOM     22  C   UNL     1      -4.007 -36.513 -10.246  0.00  0.00    -0.064 C 
ATOM     23  N   UNL     1      -3.046 -37.122 -11.269  0.00  0.00    +0.379 N 
ATOM     24  C   UNL     1      -3.091 -36.338 -12.512  0.00  0.00    -0.096 C 
ATOM     25  H   UNL     1      -3.410 -38.149 -11.504  0.00  0.00    -0.082 HD
ATOM     26  C   UNL     1      -1.643 -37.250 -10.694  0.00  0.00    -0.064 C 
ATOM     27  C   UNL     1      -1.655 -38.093  -9.388  0.00  0.00    +0.066 C 
ENDBRANCH  19  20
ENDBRANCH  18  19
ENDBRANCH  14  15
ENDBRANCH  12  13
TORSDOF 6
ENDMDL
MODEL 5
REMARK VINA RESULT:      -7.4      6.872      9.772
REMARK  Name = C:\Users\Docking\Desktop\test protocol\1iep_ligandH.pdb
REMARK  8 active torsions:
REMARK  status: ('A' for Active; 'I' for Inactive)
REMARK    1  A    between atoms: _5  and  _11
REMARK    2  A    between atoms: _19  and  _21
REMARK    3  A    between atoms: _22  and  _66
REMARK    4  A    between atoms: _27  and  _30
REMARK    5  A    between atoms: _32  and  _33
REMARK    6  A    between atoms: _38  and  _43
REMARK    7  A    between atoms: _43  and  _46
REMARK    8  A    between atoms: _53  and  _55
REMARK                            x       y       z     vdW  Elec       q    Type
REMARK                         _______ _______ _______ _____ _____    ______ ____
ROOT
ATOM     10  C   UNL     1       2.982 -33.589  -2.179  0.00  0.00    +0.038 A 
ATOM     11  C   UNL     1       2.803 -32.302  -1.610  0.00  0.00    +0.047 A 
ATOM     12  C   UNL     1       1.776 -32.058  -0.609  0.00  0.00    +0.035 A 
ATOM     32  C   UNL     1       0.951 -33.148  -0.208  0.00  0.00    +0.024 A 
ATOM     33  C   UNL     1       1.118 -34.463  -0.777  0.00  0.00    +0.007 A 
ATOM     34  C   UNL     1       2.128 -34.709  -1.766  0.00  0.00    -0.029 A 
ATOM     35  C   UNL     1       2.258 -36.137  -2.346  0.00  0.00    +0.045 C 
ENDROOT
BRANCH  10   9
ATOM      4  C   UNL     1       7.408 -34.917  -3.477  0.00  0.00    +0.077 A 
ATOM      5  C   UNL     1       7.764 -35.260  -2.130  0.00  0.00    +0.048 A 
ATOM      6  C   UNL     1       6.782 -35.073  -1.132  0.00  0.00    +0.116 A 
ATOM      7  N   UNL     1       5.540 -34.580  -1.467  0.00  0.00    -0.223 NA
ATOM      8  C   UNL     1       5.229 -34.257  -2.775  0.00  0.00    +0.220 A 
ATOM      9  N   UNL     1       3.984 -33.767  -3.136  0.00  0.00    -0.283 N 
ATOM     36  H   UNL     1       3.797 -33.534  -4.111  0.00  0.00    +0.155 HD
ATOM     37  N   UNL     1       6.151 -34.425  -3.746  0.00  0.00    -0.214 NA
BRANCH   4   3
ATOM      1  C   UNL     1       8.806 -35.408  -7.097  0.00  0.00    +0.020 A 
ATOM      2  C   UNL     1       7.868 -35.275  -6.006  0.00  0.00    +0.013 A 
ATOM      3  C   UNL     1       8.336 -35.061  -4.643  0.00  0.00    +0.019 A 
ATOM     38  C   UNL     1       9.771 -34.985  -4.415  0.00  0.00    +0.120 A 
ATOM     39  N   UNL     1      10.651 -35.117  -5.485  0.00  0.00    -0.263 NA
ATOM     40  C   UNL     1      10.212 -35.325  -6.801  0.00  0.00    +0.111 A 
ENDBRANCH   4   3
ENDBRANCH  10   9
BRANCH  12  13
ATOM     13  N   UNL     1       1.543 -30.771  -0.002  0.00  0.00    -0.281 N 
ATOM     14  C   UNL     1       2.125 -30.250   1.142  0.00  0.00    +0.248 C 
ATOM     30  O   UNL     1       2.782 -30.901   1.941  0.00  0.00    -0.270 OA
ATOM     31  H   UNL     1       0.866 -30.171  -0.473  0.00  0.00    +0.155 HD
BRANCH  14  15
ATOM     15  C   UNL     1       1.940 -28.800   1.450  0.00  0.00    +0.037 A 
ATOM     16  C   UNL     1       0.626 -28.261   1.811  0.00  0.00    +0.013 A 
ATOM     17  C   UNL     1       0.471 -26.855   2.087  0.00  0.00    +0.005 A 
ATOM     18  C   UNL     1       1.636 -25.977   2.005  0.00  0.00    -0.033 A 
ATOM     28  C   UNL     1       2.929 -26.538   1.651  0.00  0.00    +0.005 A 
ATOM     29  C   UNL     1       3.084 -27.916   1.378  0.00  0.00    +0.013 A 
BRANCH  18  19
ATOM     19  C   UNL     1       1.560 -24.460   2.263  0.00  0.00    +0.119 C 
BRANCH  19  20
ATOM     20  N   UNL     1       2.840 -23.753   2.566  0.00  0.00    -0.302 NA
ATOM     21  C   UNL     1       2.743 -22.913   3.843  0.00  0.00    +0.066 C 
ATOM     22  C   UNL     1       4.098 -22.198   4.157  0.00  0.00    -0.064 C 
ATOM     23  N   UNL     1       4.501 -21.328   2.965  0.00  0.00    +0.379 N 
ATOM     24  C   UNL     1       5.744 -20.609   3.280  0.00  0.00    -0.096 C 
ATOM     25  H   UNL     1       3.699 -20.568   2.815  0.00  0.00    -0.082 HD
ATOM     26  C   UNL     1       4.596 -22.155   1.691  0.00  0.00    -0.064 C 
ATOM     27  C   UNL     1       3.254 -22.885   1.404  0.00  0.00    +0.066 C 
ENDBRANCH  19  20
ENDBRANCH  18  19
ENDBRANCH  14  15
ENDBRANCH  12  13
TORSDOF 6
ENDMDL
