MODEL 1
REMARK VINA RESULT:      -9.0      0.000      0.000
REMARK  Name = C:\Users\Docking\Desktop\test protocol\1iep_ligandH.pdb
REMARK  8 active torsions:
REMARK  status: ('A' for Active; 'I' for Inactive)
REMARK    1  A    between atoms: _5  and  _11
REMARK    2  A    between atoms: _19  and  _21
REMARK    3  A    between atoms: _22  and  _66
REMARK    4  A    between atoms: _27  and  _30
REMARK    5  A    between atoms: _32  and  _33
REMARK    6  A    between atoms: _38  and  _43
REMARK    7  A    between atoms: _43  and  _46
REMARK    8  A    between atoms: _53  and  _55
REMARK                            x       y       z     vdW  Elec       q    Type
REMARK                         _______ _______ _______ _____ _____    ______ ____
ROOT
ATOM     10  C   UNL     1      15.242  35.660  48.913  0.00  0.00    +0.038 A 
ATOM     11  C   UNL     1      14.299  34.620  48.711  0.00  0.00    +0.047 A 
ATOM     12  C   UNL     1      12.910  34.914  48.397  0.00  0.00    +0.035 A 
ATOM     32  C   UNL     1      12.516  36.280  48.293  0.00  0.00    +0.024 A 
ATOM     33  C   UNL     1      13.461  37.350  48.495  0.00  0.00    +0.007 A 
ATOM     34  C   UNL     1      14.832  37.065  48.808  0.00  0.00    -0.029 A 
ATOM     35  C   UNL     1      15.800  38.252  49.022  0.00  0.00    +0.045 C 
ENDROOT
BRANCH  10   9
ATOM      4  C   UNL     1      19.682  34.380  47.614  0.00  0.00    +0.077 A 
ATOM      5  C   UNL     1      19.333  34.361  46.222  0.00  0.00    +0.048 A 
ATOM      6  C   UNL     1      17.999  34.679  45.884  0.00  0.00    +0.116 A 
ATOM      7  N   UNL     1      17.090  34.993  46.871  0.00  0.00    -0.223 NA
ATOM      8  C   UNL     1      17.459  35.000  48.203  0.00  0.00    +0.220 A 
ATOM      9  N   UNL     1      16.563  35.320  49.212  0.00  0.00    -0.283 N 
ATOM     36  H   UNL     1      16.873  35.307  50.184  0.00  0.00    +0.155 HD
ATOM     37  N   UNL     1      18.727  34.698  48.553  0.00  0.00    -0.214 NA
BRANCH   4   3
ATOM      1  C   UNL     1      23.254  32.842  48.030  0.00  0.00    +0.020 A 
ATOM      2  C   UNL     1      21.939  33.104  47.492  0.00  0.00    +0.013 A 
ATOM      3  C   UNL     1      21.053  34.070  48.130  0.00  0.00    +0.019 A 
ATOM     38  C   UNL     1      21.531  34.758  49.319  0.00  0.00    +0.120 A 
ATOM     39  N   UNL     1      22.801  34.483  49.816  0.00  0.00    -0.263 NA
ATOM     40  C   UNL     1      23.663  33.555  49.212  0.00  0.00    +0.111 A 
ENDBRANCH   4   3
ENDBRANCH  10   9
BRANCH  12  13
ATOM     13  N   UNL     1      11.906  33.900  48.190  0.00  0.00    -0.281 N 
ATOM     14  C   UNL     1      11.642  33.187  47.032  0.00  0.00    +0.248 C 
ATOM     30  O   UNL     1      12.092  33.466  45.931  0.00  0.00    -0.270 OA
ATOM     31  H   UNL     1      11.318  33.681  48.995  0.00  0.00    +0.155 HD
BRANCH  14  15
ATOM     15  C   UNL     1      10.736  32.000  47.105  0.00  0.00    +0.037 A 
ATOM     16  C   UNL     1       9.906  31.750  48.287  0.00  0.00    +0.013 A 
ATOM     17  C   UNL     1       9.053  30.589  48.338  0.00  0.00    +0.005 A 
ATOM     18  C   UNL     1       9.026  29.669  47.204  0.00  0.00    -0.033 A 
ATOM     28  C   UNL     1       9.856  29.945  46.042  0.00  0.00    +0.005 A 
ATOM     29  C   UNL     1      10.693  31.081  45.988  0.00  0.00    +0.013 A 
BRANCH  18  19
ATOM     19  C   UNL     1       8.162  28.394  47.181  0.00  0.00    +0.119 C 
BRANCH  19  20
ATOM     20  N   UNL     1       8.750  27.159  47.781  0.00  0.00    -0.302 NA
ATOM     21  C   UNL     1       7.990  26.710  49.032  0.00  0.00    +0.066 C 
ATOM     22  C   UNL     1       8.604  25.405  49.633  0.00  0.00    -0.064 C 
ATOM     23  N   UNL     1      10.082  25.640  49.952  0.00  0.00    +0.379 N 
ATOM     24  C   UNL     1      10.648  24.432  50.571  0.00  0.00    -0.096 C 
ATOM     25  H   UNL     1      10.139  26.463  50.702  0.00  0.00    -0.082 HD
ATOM     26  C   UNL     1      10.845  26.089  48.714  0.00  0.00    -0.064 C 
ATOM     27  C   UNL     1      10.208  27.371  48.108  0.00  0.00    +0.066 C 
ENDBRANCH  19  20
ENDBRANCH  18  19
ENDBRANCH  14  15
ENDBRANCH  12  13
TORSDOF 6
ENDMDL
MODEL 2
REMARK VINA RESULT:      -8.6      7.128     10.882
REMARK  Name = C:\Users\Docking\Desktop\test protocol\1iep_ligandH.pdb
REMARK  8 active torsions:
REMARK  status: ('A' for Active; 'I' for Inactive)
REMARK    1  A    between atoms: _5  and  _11
REMARK    2  A    between atoms: _19  and  _21
REMARK    3  A    between atoms: _22  and  _66
REMARK    4  A    between atoms: _27  and  _30
REMARK    5  A    between atoms: _32  and  _33
REMARK    6  A    between atoms: _38  and  _43
REMARK    7  A    between atoms: _43  and  _46
REMARK    8  A    between atoms: _53  and  _55
REMARK                            x       y       z     vdW  Elec       q    Type
REMARK                         _______ _______ _______ _____ _____    ______ ____
ROOT
ATOM     10  C   UNL     1      17.907  38.492  44.761  0.00  0.00    +0.038 A 
ATOM     11  C   UNL     1      16.992  39.199  45.582  0.00  0.00    +0.047 A 
ATOM     12  C   UNL     1      15.862  39.912  45.008  0.00  0.00    +0.035 A 
ATOM     32  C   UNL     1      15.691  39.881  43.593  0.00  0.00    +0.024 A 
ATOM     33  C   UNL     1      16.612  39.167  42.743  0.00  0.00    +0.007 A 
ATOM     34  C   UNL     1      17.731  38.465  43.304  0.00  0.00    -0.029 A 
ATOM     35  C   UNL     1      18.690  37.722  42.344  0.00  0.00    +0.045 C 
ENDROOT
BRANCH  10   9
ATOM      4  C   UNL     1      19.770  34.753  47.124  0.00  0.00    +0.077 A 
ATOM      5  C   UNL     1      18.503  34.083  47.184  0.00  0.00    +0.048 A 
ATOM      6  C   UNL     1      17.395  34.738  46.600  0.00  0.00    +0.116 A 
ATOM      7  N   UNL     1      17.555  35.971  46.004  0.00  0.00    -0.223 NA
ATOM      8  C   UNL     1      18.790  36.590  45.966  0.00  0.00    +0.220 A 
ATOM      9  N   UNL     1      18.975  37.825  45.365  0.00  0.00    -0.283 N 
ATOM     36  H   UNL     1      19.901  38.252  45.364  0.00  0.00    +0.155 HD
ATOM     37  N   UNL     1      19.864  35.985  46.517  0.00  0.00    -0.214 NA
BRANCH   4   3
ATOM      1  C   UNL     1      23.006  32.614  47.633  0.00  0.00    +0.020 A 
ATOM      2  C   UNL     1      21.790  33.124  47.042  0.00  0.00    +0.013 A 
ATOM      3  C   UNL     1      21.035  34.188  47.693  0.00  0.00    +0.019 A 
ATOM     38  C   UNL     1      21.541  34.718  48.950  0.00  0.00    +0.120 A 
ATOM     39  N   UNL     1      22.714  34.206  49.496  0.00  0.00    -0.263 NA
ATOM     40  C   UNL     1      23.448  33.181  48.880  0.00  0.00    +0.111 A 
ENDBRANCH   4   3
ENDBRANCH  10   9
BRANCH  12  13
ATOM     13  N   UNL     1      14.905  40.654  45.790  0.00  0.00    -0.281 N 
ATOM     14  C   UNL     1      14.001  40.164  46.719  0.00  0.00    +0.248 C 
ATOM     30  O   UNL     1      13.730  38.981  46.862  0.00  0.00    -0.270 OA
ATOM     31  H   UNL     1      14.892  41.663  45.642  0.00  0.00    +0.155 HD
BRANCH  14  15
ATOM     15  C   UNL     1      13.284  41.129  47.607  0.00  0.00    +0.037 A 
ATOM     16  C   UNL     1      11.859  41.416  47.423  0.00  0.00    +0.013 A 
ATOM     17  C   UNL     1      11.195  42.363  48.283  0.00  0.00    +0.005 A 
ATOM     18  C   UNL     1      11.956  43.031  49.336  0.00  0.00    -0.033 A 
ATOM     28  C   UNL     1      13.368  42.723  49.500  0.00  0.00    +0.005 A 
ATOM     29  C   UNL     1      14.022  41.796  48.658  0.00  0.00    +0.013 A 
BRANCH  18  19
ATOM     19  C   UNL     1      11.335  44.071  50.286  0.00  0.00    +0.119 C 
BRANCH  19  20
ATOM     20  N   UNL     1      12.164  44.521  51.444  0.00  0.00    -0.302 NA
ATOM     21  C   UNL     1      11.770  43.811  52.743  0.00  0.00    +0.066 C 
ATOM     22  C   UNL     1      12.662  44.277  53.939  0.00  0.00    -0.064 C 
ATOM     23  N   UNL     1      12.549  45.795  54.096  0.00  0.00    +0.379 N 
ATOM     24  C   UNL     1      13.341  46.229  55.256  0.00  0.00    -0.096 C 
ATOM     25  H   UNL     1      11.481  46.034  54.306  0.00  0.00    -0.082 HD
ATOM     26  C   UNL     1      12.936  46.508  52.808  0.00  0.00    -0.064 C 
ATOM     27  C   UNL     1      12.064  46.017  51.620  0.00  0.00    +0.066 C 
ENDBRANCH  19  20
ENDBRANCH  18  19
ENDBRANCH  14  15
ENDBRANCH  12  13
TORSDOF 6
ENDMDL
MODEL 3
REMARK VINA RESULT:      -8.4      5.840     11.147
REMARK  Name = C:\Users\Docking\Desktop\test protocol\1iep_ligandH.pdb
REMARK  8 active torsions:
REMARK  status: ('A' for Active; 'I' for Inactive)
REMARK    1  A    between atoms: _5  and  _11
REMARK    2  A    between atoms: _19  and  _21
REMARK    3  A    between atoms: _22  and  _66
REMARK    4  A    between atoms: _27  and  _30
REMARK    5  A    between atoms: _32  and  _33
REMARK    6  A    between atoms: _38  and  _43
REMARK    7  A    between atoms: _43  and  _46
REMARK    8  A    between atoms: _53  and  _55
REMARK                            x       y       z     vdW  Elec       q    Type
REMARK                         _______ _______ _______ _____ _____    ______ ____
ROOT
ATOM     10  C   UNL     1      15.310  35.967  47.429  0.00  0.00    +0.038 A 
ATOM     11  C   UNL     1      15.027  37.213  48.046  0.00  0.00    +0.047 A 
ATOM     12  C   UNL     1      13.829  37.965  47.709  0.00  0.00    +0.035 A 
ATOM     32  C   UNL     1      12.938  37.417  46.741  0.00  0.00    +0.024 A 
ATOM     33  C   UNL     1      13.209  36.153  46.103  0.00  0.00    +0.007 A 
ATOM     34  C   UNL     1      14.391  35.408  46.430  0.00  0.00    -0.029 A 
ATOM     35  C   UNL     1      14.635  34.061  45.710  0.00  0.00    +0.045 C 
ENDROOT
BRANCH  10   9
ATOM      4  C   UNL     1      20.024  35.149  47.047  0.00  0.00    +0.077 A 
ATOM      5  C   UNL     1      20.173  36.141  46.022  0.00  0.00    +0.048 A 
ATOM      6  C   UNL     1      19.011  36.835  45.616  0.00  0.00    +0.116 A 
ATOM      7  N   UNL     1      17.795  36.549  46.200  0.00  0.00    -0.223 NA
ATOM      8  C   UNL     1      17.686  35.585  47.185  0.00  0.00    +0.220 A 
ATOM      9  N   UNL     1      16.475  35.287  47.790  0.00  0.00    -0.283 N 
ATOM     36  H   UNL     1      16.435  34.564  48.508  0.00  0.00    +0.155 HD
ATOM     37  N   UNL     1      18.781  34.908  47.589  0.00  0.00    -0.214 NA
BRANCH   4   3
ATOM      1  C   UNL     1      22.828  32.449  47.430  0.00  0.00    +0.020 A 
ATOM      2  C   UNL     1      21.732  33.203  46.867  0.00  0.00    +0.013 A 
ATOM      3  C   UNL     1      21.159  34.334  47.585  0.00  0.00    +0.019 A 
ATOM     38  C   UNL     1      21.723  34.680  48.881  0.00  0.00    +0.120 A 
ATOM     39  N   UNL     1      22.778  33.935  49.399  0.00  0.00    -0.263 NA
ATOM     40  C   UNL     1      23.336  32.843  48.718  0.00  0.00    +0.111 A 
ENDBRANCH   4   3
ENDBRANCH  10   9
BRANCH  12  13
ATOM     13  N   UNL     1      13.494  39.238  48.297  0.00  0.00    -0.281 N 
ATOM     14  C   UNL     1      13.771  40.503  47.804  0.00  0.00    +0.248 C 
ATOM     30  O   UNL     1      14.541  40.732  46.883  0.00  0.00    -0.270 OA
ATOM     31  H   UNL     1      12.992  39.203  49.184  0.00  0.00    +0.155 HD
BRANCH  14  15
ATOM     15  C   UNL     1      13.108  41.685  48.434  0.00  0.00    +0.037 A 
ATOM     16  C   UNL     1      11.751  42.086  48.055  0.00  0.00    +0.013 A 
ATOM     17  C   UNL     1      11.141  43.241  48.666  0.00  0.00    +0.005 A 
ATOM     18  C   UNL     1      11.888  44.001  49.664  0.00  0.00    -0.033 A 
ATOM     28  C   UNL     1      13.231  43.578  50.026  0.00  0.00    +0.005 A 
ATOM     29  C   UNL     1      13.832  42.447  49.428  0.00  0.00    +0.013 A 
BRANCH  18  19
ATOM     19  C   UNL     1      11.324  45.259  50.353  0.00  0.00    +0.119 C 
BRANCH  19  20
ATOM     20  N   UNL     1      11.842  45.583  51.715  0.00  0.00    -0.302 NA
ATOM     21  C   UNL     1      10.795  45.331  52.803  0.00  0.00    +0.066 C 
ATOM     22  C   UNL     1      11.361  45.654  54.224  0.00  0.00    -0.064 C 
ATOM     23  N   UNL     1      11.841  47.106  54.261  0.00  0.00    +0.379 N 
ATOM     24  C   UNL     1      12.321  47.430  55.612  0.00  0.00    -0.096 C 
ATOM     25  H   UNL     1      10.963  47.758  54.048  0.00  0.00    -0.082 HD
ATOM     26  C   UNL     1      12.881  47.366  53.180  0.00  0.00    -0.064 C 
ATOM     27  C   UNL     1      12.318  47.013  51.775  0.00  0.00    +0.066 C 
ENDBRANCH  19  20
ENDBRANCH  18  19
ENDBRANCH  14  15
ENDBRANCH  12  13
TORSDOF 6
ENDMDL
MODEL 4
REMARK VINA RESULT:      -8.1      6.505     11.478
REMARK  Name = C:\Users\Docking\Desktop\test protocol\1iep_ligandH.pdb
REMARK  8 active torsions:
REMARK  status: ('A' for Active; 'I' for Inactive)
REMARK    1  A    between atoms: _5  and  _11
REMARK    2  A    between atoms: _19  and  _21
REMARK    3  A    between atoms: _22  and  _66
REMARK    4  A    between atoms: _27  and  _30
REMARK    5  A    between atoms: _32  and  _33
REMARK    6  A    between atoms: _38  and  _43
REMARK    7  A    between atoms: _43  and  _46
REMARK    8  A    between atoms: _53  and  _55
REMARK                            x       y       z     vdW  Elec       q    Type
REMARK                         _______ _______ _______ _____ _____    ______ ____
ROOT
ATOM     10  C   UNL     1      16.080  37.526  44.117  0.00  0.00    +0.038 A 
ATOM     11  C   UNL     1      15.684  38.505  45.064  0.00  0.00    +0.047 A 
ATOM     12  C   UNL     1      14.445  39.248  44.904  0.00  0.00    +0.035 A 
ATOM     32  C   UNL     1      13.630  38.967  43.769  0.00  0.00    +0.024 A 
ATOM     33  C   UNL     1      14.017  37.976  42.796  0.00  0.00    +0.007 A 
ATOM     34  C   UNL     1      15.241  37.241  42.947  0.00  0.00    -0.029 A 
ATOM     35  C   UNL     1      15.609  36.195  41.870  0.00  0.00    +0.045 C 
ENDROOT
BRANCH  10   9
ATOM      4  C   UNL     1      18.679  34.060  46.184  0.00  0.00    +0.077 A 
ATOM      5  C   UNL     1      17.557  33.589  46.943  0.00  0.00    +0.048 A 
ATOM      6  C   UNL     1      16.330  34.271  46.779  0.00  0.00    +0.116 A 
ATOM      7  N   UNL     1      16.244  35.342  45.916  0.00  0.00    -0.223 NA
ATOM      8  C   UNL     1      17.346  35.771  45.200  0.00  0.00    +0.220 A 
ATOM      9  N   UNL     1      17.281  36.841  44.321  0.00  0.00    -0.283 N 
ATOM     36  H   UNL     1      18.118  37.132  43.816  0.00  0.00    +0.155 HD
ATOM     37  N   UNL     1      18.529  35.138  45.340  0.00  0.00    -0.214 NA
BRANCH   4   3
ATOM      1  C   UNL     1      22.227  32.961  47.411  0.00  0.00    +0.020 A 
ATOM      2  C   UNL     1      20.921  33.579  47.401  0.00  0.00    +0.013 A 
ATOM      3  C   UNL     1      20.041  33.442  46.247  0.00  0.00    +0.019 A 
ATOM     38  C   UNL     1      20.517  32.666  45.111  0.00  0.00    +0.120 A 
ATOM     39  N   UNL     1      21.780  32.084  45.148  0.00  0.00    -0.263 NA
ATOM     40  C   UNL     1      22.636  32.211  46.253  0.00  0.00    +0.111 A 
ENDBRANCH   4   3
ENDBRANCH  10   9
BRANCH  12  13
ATOM     13  N   UNL     1      13.995  40.260  45.828  0.00  0.00    -0.281 N 
ATOM     14  C   UNL     1      12.917  40.201  46.696  0.00  0.00    +0.248 C 
ATOM     30  O   UNL     1      12.043  39.348  46.657  0.00  0.00    -0.270 OA
ATOM     31  H   UNL     1      14.537  41.123  45.845  0.00  0.00    +0.155 HD
BRANCH  14  15
ATOM     15  C   UNL     1      12.782  41.251  47.752  0.00  0.00    +0.037 A 
ATOM     16  C   UNL     1      11.514  41.952  47.970  0.00  0.00    +0.013 A 
ATOM     17  C   UNL     1      11.417  42.972  48.983  0.00  0.00    +0.005 A 
ATOM     18  C   UNL     1      12.591  43.296  49.789  0.00  0.00    -0.033 A 
ATOM     28  C   UNL     1      13.835  42.581  49.556  0.00  0.00    +0.005 A 
ATOM     29  C   UNL     1      13.935  41.582  48.562  0.00  0.00    +0.013 A 
BRANCH  18  19
ATOM     19  C   UNL     1      12.584  44.385  50.878  0.00  0.00    +0.119 C 
BRANCH  19  20
ATOM     20  N   UNL     1      13.870  45.098  51.141  0.00  0.00    -0.302 NA
ATOM     21  C   UNL     1      14.075  45.382  52.631  0.00  0.00    +0.066 C 
ATOM     22  C   UNL     1      15.435  46.108  52.890  0.00  0.00    -0.064 C 
ATOM     23  N   UNL     1      15.480  47.405  52.081  0.00  0.00    +0.379 N 
ATOM     24  C   UNL     1      16.733  48.119  52.367  0.00  0.00    -0.096 C 
ATOM     25  H   UNL     1      14.637  48.048  52.426  0.00  0.00    -0.082 HD
ATOM     26  C   UNL     1      15.274  47.132  50.598  0.00  0.00    -0.064 C 
ATOM     27  C   UNL     1      13.933  46.384  50.354  0.00  0.00    +0.066 C 
ENDBRANCH  19  20
ENDBRANCH  18  19
ENDBRANCH  14  15
ENDBRANCH  12  13
TORSDOF 6
ENDMDL
MODEL 5
REMARK VINA RESULT:      -8.1      8.367     13.037
REMARK  Name = C:\Users\Docking\Desktop\test protocol\1iep_ligandH.pdb
REMARK  8 active torsions:
REMARK  status: ('A' for Active; 'I' for Inactive)
REMARK    1  A    between atoms: _5  and  _11
REMARK    2  A    between atoms: _19  and  _21
REMARK    3  A    between atoms: _22  and  _66
REMARK    4  A    between atoms: _27  and  _30
REMARK    5  A    between atoms: _32  and  _33
REMARK    6  A    between atoms: _38  and  _43
REMARK    7  A    between atoms: _43  and  _46
REMARK    8  A    between atoms: _53  and  _55
REMARK                            x       y       z     vdW  Elec       q    Type
REMARK                         _______ _______ _______ _____ _____    ______ ____
ROOT
ATOM     10  C   UNL     1      18.704  37.662  43.856  0.00  0.00    +0.038 A 
ATOM     11  C   UNL     1      19.025  37.307  42.521  0.00  0.00    +0.047 A 
ATOM     12  C   UNL     1      18.171  37.699  41.411  0.00  0.00    +0.035 A 
ATOM     32  C   UNL     1      16.997  38.455  41.697  0.00  0.00    +0.024 A 
ATOM     33  C   UNL     1      16.654  38.824  43.048  0.00  0.00    +0.007 A 
ATOM     34  C   UNL     1      17.492  38.438  44.147  0.00  0.00    -0.029 A 
ATOM     35  C   UNL     1      17.072  38.856  45.575  0.00  0.00    +0.045 C 
ENDROOT
BRANCH  10   9
ATOM      4  C   UNL     1      20.509  34.328  46.798  0.00  0.00    +0.077 A 
ATOM      5  C   UNL     1      19.655  33.307  46.262  0.00  0.00    +0.048 A 
ATOM      6  C   UNL     1      18.760  33.684  45.235  0.00  0.00    +0.116 A 
ATOM      7  N   UNL     1      18.731  34.986  44.786  0.00  0.00    -0.223 NA
ATOM      8  C   UNL     1      19.567  35.946  45.325  0.00  0.00    +0.220 A 
ATOM      9  N   UNL     1      19.560  37.259  44.883  0.00  0.00    -0.283 N 
ATOM     36  H   UNL     1      20.187  37.939  45.312  0.00  0.00    +0.155 HD
ATOM     37  N   UNL     1      20.429  35.612  46.308  0.00  0.00    -0.214 NA
BRANCH   4   3
ATOM      1  C   UNL     1      23.465  32.846  48.889  0.00  0.00    +0.020 A 
ATOM      2  C   UNL     1      22.521  33.038  47.812  0.00  0.00    +0.013 A 
ATOM      3  C   UNL     1      21.510  34.085  47.885  0.00  0.00    +0.019 A 
ATOM     38  C   UNL     1      21.481  34.928  49.071  0.00  0.00    +0.120 A 
ATOM     39  N   UNL     1      22.401  34.719  50.093  0.00  0.00    -0.263 NA
ATOM     40  C   UNL     1      23.378  33.713  50.034  0.00  0.00    +0.111 A 
ENDBRANCH   4   3
ENDBRANCH  10   9
BRANCH  12  13
ATOM     13  N   UNL     1      18.442  37.360  40.036  0.00  0.00    -0.281 N 
ATOM     14  C   UNL     1      19.065  38.138  39.074  0.00  0.00    +0.248 C 
ATOM     30  O   UNL     1      19.294  39.332  39.193  0.00  0.00    -0.270 OA
ATOM     31  H   UNL     1      18.137  36.434  39.735  0.00  0.00    +0.155 HD
BRANCH  14  15
ATOM     15  C   UNL     1      19.480  37.500  37.788  0.00  0.00    +0.037 A 
ATOM     16  C   UNL     1      20.120  38.279  36.725  0.00  0.00    +0.013 A 
ATOM     17  C   UNL     1      20.496  37.643  35.487  0.00  0.00    +0.005 A 
ATOM     18  C   UNL     1      20.233  36.217  35.306  0.00  0.00    -0.033 A 
ATOM     28  C   UNL     1      19.601  35.467  36.379  0.00  0.00    +0.005 A 
ATOM     29  C   UNL     1      19.231  36.087  37.593  0.00  0.00    +0.013 A 
BRANCH  18  19
ATOM     19  C   UNL     1      20.581  35.461  34.011  0.00  0.00    +0.119 C 
BRANCH  19  20
ATOM     20  N   UNL     1      21.922  34.809  33.939  0.00  0.00    -0.302 NA
ATOM     21  C   UNL     1      22.863  35.536  32.974  0.00  0.00    +0.066 C 
ATOM     22  C   UNL     1      24.269  34.854  32.928  0.00  0.00    -0.064 C 
ATOM     23  N   UNL     1      24.109  33.387  32.525  0.00  0.00    +0.379 N 
ATOM     24  C   UNL     1      25.434  32.758  32.425  0.00  0.00    -0.096 C 
ATOM     25  H   UNL     1      23.645  33.364  31.512  0.00  0.00    -0.082 HD
ATOM     26  C   UNL     1      23.172  32.657  33.477  0.00  0.00    -0.064 C 
ATOM     27  C   UNL     1      21.788  33.360  33.538  0.00  0.00    +0.066 C 
ENDBRANCH  19  20
ENDBRANCH  18  19
ENDBRANCH  14  15
ENDBRANCH  12  13
TORSDOF 6
ENDMDL
