MODEL 1
REMARK VINA RESULT:     -13.4      0.000      0.000
REMARK  Name = C:\Users\Docking\Desktop\test protocol\1iep_ligandH.pdb
REMARK  8 active torsions:
REMARK  status: ('A' for Active; 'I' for Inactive)
REMARK    1  A    between atoms: _5  and  _11
REMARK    2  A    between atoms: _19  and  _21
REMARK    3  A    between atoms: _22  and  _66
REMARK    4  A    between atoms: _27  and  _30
REMARK    5  A    between atoms: _32  and  _33
REMARK    6  A    between atoms: _38  and  _43
REMARK    7  A    between atoms: _43  and  _46
REMARK    8  A    between atoms: _53  and  _55
REMARK                            x       y       z     vdW  Elec       q    Type
REMARK                         _______ _______ _______ _____ _____    ______ ____
ROOT
ATOM     10  C   UNL     1      29.627  35.546  51.029  0.00  0.00    +0.038 A 
ATOM     11  C   UNL     1      28.419  35.360  50.310  0.00  0.00    +0.047 A 
ATOM     12  C   UNL     1      27.514  34.266  50.628  0.00  0.00    +0.035 A 
ATOM     32  C   UNL     1      27.870  33.382  51.688  0.00  0.00    +0.024 A 
ATOM     33  C   UNL     1      29.094  33.556  52.429  0.00  0.00    +0.007 A 
ATOM     34  C   UNL     1      29.992  34.632  52.118  0.00  0.00    -0.029 A 
ATOM     35  C   UNL     1      31.294  34.766  52.941  0.00  0.00    +0.045 C 
ENDROOT
BRANCH  10   9
ATOM      4  C   UNL     1      33.416  37.382  48.725  0.00  0.00    +0.077 A 
ATOM      5  C   UNL     1      33.786  36.103  48.192  0.00  0.00    +0.048 A 
ATOM      6  C   UNL     1      32.979  34.996  48.540  0.00  0.00    +0.116 A 
ATOM      7  N   UNL     1      31.886  35.168  49.361  0.00  0.00    -0.223 NA
ATOM      8  C   UNL     1      31.558  36.416  49.860  0.00  0.00    +0.220 A 
ATOM      9  N   UNL     1      30.458  36.613  50.681  0.00  0.00    -0.283 N 
ATOM     36  H   UNL     1      30.254  37.548  51.034  0.00  0.00    +0.155 HD
ATOM     37  N   UNL     1      32.314  37.488  49.543  0.00  0.00    -0.214 NA
BRANCH   4   3
ATOM      1  C   UNL     1      36.285  39.927  47.952  0.00  0.00    +0.020 A 
ATOM      2  C   UNL     1      35.607  38.679  48.219  0.00  0.00    +0.013 A 
ATOM      3  C   UNL     1      34.168  38.646  48.446  0.00  0.00    +0.019 A 
ATOM     38  C   UNL     1      33.438  39.904  48.395  0.00  0.00    +0.120 A 
ATOM     39  N   UNL     1      34.117  41.090  48.138  0.00  0.00    -0.263 NA
ATOM     40  C   UNL     1      35.502  41.134  47.919  0.00  0.00    +0.111 A 
ENDBRANCH   4   3
ENDBRANCH  10   9
BRANCH  12  13
ATOM     13  N   UNL     1      26.278  34.023  49.927  0.00  0.00    -0.281 N 
ATOM     14  C   UNL     1      25.002  33.932  50.458  0.00  0.00    +0.248 C 
ATOM     30  O   UNL     1      24.754  33.834  51.651  0.00  0.00    -0.270 OA
ATOM     31  H   UNL     1      26.353  33.903  48.917  0.00  0.00    +0.155 HD
BRANCH  14  15
ATOM     15  C   UNL     1      23.831  33.936  49.528  0.00  0.00    +0.037 A 
ATOM     16  C   UNL     1      23.748  32.997  48.407  0.00  0.00    +0.013 A 
ATOM     17  C   UNL     1      22.616  33.034  47.515  0.00  0.00    +0.005 A 
ATOM     18  C   UNL     1      21.556  34.013  47.743  0.00  0.00    -0.033 A 
ATOM     28  C   UNL     1      21.661  34.929  48.867  0.00  0.00    +0.005 A 
ATOM     29  C   UNL     1      22.770  34.897  49.742  0.00  0.00    +0.013 A 
BRANCH  18  19
ATOM     19  C   UNL     1      20.322  34.138  46.830  0.00  0.00    +0.119 C 
BRANCH  19  20
ATOM     20  N   UNL     1      20.368  33.428  45.517  0.00  0.00    -0.302 NA
ATOM     21  C   UNL     1      20.680  34.381  44.360  0.00  0.00    +0.066 C 
ATOM     22  C   UNL     1      20.747  33.618  42.997  0.00  0.00    -0.064 C 
ATOM     23  N   UNL     1      19.423  32.890  42.758  0.00  0.00    +0.379 N 
ATOM     24  C   UNL     1      19.461  32.219  41.450  0.00  0.00    -0.096 C 
ATOM     25  H   UNL     1      18.616  33.658  42.720  0.00  0.00    -0.082 HD
ATOM     26  C   UNL     1      19.104  31.942  43.905  0.00  0.00    -0.064 C 
ATOM     27  C   UNL     1      19.069  32.705  45.259  0.00  0.00    +0.066 C 
ENDBRANCH  19  20
ENDBRANCH  18  19
ENDBRANCH  14  15
ENDBRANCH  12  13
TORSDOF 6
ENDMDL
MODEL 2
REMARK VINA RESULT:     -13.1      1.646      2.474
REMARK  Name = C:\Users\Docking\Desktop\test protocol\1iep_ligandH.pdb
REMARK  8 active torsions:
REMARK  status: ('A' for Active; 'I' for Inactive)
REMARK    1  A    between atoms: _5  and  _11
REMARK    2  A    between atoms: _19  and  _21
REMARK    3  A    between atoms: _22  and  _66
REMARK    4  A    between atoms: _27  and  _30
REMARK    5  A    between atoms: _32  and  _33
REMARK    6  A    between atoms: _38  and  _43
REMARK    7  A    between atoms: _43  and  _46
REMARK    8  A    between atoms: _53  and  _55
REMARK                            x       y       z     vdW  Elec       q    Type
REMARK                         _______ _______ _______ _____ _____    ______ ____
ROOT
ATOM     10  C   UNL     1      29.569  35.545  51.046  0.00  0.00    +0.038 A 
ATOM     11  C   UNL     1      28.364  35.364  50.321  0.00  0.00    +0.047 A 
ATOM     12  C   UNL     1      27.472  34.251  50.609  0.00  0.00    +0.035 A 
ATOM     32  C   UNL     1      27.837  33.343  51.645  0.00  0.00    +0.024 A 
ATOM     33  C   UNL     1      29.059  33.512  52.392  0.00  0.00    +0.007 A 
ATOM     34  C   UNL     1      29.944  34.606  52.110  0.00  0.00    -0.029 A 
ATOM     35  C   UNL     1      31.244  34.734  52.938  0.00  0.00    +0.045 C 
ENDROOT
BRANCH  10   9
ATOM      4  C   UNL     1      33.325  37.491  48.778  0.00  0.00    +0.077 A 
ATOM      5  C   UNL     1      33.703  36.234  48.201  0.00  0.00    +0.048 A 
ATOM      6  C   UNL     1      32.909  35.109  48.519  0.00  0.00    +0.116 A 
ATOM      7  N   UNL     1      31.820  35.244  49.352  0.00  0.00    -0.223 NA
ATOM      8  C   UNL     1      31.483  36.471  49.893  0.00  0.00    +0.220 A 
ATOM      9  N   UNL     1      30.388  36.631  50.727  0.00  0.00    -0.283 N 
ATOM     36  H   UNL     1      30.177  37.551  51.112  0.00  0.00    +0.155 HD
ATOM     37  N   UNL     1      32.227  37.560  49.607  0.00  0.00    -0.214 NA
BRANCH   4   3
ATOM      1  C   UNL     1      34.158  41.210  47.896  0.00  0.00    +0.020 A 
ATOM      2  C   UNL     1      33.400  40.000  48.117  0.00  0.00    +0.013 A 
ATOM      3  C   UNL     1      34.062  38.771  48.535  0.00  0.00    +0.019 A 
ATOM     38  C   UNL     1      35.505  38.801  48.724  0.00  0.00    +0.120 A 
ATOM     39  N   UNL     1      36.209  39.980  48.502  0.00  0.00    -0.263 NA
ATOM     40  C   UNL     1      35.583  41.168  48.098  0.00  0.00    +0.111 A 
ENDBRANCH   4   3
ENDBRANCH  10   9
BRANCH  12  13
ATOM     13  N   UNL     1      26.239  34.012  49.900  0.00  0.00    -0.281 N 
ATOM     14  C   UNL     1      24.955  33.964  50.418  0.00  0.00    +0.248 C 
ATOM     30  O   UNL     1      24.692  33.909  51.610  0.00  0.00    -0.270 OA
ATOM     31  H   UNL     1      26.323  33.859  48.895  0.00  0.00    +0.155 HD
BRANCH  14  15
ATOM     15  C   UNL     1      23.796  33.964  49.474  0.00  0.00    +0.037 A 
ATOM     16  C   UNL     1      22.715  34.945  49.598  0.00  0.00    +0.013 A 
ATOM     17  C   UNL     1      21.600  34.912  48.685  0.00  0.00    +0.005 A 
ATOM     18  C   UNL     1      21.561  33.893  47.638  0.00  0.00    -0.033 A 
ATOM     28  C   UNL     1      22.650  32.935  47.535  0.00  0.00    +0.005 A 
ATOM     29  C   UNL     1      23.744  32.964  48.429  0.00  0.00    +0.013 A 
BRANCH  18  19
ATOM     19  C   UNL     1      20.401  33.770  46.633  0.00  0.00    +0.119 C 
BRANCH  19  20
ATOM     20  N   UNL     1      19.326  34.804  46.700  0.00  0.00    -0.302 NA
ATOM     21  C   UNL     1      18.119  34.328  47.514  0.00  0.00    +0.066 C 
ATOM     22  C   UNL     1      17.014  35.430  47.592  0.00  0.00    -0.064 C 
ATOM     23  N   UNL     1      16.590  35.826  46.176  0.00  0.00    +0.379 N 
ATOM     24  C   UNL     1      15.510  36.821  46.247  0.00  0.00    -0.096 C 
ATOM     25  H   UNL     1      16.180  34.916  45.680  0.00  0.00    -0.082 HD
ATOM     26  C   UNL     1      17.785  36.299  45.360  0.00  0.00    -0.064 C 
ATOM     27  C   UNL     1      18.889  35.207  45.313  0.00  0.00    +0.066 C 
ENDBRANCH  19  20
ENDBRANCH  18  19
ENDBRANCH  14  15
ENDBRANCH  12  13
TORSDOF 6
ENDMDL
