MODEL 1
REMARK VINA RESULT:     -10.2      0.000      0.000
REMARK  Name = C:\Users\Docking\Desktop\test protocol\1iep_ligandH.pdb
REMARK  8 active torsions:
REMARK  status: ('A' for Active; 'I' for Inactive)
REMARK    1  A    between atoms: _5  and  _11
REMARK    2  A    between atoms: _19  and  _21
REMARK    3  A    between atoms: _22  and  _66
REMARK    4  A    between atoms: _27  and  _30
REMARK    5  A    between atoms: _32  and  _33
REMARK    6  A    between atoms: _38  and  _43
REMARK    7  A    between atoms: _43  and  _46
REMARK    8  A    between atoms: _53  and  _55
REMARK                            x       y       z     vdW  Elec       q    Type
REMARK                         _______ _______ _______ _____ _____    ______ ____
ROOT
ATOM     10  C   UNL     1      38.014  33.078 146.870  0.00  0.00    +0.038 A 
ATOM     11  C   UNL     1      39.208  33.691 147.328  0.00  0.00    +0.047 A 
ATOM     12  C   UNL     1      40.474  32.976 147.314  0.00  0.00    +0.035 A 
ATOM     32  C   UNL     1      40.489  31.638 146.823  0.00  0.00    +0.024 A 
ATOM     33  C   UNL     1      39.285  30.999 146.354  0.00  0.00    +0.007 A 
ATOM     34  C   UNL     1      38.032  31.698 146.368  0.00  0.00    -0.029 A 
ATOM     35  C   UNL     1      36.771  30.962 145.859  0.00  0.00    +0.045 C 
ENDROOT
BRANCH  10   9
ATOM      4  C   UNL     1      34.456  35.480 144.723  0.00  0.00    +0.077 A 
ATOM      5  C   UNL     1      35.026  35.280 143.422  0.00  0.00    +0.048 A 
ATOM      6  C   UNL     1      36.240  34.560 143.349  0.00  0.00    +0.116 A 
ATOM      7  N   UNL     1      36.830  34.080 144.498  0.00  0.00    -0.223 NA
ATOM      8  C   UNL     1      36.254  34.291 145.738  0.00  0.00    +0.220 A 
ATOM      9  N   UNL     1      36.825  33.811 146.906  0.00  0.00    -0.283 N 
ATOM     36  H   UNL     1      36.373  33.994 147.801  0.00  0.00    +0.155 HD
ATOM     37  N   UNL     1      35.096  34.977 145.834  0.00  0.00    -0.214 NA
BRANCH   4   3
ATOM      1  C   UNL     1      30.667  36.448 144.821  0.00  0.00    +0.020 A 
ATOM      2  C   UNL     1      31.874  35.696 144.565  0.00  0.00    +0.013 A 
ATOM      3  C   UNL     1      33.175  36.217 144.963  0.00  0.00    +0.019 A 
ATOM     38  C   UNL     1      33.221  37.513 145.624  0.00  0.00    +0.120 A 
ATOM     39  N   UNL     1      32.043  38.216 145.855  0.00  0.00    -0.263 NA
ATOM     40  C   UNL     1      30.785  37.724 145.475  0.00  0.00    +0.111 A 
ENDBRANCH   4   3
ENDBRANCH  10   9
BRANCH  12  13
ATOM     13  N   UNL     1      41.717  33.544 147.775  0.00  0.00    -0.281 N 
ATOM     14  C   UNL     1      42.693  32.940 148.551  0.00  0.00    +0.248 C 
ATOM     30  O   UNL     1      42.546  31.885 149.149  0.00  0.00    -0.270 OA
ATOM     31  H   UNL     1      41.899  34.507 147.495  0.00  0.00    +0.155 HD
BRANCH  14  15
ATOM     15  C   UNL     1      44.019  33.614 148.696  0.00  0.00    +0.037 A 
ATOM     16  C   UNL     1      44.703  34.201 147.541  0.00  0.00    +0.013 A 
ATOM     17  C   UNL     1      45.990  34.830 147.706  0.00  0.00    +0.005 A 
ATOM     18  C   UNL     1      46.600  34.877 149.033  0.00  0.00    -0.033 A 
ATOM     28  C   UNL     1      45.896  34.292 150.162  0.00  0.00    +0.005 A 
ATOM     29  C   UNL     1      44.636  33.673 150.004  0.00  0.00    +0.013 A 
BRANCH  18  19
ATOM     19  C   UNL     1      47.979  35.509 149.297  0.00  0.00    +0.119 C 
BRANCH  19  20
ATOM     20  N   UNL     1      48.113  36.979 149.067  0.00  0.00    -0.302 NA
ATOM     21  C   UNL     1      46.867  37.747 149.515  0.00  0.00    +0.066 C 
ATOM     22  C   UNL     1      47.033  39.285 149.288  0.00  0.00    -0.064 C 
ATOM     23  N   UNL     1      47.330  39.549 147.811  0.00  0.00    +0.379 N 
ATOM     24  C   UNL     1      47.429  40.998 147.582  0.00  0.00    -0.096 C 
ATOM     25  H   UNL     1      46.463  39.172 147.219  0.00  0.00    -0.082 HD
ATOM     26  C   UNL     1      48.566  38.787 147.355  0.00  0.00    -0.064 C 
ATOM     27  C   UNL     1      48.402  37.263 147.613  0.00  0.00    +0.066 C 
ENDBRANCH  19  20
ENDBRANCH  18  19
ENDBRANCH  14  15
ENDBRANCH  12  13
TORSDOF 6
ENDMDL
MODEL 2
REMARK VINA RESULT:     -10.1      1.958      3.006
REMARK  Name = C:\Users\Docking\Desktop\test protocol\1iep_ligandH.pdb
REMARK  8 active torsions:
REMARK  status: ('A' for Active; 'I' for Inactive)
REMARK    1  A    between atoms: _5  and  _11
REMARK    2  A    between atoms: _19  and  _21
REMARK    3  A    between atoms: _22  and  _66
REMARK    4  A    between atoms: _27  and  _30
REMARK    5  A    between atoms: _32  and  _33
REMARK    6  A    between atoms: _38  and  _43
REMARK    7  A    between atoms: _43  and  _46
REMARK    8  A    between atoms: _53  and  _55
REMARK                            x       y       z     vdW  Elec       q    Type
REMARK                         _______ _______ _______ _____ _____    ______ ____
ROOT
ATOM     10  C   UNL     1      37.328  33.574 144.358  0.00  0.00    +0.038 A 
ATOM     11  C   UNL     1      38.442  33.689 145.228  0.00  0.00    +0.047 A 
ATOM     12  C   UNL     1      39.396  32.601 145.377  0.00  0.00    +0.035 A 
ATOM     32  C   UNL     1      39.185  31.410 144.623  0.00  0.00    +0.024 A 
ATOM     33  C   UNL     1      38.057  31.276 143.735  0.00  0.00    +0.007 A 
ATOM     34  C   UNL     1      37.112  32.345 143.586  0.00  0.00    -0.029 A 
ATOM     35  C   UNL     1      35.917  32.143 142.624  0.00  0.00    +0.045 C 
ENDROOT
BRANCH  10   9
ATOM      4  C   UNL     1      33.719  36.265 146.023  0.00  0.00    +0.077 A 
ATOM      5  C   UNL     1      33.563  35.441 147.187  0.00  0.00    +0.048 A 
ATOM      6  C   UNL     1      34.427  34.331 147.316  0.00  0.00    +0.116 A 
ATOM      7  N   UNL     1      35.373  34.073 146.348  0.00  0.00    -0.223 NA
ATOM      8  C   UNL     1      35.495  34.886 145.236  0.00  0.00    +0.220 A 
ATOM      9  N   UNL     1      36.444  34.651 144.253  0.00  0.00    -0.283 N 
ATOM     36  H   UNL     1      36.497  35.270 143.445  0.00  0.00    +0.155 HD
ATOM     37  N   UNL     1      34.681  35.952 145.089  0.00  0.00    -0.214 NA
BRANCH   4   3
ATOM      1  C   UNL     1      32.499  39.969 145.720  0.00  0.00    +0.020 A 
ATOM      2  C   UNL     1      33.345  38.834 146.006  0.00  0.00    +0.013 A 
ATOM      3  C   UNL     1      32.883  37.476 145.746  0.00  0.00    +0.019 A 
ATOM     38  C   UNL     1      31.549  37.300 145.192  0.00  0.00    +0.120 A 
ATOM     39  N   UNL     1      30.756  38.413 144.928  0.00  0.00    -0.263 NA
ATOM     40  C   UNL     1      31.189  39.724 145.176  0.00  0.00    +0.111 A 
ENDBRANCH   4   3
ENDBRANCH  10   9
BRANCH  12  13
ATOM     13  N   UNL     1      40.541  32.657 146.251  0.00  0.00    -0.281 N 
ATOM     14  C   UNL     1      41.865  32.878 145.907  0.00  0.00    +0.248 C 
ATOM     30  O   UNL     1      42.296  32.848 144.763  0.00  0.00    -0.270 OA
ATOM     31  H   UNL     1      40.354  32.517 147.244  0.00  0.00    +0.155 HD
BRANCH  14  15
ATOM     15  C   UNL     1      42.856  33.157 146.990  0.00  0.00    +0.037 A 
ATOM     16  C   UNL     1      42.488  33.043 148.404  0.00  0.00    +0.013 A 
ATOM     17  C   UNL     1      43.459  33.336 149.429  0.00  0.00    +0.005 A 
ATOM     18  C   UNL     1      44.807  33.744 149.043  0.00  0.00    -0.033 A 
ATOM     28  C   UNL     1      45.146  33.844 147.633  0.00  0.00    +0.005 A 
ATOM     29  C   UNL     1      44.198  33.559 146.626  0.00  0.00    +0.013 A 
BRANCH  18  19
ATOM     19  C   UNL     1      45.901  34.095 150.070  0.00  0.00    +0.119 C 
BRANCH  19  20
ATOM     20  N   UNL     1      46.972  35.038 149.631  0.00  0.00    -0.302 NA
ATOM     21  C   UNL     1      48.373  34.497 149.933  0.00  0.00    +0.066 C 
ATOM     22  C   UNL     1      49.482  35.486 149.448  0.00  0.00    -0.064 C 
ATOM     23  N   UNL     1      49.273  36.848 150.111  0.00  0.00    +0.379 N 
ATOM     24  C   UNL     1      50.348  37.764 149.702  0.00  0.00    -0.096 C 
ATOM     25  H   UNL     1      49.353  36.703 151.214  0.00  0.00    -0.082 HD
ATOM     26  C   UNL     1      47.882  37.392 149.818  0.00  0.00    -0.064 C 
ATOM     27  C   UNL     1      46.788  36.389 150.278  0.00  0.00    +0.066 C 
ENDBRANCH  19  20
ENDBRANCH  18  19
ENDBRANCH  14  15
ENDBRANCH  12  13
TORSDOF 6
ENDMDL
MODEL 3
REMARK VINA RESULT:     -10.0      1.881     11.969
REMARK  Name = C:\Users\Docking\Desktop\test protocol\1iep_ligandH.pdb
REMARK  8 active torsions:
REMARK  status: ('A' for Active; 'I' for Inactive)
REMARK    1  A    between atoms: _5  and  _11
REMARK    2  A    between atoms: _19  and  _21
REMARK    3  A    between atoms: _22  and  _66
REMARK    4  A    between atoms: _27  and  _30
REMARK    5  A    between atoms: _32  and  _33
REMARK    6  A    between atoms: _38  and  _43
REMARK    7  A    between atoms: _43  and  _46
REMARK    8  A    between atoms: _53  and  _55
REMARK                            x       y       z     vdW  Elec       q    Type
REMARK                         _______ _______ _______ _____ _____    ______ ____
ROOT
ATOM     10  C   UNL     1      42.571  32.211 146.325  0.00  0.00    +0.038 A 
ATOM     11  C   UNL     1      41.230  32.662 146.227  0.00  0.00    +0.047 A 
ATOM     12  C   UNL     1      40.130  31.723 146.070  0.00  0.00    +0.035 A 
ATOM     32  C   UNL     1      40.432  30.331 146.018  0.00  0.00    +0.024 A 
ATOM     33  C   UNL     1      41.789  29.855 146.115  0.00  0.00    +0.007 A 
ATOM     34  C   UNL     1      42.879  30.777 146.268  0.00  0.00    -0.029 A 
ATOM     35  C   UNL     1      44.315  30.211 146.360  0.00  0.00    +0.045 C 
ENDROOT
BRANCH  10   9
ATOM      4  C   UNL     1      45.649  34.724 149.017  0.00  0.00    +0.077 A 
ATOM      5  C   UNL     1      45.172  34.123 150.229  0.00  0.00    +0.048 A 
ATOM      6  C   UNL     1      44.129  33.177 150.117  0.00  0.00    +0.116 A 
ATOM      7  N   UNL     1      43.609  32.863 148.880  0.00  0.00    -0.223 NA
ATOM      8  C   UNL     1      44.091  33.463 147.731  0.00  0.00    +0.220 A 
ATOM      9  N   UNL     1      43.588  33.156 146.475  0.00  0.00    -0.283 N 
ATOM     36  H   UNL     1      43.965  33.626 145.653  0.00  0.00    +0.155 HD
ATOM     37  N   UNL     1      45.086  34.370 147.811  0.00  0.00    -0.214 NA
BRANCH   4   3
ATOM      1  C   UNL     1      48.081  37.639 149.961  0.00  0.00    +0.020 A 
ATOM      2  C   UNL     1      47.005  36.679 150.055  0.00  0.00    +0.013 A 
ATOM      3  C   UNL     1      46.749  35.739 148.971  0.00  0.00    +0.019 A 
ATOM     38  C   UNL     1      47.607  35.796 147.797  0.00  0.00    +0.120 A 
ATOM     39  N   UNL     1      48.634  36.732 147.734  0.00  0.00    -0.263 NA
ATOM     40  C   UNL     1      48.889  37.643 148.770  0.00  0.00    +0.111 A 
ENDBRANCH   4   3
ENDBRANCH  10   9
BRANCH  12  13
ATOM     13  N   UNL     1      38.749  32.123 145.957  0.00  0.00    -0.281 N 
ATOM     14  C   UNL     1      38.089  33.116 146.663  0.00  0.00    +0.248 C 
ATOM     30  O   UNL     1      38.536  33.671 147.656  0.00  0.00    -0.270 OA
ATOM     31  H   UNL     1      38.190  31.612 145.274  0.00  0.00    +0.155 HD
BRANCH  14  15
ATOM     15  C   UNL     1      36.731  33.544 146.209  0.00  0.00    +0.037 A 
ATOM     16  C   UNL     1      36.558  34.397 145.030  0.00  0.00    +0.013 A 
ATOM     17  C   UNL     1      35.238  34.809 144.624  0.00  0.00    +0.005 A 
ATOM     18  C   UNL     1      34.080  34.367 145.397  0.00  0.00    -0.033 A 
ATOM     28  C   UNL     1      34.280  33.517 146.559  0.00  0.00    +0.005 A 
ATOM     29  C   UNL     1      35.572  33.112 146.961  0.00  0.00    +0.013 A 
BRANCH  18  19
ATOM     19  C   UNL     1      32.636  34.776 145.048  0.00  0.00    +0.119 C 
BRANCH  19  20
ATOM     20  N   UNL     1      32.346  36.237 144.943  0.00  0.00    -0.302 NA
ATOM     21  C   UNL     1      32.965  37.031 146.097  0.00  0.00    +0.066 C 
ATOM     22  C   UNL     1      32.671  38.560 145.958  0.00  0.00    -0.064 C 
ATOM     23  N   UNL     1      31.159  38.782 145.899  0.00  0.00    +0.379 N 
ATOM     24  C   UNL     1      30.877  40.223 145.827  0.00  0.00    -0.096 C 
ATOM     25  H   UNL     1      30.723  38.399 146.851  0.00  0.00    -0.082 HD
ATOM     26  C   UNL     1      30.534  37.994 144.756  0.00  0.00    -0.064 C 
ATOM     27  C   UNL     1      30.858  36.480 144.887  0.00  0.00    +0.066 C 
ENDBRANCH  19  20
ENDBRANCH  18  19
ENDBRANCH  14  15
ENDBRANCH  12  13
TORSDOF 6
ENDMDL
MODEL 4
REMARK VINA RESULT:      -9.9      1.681      2.369
REMARK  Name = C:\Users\Docking\Desktop\test protocol\1iep_ligandH.pdb
REMARK  8 active torsions:
REMARK  status: ('A' for Active; 'I' for Inactive)
REMARK    1  A    between atoms: _5  and  _11
REMARK    2  A    between atoms: _19  and  _21
REMARK    3  A    between atoms: _22  and  _66
REMARK    4  A    between atoms: _27  and  _30
REMARK    5  A    between atoms: _32  and  _33
REMARK    6  A    between atoms: _38  and  _43
REMARK    7  A    between atoms: _43  and  _46
REMARK    8  A    between atoms: _53  and  _55
REMARK                            x       y       z     vdW  Elec       q    Type
REMARK                         _______ _______ _______ _____ _____    ______ ____
ROOT
ATOM     10  C   UNL     1      38.597  32.781 144.646  0.00  0.00    +0.038 A 
ATOM     11  C   UNL     1      39.544  33.383 145.512  0.00  0.00    +0.047 A 
ATOM     12  C   UNL     1      40.766  32.690 145.890  0.00  0.00    +0.035 A 
ATOM     32  C   UNL     1      40.992  31.385 145.365  0.00  0.00    +0.024 A 
ATOM     33  C   UNL     1      40.039  30.757 144.484  0.00  0.00    +0.007 A 
ATOM     34  C   UNL     1      38.831  31.435 144.109  0.00  0.00    -0.029 A 
ATOM     35  C   UNL     1      37.842  30.711 143.167  0.00  0.00    +0.045 C 
ENDROOT
BRANCH  10   9
ATOM      4  C   UNL     1      34.110  34.222 145.556  0.00  0.00    +0.077 A 
ATOM      5  C   UNL     1      34.055  33.474 146.778  0.00  0.00    +0.048 A 
ATOM      6  C   UNL     1      35.199  32.726 147.134  0.00  0.00    +0.116 A 
ATOM      7  N   UNL     1      36.311  32.733 146.319  0.00  0.00    -0.223 NA
ATOM      8  C   UNL     1      36.331  33.464 145.146  0.00  0.00    +0.220 A 
ATOM      9  N   UNL     1      37.441  33.492 144.316  0.00  0.00    -0.283 N 
ATOM     36  H   UNL     1      37.413  34.038 143.455  0.00  0.00    +0.155 HD
ATOM     37  N   UNL     1      35.250  34.186 144.784  0.00  0.00    -0.214 NA
BRANCH   4   3
ATOM      1  C   UNL     1      31.635  37.197 144.983  0.00  0.00    +0.020 A 
ATOM      2  C   UNL     1      32.739  36.426 145.507  0.00  0.00    +0.013 A 
ATOM      3  C   UNL     1      32.982  35.065 145.046  0.00  0.00    +0.019 A 
ATOM     38  C   UNL     1      32.083  34.509 144.046  0.00  0.00    +0.120 A 
ATOM     39  N   UNL     1      31.028  35.275 143.560  0.00  0.00    -0.263 NA
ATOM     40  C   UNL     1      30.783  36.585 143.997  0.00  0.00    +0.111 A 
ENDBRANCH   4   3
ENDBRANCH  10   9
BRANCH  12  13
ATOM     13  N   UNL     1      41.761  33.249 146.773  0.00  0.00    -0.281 N 
ATOM     14  C   UNL     1      42.389  32.635 147.844  0.00  0.00    +0.248 C 
ATOM     30  O   UNL     1      42.033  31.577 148.341  0.00  0.00    -0.270 OA
ATOM     31  H   UNL     1      42.035  34.213 146.584  0.00  0.00    +0.155 HD
BRANCH  14  15
ATOM     15  C   UNL     1      43.575  33.301 148.463  0.00  0.00    +0.037 A 
ATOM     16  C   UNL     1      43.968  33.021 149.846  0.00  0.00    +0.013 A 
ATOM     17  C   UNL     1      45.107  33.689 150.424  0.00  0.00    +0.005 A 
ATOM     18  C   UNL     1      45.862  34.645 149.617  0.00  0.00    -0.033 A 
ATOM     28  C   UNL     1      45.453  34.900 148.246  0.00  0.00    +0.005 A 
ATOM     29  C   UNL     1      44.337  34.247 147.677  0.00  0.00    +0.013 A 
BRANCH  18  19
ATOM     19  C   UNL     1      47.078  35.420 150.159  0.00  0.00    +0.119 C 
BRANCH  19  20
ATOM     20  N   UNL     1      47.010  36.911 150.120  0.00  0.00    -0.302 NA
ATOM     21  C   UNL     1      47.945  37.502 149.061  0.00  0.00    +0.066 C 
ATOM     22  C   UNL     1      47.845  39.061 149.018  0.00  0.00    -0.064 C 
ATOM     23  N   UNL     1      48.168  39.628 150.402  0.00  0.00    +0.379 N 
ATOM     24  C   UNL     1      48.131  41.097 150.351  0.00  0.00    -0.096 C 
ATOM     25  H   UNL     1      49.210  39.324 150.657  0.00  0.00    -0.082 HD
ATOM     26  C   UNL     1      47.245  39.044 151.462  0.00  0.00    -0.064 C 
ATOM     27  C   UNL     1      47.330  37.492 151.475  0.00  0.00    +0.066 C 
ENDBRANCH  19  20
ENDBRANCH  18  19
ENDBRANCH  14  15
ENDBRANCH  12  13
TORSDOF 6
ENDMDL
MODEL 5
REMARK VINA RESULT:      -9.9      4.631     11.706
REMARK  Name = C:\Users\Docking\Desktop\test protocol\1iep_ligandH.pdb
REMARK  8 active torsions:
REMARK  status: ('A' for Active; 'I' for Inactive)
REMARK    1  A    between atoms: _5  and  _11
REMARK    2  A    between atoms: _19  and  _21
REMARK    3  A    between atoms: _22  and  _66
REMARK    4  A    between atoms: _27  and  _30
REMARK    5  A    between atoms: _32  and  _33
REMARK    6  A    between atoms: _38  and  _43
REMARK    7  A    between atoms: _43  and  _46
REMARK    8  A    between atoms: _53  and  _55
REMARK                            x       y       z     vdW  Elec       q    Type
REMARK                         _______ _______ _______ _____ _____    ______ ____
ROOT
ATOM     10  C   UNL     1      41.088  30.741 147.563  0.00  0.00    +0.038 A 
ATOM     11  C   UNL     1      39.909  31.359 147.075  0.00  0.00    +0.047 A 
ATOM     12  C   UNL     1      39.895  32.765 146.704  0.00  0.00    +0.035 A 
ATOM     32  C   UNL     1      41.101  33.512 146.840  0.00  0.00    +0.024 A 
ATOM     33  C   UNL     1      42.309  32.900 147.336  0.00  0.00    +0.007 A 
ATOM     34  C   UNL     1      42.328  31.514 147.706  0.00  0.00    -0.029 A 
ATOM     35  C   UNL     1      43.650  30.912 148.237  0.00  0.00    +0.045 C 
ENDROOT
BRANCH  10   9
ATOM      4  C   UNL     1      41.142  26.081 146.412  0.00  0.00    +0.077 A 
ATOM      5  C   UNL     1      41.237  26.368 145.009  0.00  0.00    +0.048 A 
ATOM      6  C   UNL     1      41.262  27.728 144.626  0.00  0.00    +0.116 A 
ATOM      7  N   UNL     1      41.197  28.718 145.581  0.00  0.00    -0.223 NA
ATOM      8  C   UNL     1      41.104  28.407 146.926  0.00  0.00    +0.220 A 
ATOM      9  N   UNL     1      41.045  29.387 147.905  0.00  0.00    -0.283 N 
ATOM     36  H   UNL     1      40.970  29.117 148.885  0.00  0.00    +0.155 HD
ATOM     37  N   UNL     1      41.077  27.116 147.318  0.00  0.00    -0.214 NA
BRANCH   4   3
ATOM      1  C   UNL     1      40.119  22.382 147.164  0.00  0.00    +0.020 A 
ATOM      2  C   UNL     1      40.106  23.708 146.591  0.00  0.00    +0.013 A 
ATOM      3  C   UNL     1      41.109  24.694 146.974  0.00  0.00    +0.019 A 
ATOM     38  C   UNL     1      42.118  24.303 147.947  0.00  0.00    +0.120 A 
ATOM     39  N   UNL     1      42.104  23.019 148.483  0.00  0.00    -0.263 NA
ATOM     40  C   UNL     1      41.143  22.063 148.123  0.00  0.00    +0.111 A 
ENDBRANCH   4   3
ENDBRANCH  10   9
BRANCH  12  13
ATOM     13  N   UNL     1      38.725  33.449 146.210  0.00  0.00    -0.281 N 
ATOM     14  C   UNL     1      37.993  33.168 145.068  0.00  0.00    +0.248 C 
ATOM     30  O   UNL     1      38.361  32.415 144.179  0.00  0.00    -0.270 OA
ATOM     31  H   UNL     1      38.397  34.236 146.771  0.00  0.00    +0.155 HD
BRANCH  14  15
ATOM     15  C   UNL     1      36.667  33.831 144.880  0.00  0.00    +0.037 A 
ATOM     16  C   UNL     1      36.266  34.372 143.578  0.00  0.00    +0.013 A 
ATOM     17  C   UNL     1      34.988  35.022 143.428  0.00  0.00    +0.005 A 
ATOM     18  C   UNL     1      34.101  35.133 144.583  0.00  0.00    -0.033 A 
ATOM     28  C   UNL     1      34.522  34.583 145.861  0.00  0.00    +0.005 A 
ATOM     29  C   UNL     1      35.774  33.947 146.013  0.00  0.00    +0.013 A 
BRANCH  18  19
ATOM     19  C   UNL     1      32.728  35.829 144.519  0.00  0.00    +0.119 C 
BRANCH  19  20
ATOM     20  N   UNL     1      32.693  37.297 144.791  0.00  0.00    -0.302 NA
ATOM     21  C   UNL     1      33.911  37.762 145.593  0.00  0.00    +0.066 C 
ATOM     22  C   UNL     1      33.869  39.304 145.850  0.00  0.00    -0.064 C 
ATOM     23  N   UNL     1      32.573  39.662 146.578  0.00  0.00    +0.379 N 
ATOM     24  C   UNL     1      32.556  41.102 146.872  0.00  0.00    -0.096 C 
ATOM     25  H   UNL     1      32.571  39.118 147.551  0.00  0.00    -0.082 HD
ATOM     26  C   UNL     1      31.356  39.200 145.789  0.00  0.00    -0.064 C 
ATOM     27  C   UNL     1      31.422  37.672 145.514  0.00  0.00    +0.066 C 
ENDBRANCH  19  20
ENDBRANCH  18  19
ENDBRANCH  14  15
ENDBRANCH  12  13
TORSDOF 6
ENDMDL
