MODEL 1
REMARK VINA RESULT:      -7.7      0.000      0.000
REMARK  Name = C:\Users\Docking\Desktop\test protocol\1iep_ligandH.pdb
REMARK  8 active torsions:
REMARK  status: ('A' for Active; 'I' for Inactive)
REMARK    1  A    between atoms: _5  and  _11
REMARK    2  A    between atoms: _19  and  _21
REMARK    3  A    between atoms: _22  and  _66
REMARK    4  A    between atoms: _27  and  _30
REMARK    5  A    between atoms: _32  and  _33
REMARK    6  A    between atoms: _38  and  _43
REMARK    7  A    between atoms: _43  and  _46
REMARK    8  A    between atoms: _53  and  _55
REMARK                            x       y       z     vdW  Elec       q    Type
REMARK                         _______ _______ _______ _____ _____    ______ ____
ROOT
ATOM     10  C   UNL     1       0.794  40.731   7.778  0.00  0.00    +0.038 A 
ATOM     11  C   UNL     1       1.923  41.588   7.796  0.00  0.00    +0.047 A 
ATOM     12  C   UNL     1       1.776  43.029   7.662  0.00  0.00    +0.035 A 
ATOM     32  C   UNL     1       0.462  43.563   7.515  0.00  0.00    +0.024 A 
ATOM     33  C   UNL     1      -0.697  42.706   7.494  0.00  0.00    +0.007 A 
ATOM     34  C   UNL     1      -0.557  41.283   7.623  0.00  0.00    -0.029 A 
ATOM     35  C   UNL     1      -1.834  40.412   7.587  0.00  0.00    +0.045 C 
ENDROOT
BRANCH  10   9
ATOM      4  C   UNL     1       2.786  36.590   6.390  0.00  0.00    +0.077 A 
ATOM      5  C   UNL     1       3.466  37.217   5.293  0.00  0.00    +0.048 A 
ATOM      6  C   UNL     1       3.270  38.605   5.116  0.00  0.00    +0.116 A 
ATOM      7  N   UNL     1       2.454  39.304   5.979  0.00  0.00    -0.223 NA
ATOM      8  C   UNL     1       1.813  38.669   7.026  0.00  0.00    +0.220 A 
ATOM      9  N   UNL     1       0.994  39.355   7.910  0.00  0.00    -0.283 N 
ATOM     36  H   UNL     1       0.532  38.848   8.666  0.00  0.00    +0.155 HD
ATOM     37  N   UNL     1       1.982  37.344   7.215  0.00  0.00    -0.214 NA
BRANCH   4   3
ATOM      1  C   UNL     1       1.894  32.879   7.245  0.00  0.00    +0.020 A 
ATOM      2  C   UNL     1       1.734  34.282   6.940  0.00  0.00    +0.013 A 
ATOM      3  C   UNL     1       2.895  35.132   6.710  0.00  0.00    +0.019 A 
ATOM     38  C   UNL     1       4.215  34.525   6.795  0.00  0.00    +0.120 A 
ATOM     39  N   UNL     1       4.339  33.171   7.092  0.00  0.00    -0.263 NA
ATOM     40  C   UNL     1       3.228  32.345   7.317  0.00  0.00    +0.111 A 
ENDBRANCH   4   3
ENDBRANCH  10   9
BRANCH  12  13
ATOM     13  N   UNL     1       2.886  43.949   7.665  0.00  0.00    -0.281 N 
ATOM     14  C   UNL     1       3.414  44.644   8.741  0.00  0.00    +0.248 C 
ATOM     30  O   UNL     1       2.873  44.743   9.832  0.00  0.00    -0.270 OA
ATOM     31  H   UNL     1       3.338  44.108   6.764  0.00  0.00    +0.155 HD
BRANCH  14  15
ATOM     15  C   UNL     1       4.726  45.342   8.577  0.00  0.00    +0.037 A 
ATOM     16  C   UNL     1       5.855  45.056   9.466  0.00  0.00    +0.013 A 
ATOM     17  C   UNL     1       7.104  45.755   9.296  0.00  0.00    +0.005 A 
ATOM     18  C   UNL     1       7.230  46.747   8.231  0.00  0.00    -0.033 A 
ATOM     28  C   UNL     1       6.096  47.007   7.360  0.00  0.00    +0.005 A 
ATOM     29  C   UNL     1       4.870  46.324   7.524  0.00  0.00    +0.013 A 
BRANCH  18  19
ATOM     19  C   UNL     1       8.518  47.556   7.990  0.00  0.00    +0.119 C 
BRANCH  19  20
ATOM     20  N   UNL     1       8.504  48.997   8.381  0.00  0.00    -0.302 NA
ATOM     21  C   UNL     1       8.340  49.919   7.169  0.00  0.00    +0.066 C 
ATOM     22  C   UNL     1       8.304  51.422   7.598  0.00  0.00    -0.064 C 
ATOM     23  N   UNL     1       9.582  51.761   8.367  0.00  0.00    +0.379 N 
ATOM     24  C   UNL     1       9.577  53.188   8.721  0.00  0.00    -0.096 C 
ATOM     25  H   UNL     1      10.444  51.585   7.683  0.00  0.00    -0.082 HD
ATOM     26  C   UNL     1       9.754  50.847   9.572  0.00  0.00    -0.064 C 
ATOM     27  C   UNL     1       9.759  49.355   9.138  0.00  0.00    +0.066 C 
ENDBRANCH  19  20
ENDBRANCH  18  19
ENDBRANCH  14  15
ENDBRANCH  12  13
TORSDOF 6
ENDMDL
MODEL 2
REMARK VINA RESULT:      -7.6      3.006     13.832
REMARK  Name = C:\Users\Docking\Desktop\test protocol\1iep_ligandH.pdb
REMARK  8 active torsions:
REMARK  status: ('A' for Active; 'I' for Inactive)
REMARK    1  A    between atoms: _5  and  _11
REMARK    2  A    between atoms: _19  and  _21
REMARK    3  A    between atoms: _22  and  _66
REMARK    4  A    between atoms: _27  and  _30
REMARK    5  A    between atoms: _32  and  _33
REMARK    6  A    between atoms: _38  and  _43
REMARK    7  A    between atoms: _43  and  _46
REMARK    8  A    between atoms: _53  and  _55
REMARK                            x       y       z     vdW  Elec       q    Type
REMARK                         _______ _______ _______ _____ _____    ______ ____
ROOT
ATOM     10  C   UNL     1       6.223  47.913   7.398  0.00  0.00    +0.038 A 
ATOM     11  C   UNL     1       5.121  47.023   7.331  0.00  0.00    +0.047 A 
ATOM     12  C   UNL     1       5.230  45.653   7.808  0.00  0.00    +0.035 A 
ATOM     32  C   UNL     1       6.476  45.225   8.351  0.00  0.00    +0.024 A 
ATOM     33  C   UNL     1       7.607  46.116   8.426  0.00  0.00    +0.007 A 
ATOM     34  C   UNL     1       7.506  47.467   7.954  0.00  0.00    -0.029 A 
ATOM     35  C   UNL     1       8.752  48.377   8.054  0.00  0.00    +0.045 C 
ENDROOT
BRANCH  10   9
ATOM      4  C   UNL     1       5.116  52.540   8.034  0.00  0.00    +0.077 A 
ATOM      5  C   UNL     1       4.805  52.337   9.420  0.00  0.00    +0.048 A 
ATOM      6  C   UNL     1       4.936  51.025   9.928  0.00  0.00    +0.116 A 
ATOM      7  N   UNL     1       5.348  50.001   9.103  0.00  0.00    -0.223 NA
ATOM      8  C   UNL     1       5.638  50.231   7.771  0.00  0.00    +0.220 A 
ATOM      9  N   UNL     1       6.062  49.218   6.925  0.00  0.00    -0.283 N 
ATOM     36  H   UNL     1       6.259  49.427   5.947  0.00  0.00    +0.155 HD
ATOM     37  N   UNL     1       5.520  51.475   7.261  0.00  0.00    -0.214 NA
BRANCH   4   3
ATOM      1  C   UNL     1       5.879  56.195   6.868  0.00  0.00    +0.020 A 
ATOM      2  C   UNL     1       6.009  54.929   7.552  0.00  0.00    +0.013 A 
ATOM      3  C   UNL     1       5.029  53.870   7.351  0.00  0.00    +0.019 A 
ATOM     38  C   UNL     1       3.921  54.125   6.443  0.00  0.00    +0.120 A 
ATOM     39  N   UNL     1       3.821  55.354   5.799  0.00  0.00    -0.263 NA
ATOM     40  C   UNL     1       4.757  56.382   5.986  0.00  0.00    +0.111 A 
ENDBRANCH   4   3
ENDBRANCH  10   9
BRANCH  12  13
ATOM     13  N   UNL     1       4.148  44.702   7.758  0.00  0.00    -0.281 N 
ATOM     14  C   UNL     1       2.891  44.810   8.332  0.00  0.00    +0.248 C 
ATOM     30  O   UNL     1       2.580  45.653   9.160  0.00  0.00    -0.270 OA
ATOM     31  H   UNL     1       4.330  43.845   7.236  0.00  0.00    +0.155 HD
BRANCH  14  15
ATOM     15  C   UNL     1       1.832  43.831   7.941  0.00  0.00    +0.037 A 
ATOM     16  C   UNL     1       0.416  44.207   7.930  0.00  0.00    +0.013 A 
ATOM     17  C   UNL     1      -0.587  43.238   7.565  0.00  0.00    +0.005 A 
ATOM     18  C   UNL     1      -0.176  41.883   7.205  0.00  0.00    -0.033 A 
ATOM     28  C   UNL     1       1.236  41.538   7.219  0.00  0.00    +0.005 A 
ATOM     29  C   UNL     1       2.222  42.485   7.577  0.00  0.00    +0.013 A 
BRANCH  18  19
ATOM     19  C   UNL     1      -1.179  40.779   6.822  0.00  0.00    +0.119 C 
BRANCH  19  20
ATOM     20  N   UNL     1      -0.673  39.374   6.795  0.00  0.00    -0.302 NA
ATOM     21  C   UNL     1      -0.500  38.854   5.365  0.00  0.00    +0.066 C 
ATOM     22  C   UNL     1       0.052  37.391   5.355  0.00  0.00    -0.064 C 
ATOM     23  N   UNL     1      -0.892  36.487   6.150  0.00  0.00    +0.379 N 
ATOM     24  C   UNL     1      -0.406  35.100   6.094  0.00  0.00    -0.096 C 
ATOM     25  H   UNL     1      -1.889  36.517   5.652  0.00  0.00    -0.082 HD
ATOM     26  C   UNL     1      -1.071  36.999   7.572  0.00  0.00    -0.064 C 
ATOM     27  C   UNL     1      -1.592  38.463   7.571  0.00  0.00    +0.066 C 
ENDBRANCH  19  20
ENDBRANCH  18  19
ENDBRANCH  14  15
ENDBRANCH  12  13
TORSDOF 6
ENDMDL
MODEL 3
REMARK VINA RESULT:      -7.6      1.988      2.390
REMARK  Name = C:\Users\Docking\Desktop\test protocol\1iep_ligandH.pdb
REMARK  8 active torsions:
REMARK  status: ('A' for Active; 'I' for Inactive)
REMARK    1  A    between atoms: _5  and  _11
REMARK    2  A    between atoms: _19  and  _21
REMARK    3  A    between atoms: _22  and  _66
REMARK    4  A    between atoms: _27  and  _30
REMARK    5  A    between atoms: _32  and  _33
REMARK    6  A    between atoms: _38  and  _43
REMARK    7  A    between atoms: _43  and  _46
REMARK    8  A    between atoms: _53  and  _55
REMARK                            x       y       z     vdW  Elec       q    Type
REMARK                         _______ _______ _______ _____ _____    ______ ____
ROOT
ATOM     10  C   UNL     1       0.973  40.164   9.467  0.00  0.00    +0.038 A 
ATOM     11  C   UNL     1       2.086  40.930   9.037  0.00  0.00    +0.047 A 
ATOM     12  C   UNL     1       2.271  42.303   9.479  0.00  0.00    +0.035 A 
ATOM     32  C   UNL     1       1.304  42.865  10.362  0.00  0.00    +0.024 A 
ATOM     33  C   UNL     1       0.165  42.101  10.809  0.00  0.00    +0.007 A 
ATOM     34  C   UNL     1      -0.024  40.747  10.374  0.00  0.00    -0.029 A 
ATOM     35  C   UNL     1      -1.267  39.978  10.879  0.00  0.00    +0.045 C 
ENDROOT
BRANCH  10   9
ATOM      4  C   UNL     1      -0.018  36.950   6.043  0.00  0.00    +0.077 A 
ATOM      5  C   UNL     1      -0.333  37.975   5.089  0.00  0.00    +0.048 A 
ATOM      6  C   UNL     1      -0.234  39.316   5.522  0.00  0.00    +0.116 A 
ATOM      7  N   UNL     1       0.152  39.600   6.814  0.00  0.00    -0.223 NA
ATOM      8  C   UNL     1       0.446  38.588   7.709  0.00  0.00    +0.220 A 
ATOM      9  N   UNL     1       0.844  38.850   9.011  0.00  0.00    -0.283 N 
ATOM     36  H   UNL     1       1.046  38.076   9.643  0.00  0.00    +0.155 HD
ATOM     37  N   UNL     1       0.358  37.299   7.321  0.00  0.00    -0.214 NA
BRANCH   4   3
ATOM      1  C   UNL     1      -1.013  33.492   4.509  0.00  0.00    +0.020 A 
ATOM      2  C   UNL     1      -1.002  34.913   4.769  0.00  0.00    +0.013 A 
ATOM      3  C   UNL     1      -0.073  35.486   5.735  0.00  0.00    +0.019 A 
ATOM     38  C   UNL     1       0.840  34.586   6.425  0.00  0.00    +0.120 A 
ATOM     39  N   UNL     1       0.805  33.222   6.155  0.00  0.00    -0.263 NA
ATOM     40  C   UNL     1      -0.086  32.659   5.229  0.00  0.00    +0.111 A 
ENDBRANCH   4   3
ENDBRANCH  10   9
BRANCH  12  13
ATOM     13  N   UNL     1       3.378  43.132   9.069  0.00  0.00    -0.281 N 
ATOM     14  C   UNL     1       3.332  44.345   8.403  0.00  0.00    +0.248 C 
ATOM     30  O   UNL     1       2.334  44.802   7.867  0.00  0.00    -0.270 OA
ATOM     31  H   UNL     1       4.308  42.781   9.298  0.00  0.00    +0.155 HD
BRANCH  14  15
ATOM     15  C   UNL     1       4.579  45.164   8.307  0.00  0.00    +0.037 A 
ATOM     16  C   UNL     1       4.707  46.241   7.322  0.00  0.00    +0.013 A 
ATOM     17  C   UNL     1       5.927  47.004   7.238  0.00  0.00    +0.005 A 
ATOM     18  C   UNL     1       7.030  46.692   8.145  0.00  0.00    -0.033 A 
ATOM     28  C   UNL     1       6.874  45.622   9.116  0.00  0.00    +0.005 A 
ATOM     29  C   UNL     1       5.680  44.871   9.200  0.00  0.00    +0.013 A 
BRANCH  18  19
ATOM     19  C   UNL     1       8.376  47.440   8.112  0.00  0.00    +0.119 C 
BRANCH  19  20
ATOM     20  N   UNL     1       8.359  48.894   8.453  0.00  0.00    -0.302 NA
ATOM     21  C   UNL     1       8.187  49.773   7.212  0.00  0.00    +0.066 C 
ATOM     22  C   UNL     1       8.149  51.290   7.589  0.00  0.00    -0.064 C 
ATOM     23  N   UNL     1       9.429  51.658   8.341  0.00  0.00    +0.379 N 
ATOM     24  C   UNL     1       9.422  53.096   8.647  0.00  0.00    -0.096 C 
ATOM     25  H   UNL     1      10.289  51.461   7.660  0.00  0.00    -0.082 HD
ATOM     26  C   UNL     1       9.609  50.786   9.576  0.00  0.00    -0.064 C 
ATOM     27  C   UNL     1       9.616  49.280   9.193  0.00  0.00    +0.066 C 
ENDBRANCH  19  20
ENDBRANCH  18  19
ENDBRANCH  14  15
ENDBRANCH  12  13
TORSDOF 6
ENDMDL
MODEL 4
REMARK VINA RESULT:      -7.6      1.827      2.732
REMARK  Name = C:\Users\Docking\Desktop\test protocol\1iep_ligandH.pdb
REMARK  8 active torsions:
REMARK  status: ('A' for Active; 'I' for Inactive)
REMARK    1  A    between atoms: _5  and  _11
REMARK    2  A    between atoms: _19  and  _21
REMARK    3  A    between atoms: _22  and  _66
REMARK    4  A    between atoms: _27  and  _30
REMARK    5  A    between atoms: _32  and  _33
REMARK    6  A    between atoms: _38  and  _43
REMARK    7  A    between atoms: _43  and  _46
REMARK    8  A    between atoms: _53  and  _55
REMARK                            x       y       z     vdW  Elec       q    Type
REMARK                         _______ _______ _______ _____ _____    ______ ____
ROOT
ATOM     10  C   UNL     1       1.141  40.560   7.758  0.00  0.00    +0.038 A 
ATOM     11  C   UNL     1       2.172  41.518   7.935  0.00  0.00    +0.047 A 
ATOM     12  C   UNL     1       1.917  42.939   7.756  0.00  0.00    +0.035 A 
ATOM     32  C   UNL     1       0.600  43.349   7.399  0.00  0.00    +0.024 A 
ATOM     33  C   UNL     1      -0.460  42.389   7.214  0.00  0.00    +0.007 A 
ATOM     34  C   UNL     1      -0.214  40.986   7.387  0.00  0.00    -0.029 A 
ATOM     35  C   UNL     1      -1.385  40.000   7.169  0.00  0.00    +0.045 C 
ENDROOT
BRANCH  10   9
ATOM      4  C   UNL     1       3.215  36.458   6.376  0.00  0.00    +0.077 A 
ATOM      5  C   UNL     1       3.720  37.050   5.171  0.00  0.00    +0.048 A 
ATOM      6  C   UNL     1       3.418  38.411   4.940  0.00  0.00    +0.116 A 
ATOM      7  N   UNL     1       2.666  39.117   5.854  0.00  0.00    -0.223 NA
ATOM      8  C   UNL     1       2.193  38.515   7.006  0.00  0.00    +0.220 A 
ATOM      9  N   UNL     1       1.442  39.208   7.942  0.00  0.00    -0.283 N 
ATOM     36  H   UNL     1       1.105  38.726   8.775  0.00  0.00    +0.155 HD
ATOM     37  N   UNL     1       2.467  37.216   7.248  0.00  0.00    -0.214 NA
BRANCH   4   3
ATOM      1  C   UNL     1       4.936  33.138   7.524  0.00  0.00    +0.020 A 
ATOM      2  C   UNL     1       4.760  34.525   7.160  0.00  0.00    +0.013 A 
ATOM      3  C   UNL     1       3.452  35.031   6.761  0.00  0.00    +0.019 A 
ATOM     38  C   UNL     1       2.334  34.100   6.742  0.00  0.00    +0.120 A 
ATOM     39  N   UNL     1       2.534  32.769   7.096  0.00  0.00    -0.263 NA
ATOM     40  C   UNL     1       3.788  32.271   7.480  0.00  0.00    +0.111 A 
ENDBRANCH   4   3
ENDBRANCH  10   9
BRANCH  12  13
ATOM     13  N   UNL     1       2.926  43.957   7.914  0.00  0.00    -0.281 N 
ATOM     14  C   UNL     1       3.177  44.741   9.029  0.00  0.00    +0.248 C 
ATOM     30  O   UNL     1       2.430  44.833   9.992  0.00  0.00    -0.270 OA
ATOM     31  H   UNL     1       3.527  44.120   7.107  0.00  0.00    +0.155 HD
BRANCH  14  15
ATOM     15  C   UNL     1       4.433  45.549   9.074  0.00  0.00    +0.037 A 
ATOM     16  C   UNL     1       5.444  45.444   8.018  0.00  0.00    +0.013 A 
ATOM     17  C   UNL     1       6.654  46.223   8.095  0.00  0.00    +0.005 A 
ATOM     18  C   UNL     1       6.860  47.116   9.233  0.00  0.00    -0.033 A 
ATOM     28  C   UNL     1       5.839  47.205  10.264  0.00  0.00    +0.005 A 
ATOM     29  C   UNL     1       4.652  46.442  10.192  0.00  0.00    +0.013 A 
BRANCH  18  19
ATOM     19  C   UNL     1       8.131  47.968   9.408  0.00  0.00    +0.119 C 
BRANCH  19  20
ATOM     20  N   UNL     1       9.361  47.271   9.888  0.00  0.00    -0.302 NA
ATOM     21  C   UNL     1       9.090  46.417  11.130  0.00  0.00    +0.066 C 
ATOM     22  C   UNL     1      10.383  45.677  11.605  0.00  0.00    -0.064 C 
ATOM     23  N   UNL     1      11.482  46.704  11.884  0.00  0.00    +0.379 N 
ATOM     24  C   UNL     1      12.680  46.016  12.386  0.00  0.00    -0.096 C 
ATOM     25  H   UNL     1      11.116  47.379  12.691  0.00  0.00    -0.082 HD
ATOM     26  C   UNL     1      11.756  47.559  10.655  0.00  0.00    -0.064 C 
ATOM     27  C   UNL     1      10.458  48.267  10.173  0.00  0.00    +0.066 C 
ENDBRANCH  19  20
ENDBRANCH  18  19
ENDBRANCH  14  15
ENDBRANCH  12  13
TORSDOF 6
ENDMDL
MODEL 5
REMARK VINA RESULT:      -7.6      3.041     12.711
REMARK  Name = C:\Users\Docking\Desktop\test protocol\1iep_ligandH.pdb
REMARK  8 active torsions:
REMARK  status: ('A' for Active; 'I' for Inactive)
REMARK    1  A    between atoms: _5  and  _11
REMARK    2  A    between atoms: _19  and  _21
REMARK    3  A    between atoms: _22  and  _66
REMARK    4  A    between atoms: _27  and  _30
REMARK    5  A    between atoms: _32  and  _33
REMARK    6  A    between atoms: _38  and  _43
REMARK    7  A    between atoms: _43  and  _46
REMARK    8  A    between atoms: _53  and  _55
REMARK                            x       y       z     vdW  Elec       q    Type
REMARK                         _______ _______ _______ _____ _____    ______ ____
ROOT
ATOM     10  C   UNL     1       1.856  44.173   9.129  0.00  0.00    +0.038 A 
ATOM     11  C   UNL     1       1.573  42.843   8.728  0.00  0.00    +0.047 A 
ATOM     12  C   UNL     1       0.350  42.518   8.010  0.00  0.00    +0.035 A 
ATOM     32  C   UNL     1      -0.561  43.573   7.714  0.00  0.00    +0.024 A 
ATOM     33  C   UNL     1      -0.289  44.931   8.115  0.00  0.00    +0.007 A 
ATOM     34  C   UNL     1       0.914  45.258   8.826  0.00  0.00    -0.029 A 
ATOM     35  C   UNL     1       1.151  46.730   9.237  0.00  0.00    +0.045 C 
ENDROOT
BRANCH  10   9
ATOM      4  C   UNL     1       6.376  45.779   9.316  0.00  0.00    +0.077 A 
ATOM      5  C   UNL     1       6.377  46.112   7.920  0.00  0.00    +0.048 A 
ATOM      6  C   UNL     1       5.198  45.847   7.188  0.00  0.00    +0.116 A 
ATOM      7  N   UNL     1       4.104  45.292   7.816  0.00  0.00    -0.223 NA
ATOM      8  C   UNL     1       4.136  44.981   9.163  0.00  0.00    +0.220 A 
ATOM      9  N   UNL     1       3.045  44.429   9.816  0.00  0.00    -0.283 N 
ATOM     36  H   UNL     1       3.111  44.207  10.809  0.00  0.00    +0.155 HD
ATOM     37  N   UNL     1       5.251  45.222   9.883  0.00  0.00    -0.214 NA
BRANCH   4   3
ATOM      1  C   UNL     1       8.777  45.684  12.402  0.00  0.00    +0.020 A 
ATOM      2  C   UNL     1       7.625  45.439  11.566  0.00  0.00    +0.013 A 
ATOM      3  C   UNL     1       7.545  46.001  10.223  0.00  0.00    +0.019 A 
ATOM     38  C   UNL     1       8.658  46.812   9.753  0.00  0.00    +0.120 A 
ATOM     39  N   UNL     1       9.755  47.032  10.581  0.00  0.00    -0.263 NA
ATOM     40  C   UNL     1       9.841  46.498  11.875  0.00  0.00    +0.111 A 
ENDBRANCH   4   3
ENDBRANCH  10   9
BRANCH  12  13
ATOM     13  N   UNL     1       0.005  41.184   7.584  0.00  0.00    -0.281 N 
ATOM     14  C   UNL     1       0.656  40.392   6.653  0.00  0.00    +0.248 C 
ATOM     30  O   UNL     1       1.516  40.794   5.884  0.00  0.00    -0.270 OA
ATOM     31  H   UNL     1      -0.820  40.774   8.023  0.00  0.00    +0.155 HD
BRANCH  14  15
ATOM     15  C   UNL     1       0.289  38.946   6.552  0.00  0.00    +0.037 A 
ATOM     16  C   UNL     1      -0.034  38.333   5.261  0.00  0.00    +0.013 A 
ATOM     17  C   UNL     1      -0.401  36.941   5.193  0.00  0.00    +0.005 A 
ATOM     18  C   UNL     1      -0.447  36.152   6.422  0.00  0.00    -0.033 A 
ATOM     28  C   UNL     1      -0.118  36.784   7.689  0.00  0.00    +0.005 A 
ATOM     29  C   UNL     1       0.242  38.149   7.759  0.00  0.00    +0.013 A 
BRANCH  18  19
ATOM     19  C   UNL     1      -0.850  34.665   6.447  0.00  0.00    +0.119 C 
BRANCH  19  20
ATOM     20  N   UNL     1      -0.046  33.726   5.609  0.00  0.00    -0.302 NA
ATOM     21  C   UNL     1      -0.919  32.952   4.616  0.00  0.00    +0.066 C 
ATOM     22  C   UNL     1      -0.059  31.990   3.733  0.00  0.00    -0.064 C 
ATOM     23  N   UNL     1       0.716  31.029   4.636  0.00  0.00    +0.379 N 
ATOM     24  C   UNL     1       1.480  30.086   3.807  0.00  0.00    -0.096 C 
ATOM     25  H   UNL     1      -0.029  30.440   5.220  0.00  0.00    -0.082 HD
ATOM     26  C   UNL     1       1.584  31.790   5.628  0.00  0.00    -0.064 C 
ATOM     27  C   UNL     1       0.724  32.764   6.481  0.00  0.00    +0.066 C 
ENDBRANCH  19  20
ENDBRANCH  18  19
ENDBRANCH  14  15
ENDBRANCH  12  13
TORSDOF 6
ENDMDL
