MODEL 1
REMARK VINA RESULT:      -8.9      0.000      0.000
REMARK  Name = C:\Users\Docking\Desktop\test protocol\1iep_ligandH.pdb
REMARK  8 active torsions:
REMARK  status: ('A' for Active; 'I' for Inactive)
REMARK    1  A    between atoms: _5  and  _11
REMARK    2  A    between atoms: _19  and  _21
REMARK    3  A    between atoms: _22  and  _66
REMARK    4  A    between atoms: _27  and  _30
REMARK    5  A    between atoms: _32  and  _33
REMARK    6  A    between atoms: _38  and  _43
REMARK    7  A    between atoms: _43  and  _46
REMARK    8  A    between atoms: _53  and  _55
REMARK                            x       y       z     vdW  Elec       q    Type
REMARK                         _______ _______ _______ _____ _____    ______ ____
ROOT
ATOM     10  C   UNL     1      53.133  12.623  23.598  0.00  0.00    +0.038 A 
ATOM     11  C   UNL     1      51.725  12.460  23.567  0.00  0.00    +0.047 A 
ATOM     12  C   UNL     1      51.110  11.358  22.842  0.00  0.00    +0.035 A 
ATOM     32  C   UNL     1      51.962  10.440  22.161  0.00  0.00    +0.024 A 
ATOM     33  C   UNL     1      53.395  10.591  22.181  0.00  0.00    +0.007 A 
ATOM     34  C   UNL     1      54.007  11.677  22.893  0.00  0.00    -0.029 A 
ATOM     35  C   UNL     1      55.549  11.794  22.875  0.00  0.00    +0.045 C 
ENDROOT
BRANCH  10   9
ATOM      4  C   UNL     1      52.850  17.052  25.426  0.00  0.00    +0.077 A 
ATOM      5  C   UNL     1      51.532  17.250  24.894  0.00  0.00    +0.048 A 
ATOM      6  C   UNL     1      50.966  16.191  24.150  0.00  0.00    +0.116 A 
ATOM      7  N   UNL     1      51.673  15.024  23.959  0.00  0.00    -0.223 NA
ATOM      8  C   UNL     1      52.943  14.866  24.484  0.00  0.00    +0.220 A 
ATOM      9  N   UNL     1      53.669  13.698  24.310  0.00  0.00    -0.283 N 
ATOM     36  H   UNL     1      54.606  13.623  24.707  0.00  0.00    +0.155 HD
ATOM     37  N   UNL     1      53.506  15.863  25.197  0.00  0.00    -0.214 NA
BRANCH   4   3
ATOM      1  C   UNL     1      53.853  20.398  27.185  0.00  0.00    +0.020 A 
ATOM      2  C   UNL     1      53.110  19.447  26.391  0.00  0.00    +0.013 A 
ATOM      3  C   UNL     1      53.581  18.077  26.236  0.00  0.00    +0.019 A 
ATOM     38  C   UNL     1      54.817  17.697  26.904  0.00  0.00    +0.120 A 
ATOM     39  N   UNL     1      55.512  18.635  27.661  0.00  0.00    -0.263 NA
ATOM     40  C   UNL     1      55.070  19.957  27.816  0.00  0.00    +0.111 A 
ENDBRANCH   4   3
ENDBRANCH  10   9
BRANCH  12  13
ATOM     13  N   UNL     1      49.686  11.147  22.768  0.00  0.00    -0.281 N 
ATOM     14  C   UNL     1      48.759  11.846  22.013  0.00  0.00    +0.248 C 
ATOM     30  O   UNL     1      48.987  12.905  21.446  0.00  0.00    -0.270 OA
ATOM     31  H   UNL     1      49.316  10.389  23.342  0.00  0.00    +0.155 HD
BRANCH  14  15
ATOM     15  C   UNL     1      47.375  11.299  21.881  0.00  0.00    +0.037 A 
ATOM     16  C   UNL     1      46.679  11.296  20.591  0.00  0.00    +0.013 A 
ATOM     17  C   UNL     1      45.337  10.777  20.495  0.00  0.00    +0.005 A 
ATOM     18  C   UNL     1      44.683  10.255  21.692  0.00  0.00    -0.033 A 
ATOM     28  C   UNL     1      45.399  10.265  22.957  0.00  0.00    +0.005 A 
ATOM     29  C   UNL     1      46.713  10.774  23.056  0.00  0.00    +0.013 A 
BRANCH  18  19
ATOM     19  C   UNL     1      43.246   9.702  21.686  0.00  0.00    +0.119 C 
BRANCH  19  20
ATOM     20  N   UNL     1      42.251  10.373  22.575  0.00  0.00    -0.302 NA
ATOM     21  C   UNL     1      41.583   9.387  23.537  0.00  0.00    +0.066 C 
ATOM     22  C   UNL     1      40.562  10.110  24.475  0.00  0.00    -0.064 C 
ATOM     23  N   UNL     1      39.514  10.830  23.624  0.00  0.00    +0.379 N 
ATOM     24  C   UNL     1      38.519  11.463  24.502  0.00  0.00    -0.096 C 
ATOM     25  H   UNL     1      38.987  10.060  23.014  0.00  0.00    -0.082 HD
ATOM     26  C   UNL     1      40.170  11.811  22.661  0.00  0.00    -0.064 C 
ATOM     27  C   UNL     1      41.205  11.087  21.755  0.00  0.00    +0.066 C 
ENDBRANCH  19  20
ENDBRANCH  18  19
ENDBRANCH  14  15
ENDBRANCH  12  13
TORSDOF 6
ENDMDL
MODEL 2
REMARK VINA RESULT:      -8.7     19.328     21.907
REMARK  Name = C:\Users\Docking\Desktop\test protocol\1iep_ligandH.pdb
REMARK  8 active torsions:
REMARK  status: ('A' for Active; 'I' for Inactive)
REMARK    1  A    between atoms: _5  and  _11
REMARK    2  A    between atoms: _19  and  _21
REMARK    3  A    between atoms: _22  and  _66
REMARK    4  A    between atoms: _27  and  _30
REMARK    5  A    between atoms: _32  and  _33
REMARK    6  A    between atoms: _38  and  _43
REMARK    7  A    between atoms: _43  and  _46
REMARK    8  A    between atoms: _53  and  _55
REMARK                            x       y       z     vdW  Elec       q    Type
REMARK                         _______ _______ _______ _____ _____    ______ ____
ROOT
ATOM     10  C   UNL     1      38.545  33.304  24.470  0.00  0.00    +0.038 A 
ATOM     11  C   UNL     1      38.340  31.901  24.419  0.00  0.00    +0.047 A 
ATOM     12  C   UNL     1      39.416  30.996  24.048  0.00  0.00    +0.035 A 
ATOM     32  C   UNL     1      40.690  31.553  23.737  0.00  0.00    +0.024 A 
ATOM     33  C   UNL     1      40.916  32.977  23.782  0.00  0.00    +0.007 A 
ATOM     34  C   UNL     1      39.858  33.875  24.146  0.00  0.00    -0.029 A 
ATOM     35  C   UNL     1      40.156  35.392  24.172  0.00  0.00    +0.045 C 
ENDROOT
BRANCH  10   9
ATOM      4  C   UNL     1      34.573  35.789  23.430  0.00  0.00    +0.077 A 
ATOM      5  C   UNL     1      34.648  35.441  22.041  0.00  0.00    +0.048 A 
ATOM      6  C   UNL     1      35.728  34.626  21.633  0.00  0.00    +0.116 A 
ATOM      7  N   UNL     1      36.658  34.198  22.555  0.00  0.00    -0.223 NA
ATOM      8  C   UNL     1      36.557  34.553  23.888  0.00  0.00    +0.220 A 
ATOM      9  N   UNL     1      37.477  34.126  24.834  0.00  0.00    -0.283 N 
ATOM     36  H   UNL     1      37.371  34.416  25.806  0.00  0.00    +0.155 HD
ATOM     37  N   UNL     1      35.536  35.331  24.302  0.00  0.00    -0.214 NA
BRANCH   4   3
ATOM      1  C   UNL     1      32.540  38.858  24.753  0.00  0.00    +0.020 A 
ATOM      2  C   UNL     1      33.617  38.082  24.183  0.00  0.00    +0.013 A 
ATOM      3  C   UNL     1      33.489  36.640  24.015  0.00  0.00    +0.019 A 
ATOM     38  C   UNL     1      32.247  36.009  24.437  0.00  0.00    +0.120 A 
ATOM     39  N   UNL     1      31.228  36.781  24.984  0.00  0.00    -0.263 NA
ATOM     40  C   UNL     1      31.341  38.170  25.152  0.00  0.00    +0.111 A 
ENDBRANCH   4   3
ENDBRANCH  10   9
BRANCH  12  13
ATOM     13  N   UNL     1      39.264  29.564  23.971  0.00  0.00    -0.281 N 
ATOM     14  C   UNL     1      39.387  28.753  22.854  0.00  0.00    +0.248 C 
ATOM     30  O   UNL     1      39.436  29.164  21.704  0.00  0.00    -0.270 OA
ATOM     31  H   UNL     1      39.039  29.091  24.846  0.00  0.00    +0.155 HD
BRANCH  14  15
ATOM     15  C   UNL     1      39.450  27.272  23.041  0.00  0.00    +0.037 A 
ATOM     16  C   UNL     1      39.146  26.354  21.940  0.00  0.00    +0.013 A 
ATOM     17  C   UNL     1      39.197  24.929  22.152  0.00  0.00    +0.005 A 
ATOM     18  C   UNL     1      39.556  24.413  23.471  0.00  0.00    -0.033 A 
ATOM     28  C   UNL     1      39.857  25.347  24.544  0.00  0.00    +0.005 A 
ATOM     29  C   UNL     1      39.807  26.744  24.340  0.00  0.00    +0.013 A 
BRANCH  18  19
ATOM     19  C   UNL     1      39.615  22.908  23.793  0.00  0.00    +0.119 C 
BRANCH  19  20
ATOM     20  N   UNL     1      40.949  22.243  23.707  0.00  0.00    -0.302 NA
ATOM     21  C   UNL     1      41.270  21.782  22.283  0.00  0.00    +0.066 C 
ATOM     22  C   UNL     1      42.679  21.108  22.207  0.00  0.00    -0.064 C 
ATOM     23  N   UNL     1      42.731  19.930  23.182  0.00  0.00    +0.379 N 
ATOM     24  C   UNL     1      44.034  19.259  23.071  0.00  0.00    -0.096 C 
ATOM     25  H   UNL     1      41.947  19.201  22.872  0.00  0.00    -0.082 HD
ATOM     26  C   UNL     1      42.410  20.379  24.600  0.00  0.00    -0.064 C 
ATOM     27  C   UNL     1      41.021  21.074  24.659  0.00  0.00    +0.066 C 
ENDBRANCH  19  20
ENDBRANCH  18  19
ENDBRANCH  14  15
ENDBRANCH  12  13
TORSDOF 6
ENDMDL
MODEL 3
REMARK VINA RESULT:      -8.4     19.041     21.733
REMARK  Name = C:\Users\Docking\Desktop\test protocol\1iep_ligandH.pdb
REMARK  8 active torsions:
REMARK  status: ('A' for Active; 'I' for Inactive)
REMARK    1  A    between atoms: _5  and  _11
REMARK    2  A    between atoms: _19  and  _21
REMARK    3  A    between atoms: _22  and  _66
REMARK    4  A    between atoms: _27  and  _30
REMARK    5  A    between atoms: _32  and  _33
REMARK    6  A    between atoms: _38  and  _43
REMARK    7  A    between atoms: _43  and  _46
REMARK    8  A    between atoms: _53  and  _55
REMARK                            x       y       z     vdW  Elec       q    Type
REMARK                         _______ _______ _______ _____ _____    ______ ____
ROOT
ATOM     10  C   UNL     1      38.646  33.048  24.459  0.00  0.00    +0.038 A 
ATOM     11  C   UNL     1      38.605  31.633  24.369  0.00  0.00    +0.047 A 
ATOM     12  C   UNL     1      39.769  30.873  23.941  0.00  0.00    +0.035 A 
ATOM     32  C   UNL     1      40.959  31.586  23.615  0.00  0.00    +0.024 A 
ATOM     33  C   UNL     1      41.018  33.024  23.699  0.00  0.00    +0.007 A 
ATOM     34  C   UNL     1      39.872  33.780  24.119  0.00  0.00    -0.029 A 
ATOM     35  C   UNL     1      39.990  35.320  24.185  0.00  0.00    +0.045 C 
ENDROOT
BRANCH  10   9
ATOM      4  C   UNL     1      34.532  35.354  23.564  0.00  0.00    +0.077 A 
ATOM      5  C   UNL     1      34.695  35.216  22.146  0.00  0.00    +0.048 A 
ATOM      6  C   UNL     1      35.854  34.552  21.687  0.00  0.00    +0.116 A 
ATOM      7  N   UNL     1      36.776  34.065  22.589  0.00  0.00    -0.223 NA
ATOM      8  C   UNL     1      36.589  34.217  23.950  0.00  0.00    +0.220 A 
ATOM      9  N   UNL     1      37.499  33.728  24.876  0.00  0.00    -0.283 N 
ATOM     36  H   UNL     1      37.329  33.866  25.871  0.00  0.00    +0.155 HD
ATOM     37  N   UNL     1      35.491  34.849  24.414  0.00  0.00    -0.214 NA
BRANCH   4   3
ATOM      1  C   UNL     1      31.268  36.016  25.616  0.00  0.00    +0.020 A 
ATOM      2  C   UNL     1      32.384  35.317  25.021  0.00  0.00    +0.013 A 
ATOM      3  C   UNL     1      33.358  36.029  24.203  0.00  0.00    +0.019 A 
ATOM     38  C   UNL     1      33.174  37.458  24.006  0.00  0.00    +0.120 A 
ATOM     39  N   UNL     1      32.088  38.105  24.590  0.00  0.00    -0.263 NA
ATOM     40  C   UNL     1      31.144  37.430  25.378  0.00  0.00    +0.111 A 
ENDBRANCH   4   3
ENDBRANCH  10   9
BRANCH  12  13
ATOM     13  N   UNL     1      39.784  29.436  23.823  0.00  0.00    -0.281 N 
ATOM     14  C   UNL     1      39.658  28.497  24.834  0.00  0.00    +0.248 C 
ATOM     30  O   UNL     1      39.727  28.752  26.027  0.00  0.00    -0.270 OA
ATOM     31  H   UNL     1      39.903  29.066  22.880  0.00  0.00    +0.155 HD
BRANCH  14  15
ATOM     15  C   UNL     1      39.438  27.065  24.466  0.00  0.00    +0.037 A 
ATOM     16  C   UNL     1      39.307  26.028  25.492  0.00  0.00    +0.013 A 
ATOM     17  C   UNL     1      39.112  24.652  25.110  0.00  0.00    +0.005 A 
ATOM     18  C   UNL     1      39.047  24.305  23.692  0.00  0.00    -0.033 A 
ATOM     28  C   UNL     1      39.175  25.355  22.694  0.00  0.00    +0.005 A 
ATOM     29  C   UNL     1      39.367  26.704  23.066  0.00  0.00    +0.013 A 
BRANCH  18  19
ATOM     19  C   UNL     1      38.863  22.860  23.192  0.00  0.00    +0.119 C 
BRANCH  19  20
ATOM     20  N   UNL     1      39.872  21.851  23.631  0.00  0.00    -0.302 NA
ATOM     21  C   UNL     1      41.306  22.321  23.371  0.00  0.00    +0.066 C 
ATOM     22  C   UNL     1      42.349  21.263  23.857  0.00  0.00    -0.064 C 
ATOM     23  N   UNL     1      42.081  19.929  23.159  0.00  0.00    +0.379 N 
ATOM     24  C   UNL     1      43.096  18.947  23.570  0.00  0.00    -0.096 C 
ATOM     25  H   UNL     1      42.193  20.093  22.062  0.00  0.00    -0.082 HD
ATOM     26  C   UNL     1      40.656  19.455  23.411  0.00  0.00    -0.064 C 
ATOM     27  C   UNL     1      39.628  20.526  22.951  0.00  0.00    +0.066 C 
ENDBRANCH  19  20
ENDBRANCH  18  19
ENDBRANCH  14  15
ENDBRANCH  12  13
TORSDOF 6
ENDMDL
MODEL 4
REMARK VINA RESULT:      -8.3      3.776     12.332
REMARK  Name = C:\Users\Docking\Desktop\test protocol\1iep_ligandH.pdb
REMARK  8 active torsions:
REMARK  status: ('A' for Active; 'I' for Inactive)
REMARK    1  A    between atoms: _5  and  _11
REMARK    2  A    between atoms: _19  and  _21
REMARK    3  A    between atoms: _22  and  _66
REMARK    4  A    between atoms: _27  and  _30
REMARK    5  A    between atoms: _32  and  _33
REMARK    6  A    between atoms: _38  and  _43
REMARK    7  A    between atoms: _43  and  _46
REMARK    8  A    between atoms: _53  and  _55
REMARK                            x       y       z     vdW  Elec       q    Type
REMARK                         _______ _______ _______ _____ _____    ______ ____
ROOT
ATOM     10  C   UNL     1      47.057  11.000  21.749  0.00  0.00    +0.038 A 
ATOM     11  C   UNL     1      47.934  11.905  22.400  0.00  0.00    +0.047 A 
ATOM     12  C   UNL     1      48.597  12.971  21.665  0.00  0.00    +0.035 A 
ATOM     32  C   UNL     1      48.343  13.087  20.267  0.00  0.00    +0.024 A 
ATOM     33  C   UNL     1      47.456  12.174  19.589  0.00  0.00    +0.007 A 
ATOM     34  C   UNL     1      46.801  11.120  20.309  0.00  0.00    -0.029 A 
ATOM     35  C   UNL     1      45.865  10.167  19.529  0.00  0.00    +0.045 C 
ENDROOT
BRANCH  10   9
ATOM      4  C   UNL     1      47.096   6.714  23.910  0.00  0.00    +0.077 A 
ATOM      5  C   UNL     1      48.436   6.442  23.476  0.00  0.00    +0.048 A 
ATOM      6  C   UNL     1      49.078   7.427  22.693  0.00  0.00    +0.116 A 
ATOM      7  N   UNL     1      48.419   8.594  22.373  0.00  0.00    -0.223 NA
ATOM      8  C   UNL     1      47.126   8.825  22.806  0.00  0.00    +0.220 A 
ATOM      9  N   UNL     1      46.447   9.995  22.504  0.00  0.00    -0.283 N 
ATOM     36  H   UNL     1      45.492  10.124  22.836  0.00  0.00    +0.155 HD
ATOM     37  N   UNL     1      46.491   7.899  23.555  0.00  0.00    -0.214 NA
BRANCH   4   3
ATOM      1  C   UNL     1      45.764   4.594  26.915  0.00  0.00    +0.020 A 
ATOM      2  C   UNL     1      46.577   5.512  26.151  0.00  0.00    +0.013 A 
ATOM      3  C   UNL     1      46.287   5.773  24.747  0.00  0.00    +0.019 A 
ATOM     38  C   UNL     1      45.159   5.083  24.141  0.00  0.00    +0.120 A 
ATOM     39  N   UNL     1      44.395   4.202  24.900  0.00  0.00    -0.263 NA
ATOM     40  C   UNL     1      44.665   3.943  26.252  0.00  0.00    +0.111 A 
ENDBRANCH   4   3
ENDBRANCH  10   9
BRANCH  12  13
ATOM     13  N   UNL     1      49.503  13.915  22.270  0.00  0.00    -0.281 N 
ATOM     14  C   UNL     1      49.198  15.133  22.856  0.00  0.00    +0.248 C 
ATOM     30  O   UNL     1      48.118  15.696  22.756  0.00  0.00    -0.270 OA
ATOM     31  H   UNL     1      50.489  13.653  22.267  0.00  0.00    +0.155 HD
BRANCH  14  15
ATOM     15  C   UNL     1      50.249  15.833  23.655  0.00  0.00    +0.037 A 
ATOM     16  C   UNL     1      50.013  17.163  24.221  0.00  0.00    +0.013 A 
ATOM     17  C   UNL     1      51.050  17.824  24.974  0.00  0.00    +0.005 A 
ATOM     18  C   UNL     1      52.333  17.153  25.166  0.00  0.00    -0.033 A 
ATOM     28  C   UNL     1      52.539  15.831  24.598  0.00  0.00    +0.005 A 
ATOM     29  C   UNL     1      51.525  15.181  23.859  0.00  0.00    +0.013 A 
BRANCH  18  19
ATOM     19  C   UNL     1      53.503  17.791  25.938  0.00  0.00    +0.119 C 
BRANCH  19  20
ATOM     20  N   UNL     1      54.857  17.717  25.311  0.00  0.00    -0.302 NA
ATOM     21  C   UNL     1      55.770  16.720  26.031  0.00  0.00    +0.066 C 
ATOM     22  C   UNL     1      57.174  16.639  25.348  0.00  0.00    -0.064 C 
ATOM     23  N   UNL     1      57.807  18.031  25.322  0.00  0.00    +0.379 N 
ATOM     24  C   UNL     1      59.151  17.948  24.733  0.00  0.00    -0.096 C 
ATOM     25  H   UNL     1      57.920  18.371  26.377  0.00  0.00    -0.082 HD
ATOM     26  C   UNL     1      56.904  19.029  24.610  0.00  0.00    -0.064 C 
ATOM     27  C   UNL     1      55.502  19.081  25.278  0.00  0.00    +0.066 C 
ENDBRANCH  19  20
ENDBRANCH  18  19
ENDBRANCH  14  15
ENDBRANCH  12  13
TORSDOF 6
ENDMDL
MODEL 5
REMARK VINA RESULT:      -8.2     15.564     17.900
REMARK  Name = C:\Users\Docking\Desktop\test protocol\1iep_ligandH.pdb
REMARK  8 active torsions:
REMARK  status: ('A' for Active; 'I' for Inactive)
REMARK    1  A    between atoms: _5  and  _11
REMARK    2  A    between atoms: _19  and  _21
REMARK    3  A    between atoms: _22  and  _66
REMARK    4  A    between atoms: _27  and  _30
REMARK    5  A    between atoms: _32  and  _33
REMARK    6  A    between atoms: _38  and  _43
REMARK    7  A    between atoms: _43  and  _46
REMARK    8  A    between atoms: _53  and  _55
REMARK                            x       y       z     vdW  Elec       q    Type
REMARK                         _______ _______ _______ _____ _____    ______ ____
ROOT
ATOM     10  C   UNL     1      40.322  30.306  21.500  0.00  0.00    +0.038 A 
ATOM     11  C   UNL     1      40.335  28.895  21.645  0.00  0.00    +0.047 A 
ATOM     12  C   UNL     1      40.129  28.269  22.942  0.00  0.00    +0.035 A 
ATOM     32  C   UNL     1      39.910  29.111  24.071  0.00  0.00    +0.024 A 
ATOM     33  C   UNL     1      39.895  30.547  23.942  0.00  0.00    +0.007 A 
ATOM     34  C   UNL     1      40.100  31.170  22.665  0.00  0.00    -0.029 A 
ATOM     35  C   UNL     1      40.080  32.714  22.587  0.00  0.00    +0.045 C 
ENDROOT
BRANCH  10   9
ATOM      4  C   UNL     1      43.151  32.147  18.088  0.00  0.00    +0.077 A 
ATOM      5  C   UNL     1      44.319  32.035  18.913  0.00  0.00    +0.048 A 
ATOM      6  C   UNL     1      44.148  31.505  20.212  0.00  0.00    +0.116 A 
ATOM      7  N   UNL     1      42.897  31.118  20.642  0.00  0.00    -0.223 NA
ATOM      8  C   UNL     1      41.791  31.242  19.822  0.00  0.00    +0.220 A 
ATOM      9  N   UNL     1      40.525  30.853  20.231  0.00  0.00    -0.283 N 
ATOM     36  H   UNL     1      39.733  30.967  19.599  0.00  0.00    +0.155 HD
ATOM     37  N   UNL     1      41.928  31.747  18.578  0.00  0.00    -0.214 NA
BRANCH   4   3
ATOM      1  C   UNL     1      43.041  34.569  15.018  0.00  0.00    +0.020 A 
ATOM      2  C   UNL     1      43.013  34.101  16.385  0.00  0.00    +0.013 A 
ATOM      3  C   UNL     1      43.171  32.685  16.691  0.00  0.00    +0.019 A 
ATOM     38  C   UNL     1      43.356  31.761  15.582  0.00  0.00    +0.120 A 
ATOM     39  N   UNL     1      43.377  32.240  14.276  0.00  0.00    -0.263 NA
ATOM     40  C   UNL     1      43.224  33.600  13.970  0.00  0.00    +0.111 A 
ENDBRANCH   4   3
ENDBRANCH  10   9
BRANCH  12  13
ATOM     13  N   UNL     1      40.139  26.843  23.151  0.00  0.00    -0.281 N 
ATOM     14  C   UNL     1      39.212  25.911  22.714  0.00  0.00    +0.248 C 
ATOM     30  O   UNL     1      38.114  26.191  22.255  0.00  0.00    -0.270 OA
ATOM     31  H   UNL     1      40.925  26.475  23.687  0.00  0.00    +0.155 HD
BRANCH  14  15
ATOM     15  C   UNL     1      39.546  24.458  22.813  0.00  0.00    +0.037 A 
ATOM     16  C   UNL     1      39.600  23.607  21.621  0.00  0.00    +0.013 A 
ATOM     17  C   UNL     1      39.908  22.205  21.747  0.00  0.00    +0.005 A 
ATOM     18  C   UNL     1      40.167  21.644  23.071  0.00  0.00    -0.033 A 
ATOM     28  C   UNL     1      40.113  22.512  24.236  0.00  0.00    +0.005 A 
ATOM     29  C   UNL     1      39.810  23.887  24.117  0.00  0.00    +0.013 A 
BRANCH  18  19
ATOM     19  C   UNL     1      40.483  20.155  23.302  0.00  0.00    +0.119 C 
BRANCH  19  20
ATOM     20  N   UNL     1      41.702  19.604  22.638  0.00  0.00    -0.302 NA
ATOM     21  C   UNL     1      42.114  18.250  23.224  0.00  0.00    +0.066 C 
ATOM     22  C   UNL     1      43.377  17.678  22.503  0.00  0.00    -0.064 C 
ATOM     23  N   UNL     1      44.523  18.685  22.611  0.00  0.00    +0.379 N 
ATOM     24  C   UNL     1      45.729  18.126  21.984  0.00  0.00    -0.096 C 
ATOM     25  H   UNL     1      44.742  18.833  23.694  0.00  0.00    -0.082 HD
ATOM     26  C   UNL     1      44.122  20.035  22.033  0.00  0.00    -0.064 C 
ATOM     27  C   UNL     1      42.848  20.581  22.736  0.00  0.00    +0.066 C 
ENDBRANCH  19  20
ENDBRANCH  18  19
ENDBRANCH  14  15
ENDBRANCH  12  13
TORSDOF 6
ENDMDL
