MODEL 1
REMARK VINA RESULT:      -8.3      0.000      0.000
REMARK  Name = C:\Users\Docking\Desktop\test protocol\1iep_ligandH.pdb
REMARK  8 active torsions:
REMARK  status: ('A' for Active; 'I' for Inactive)
REMARK    1  A    between atoms: _5  and  _11
REMARK    2  A    between atoms: _19  and  _21
REMARK    3  A    between atoms: _22  and  _66
REMARK    4  A    between atoms: _27  and  _30
REMARK    5  A    between atoms: _32  and  _33
REMARK    6  A    between atoms: _38  and  _43
REMARK    7  A    between atoms: _43  and  _46
REMARK    8  A    between atoms: _53  and  _55
REMARK                            x       y       z     vdW  Elec       q    Type
REMARK                         _______ _______ _______ _____ _____    ______ ____
ROOT
ATOM     10  C   UNL     1      25.507  35.763  -2.392  0.00  0.00    +0.038 A 
ATOM     11  C   UNL     1      25.854  36.599  -1.300  0.00  0.00    +0.047 A 
ATOM     12  C   UNL     1      25.358  36.330   0.041  0.00  0.00    +0.035 A 
ATOM     32  C   UNL     1      24.513  35.198   0.234  0.00  0.00    +0.024 A 
ATOM     33  C   UNL     1      24.149  34.339  -0.865  0.00  0.00    +0.007 A 
ATOM     34  C   UNL     1      24.634  34.601  -2.190  0.00  0.00    -0.029 A 
ATOM     35  C   UNL     1      24.206  33.649  -3.332  0.00  0.00    +0.045 C 
ENDROOT
BRANCH  10   9
ATOM      4  C   UNL     1      28.764  35.267  -5.882  0.00  0.00    +0.077 A 
ATOM      5  C   UNL     1      29.541  34.342  -5.108  0.00  0.00    +0.048 A 
ATOM      6  C   UNL     1      29.071  34.026  -3.813  0.00  0.00    +0.116 A 
ATOM      7  N   UNL     1      27.910  34.598  -3.339  0.00  0.00    -0.223 NA
ATOM      8  C   UNL     1      27.186  35.487  -4.112  0.00  0.00    +0.220 A 
ATOM      9  N   UNL     1      26.012  36.068  -3.658  0.00  0.00    -0.283 N 
ATOM     36  H   UNL     1      25.511  36.725  -4.256  0.00  0.00    +0.155 HD
ATOM     37  N   UNL     1      27.615  35.807  -5.351  0.00  0.00    -0.214 NA
BRANCH   4   3
ATOM      1  C   UNL     1      28.550  36.269  -9.657  0.00  0.00    +0.020 A 
ATOM      2  C   UNL     1      28.146  35.850  -8.335  0.00  0.00    +0.013 A 
ATOM      3  C   UNL     1      29.129  35.698  -7.269  0.00  0.00    +0.019 A 
ATOM     38  C   UNL     1      30.522  35.981  -7.576  0.00  0.00    +0.120 A 
ATOM     39  N   UNL     1      30.882  36.382  -8.859  0.00  0.00    -0.263 NA
ATOM     40  C   UNL     1      29.946  36.530  -9.893  0.00  0.00    +0.111 A 
ENDBRANCH   4   3
ENDBRANCH  10   9
BRANCH  12  13
ATOM     13  N   UNL     1      25.670  37.148   1.187  0.00  0.00    -0.281 N 
ATOM     14  C   UNL     1      25.215  38.425   1.470  0.00  0.00    +0.248 C 
ATOM     30  O   UNL     1      24.637  39.146   0.670  0.00  0.00    -0.270 OA
ATOM     31  H   UNL     1      26.302  36.735   1.872  0.00  0.00    +0.155 HD
BRANCH  14  15
ATOM     15  C   UNL     1      25.450  38.989   2.834  0.00  0.00    +0.037 A 
ATOM     16  C   UNL     1      24.990  38.289   4.035  0.00  0.00    +0.013 A 
ATOM     17  C   UNL     1      25.214  38.863   5.338  0.00  0.00    +0.005 A 
ATOM     18  C   UNL     1      25.905  40.146   5.446  0.00  0.00    -0.033 A 
ATOM     28  C   UNL     1      26.356  40.817   4.238  0.00  0.00    +0.005 A 
ATOM     29  C   UNL     1      26.136  40.258   2.959  0.00  0.00    +0.013 A 
BRANCH  18  19
ATOM     19  C   UNL     1      26.169  40.844   6.793  0.00  0.00    +0.119 C 
BRANCH  19  20
ATOM     20  N   UNL     1      26.080  42.334   6.821  0.00  0.00    -0.302 NA
ATOM     21  C   UNL     1      27.390  42.980   7.282  0.00  0.00    +0.066 C 
ATOM     22  C   UNL     1      27.286  44.540   7.283  0.00  0.00    -0.064 C 
ATOM     23  N   UNL     1      26.125  44.970   8.181  0.00  0.00    +0.379 N 
ATOM     24  C   UNL     1      26.061  46.438   8.231  0.00  0.00    -0.096 C 
ATOM     25  H   UNL     1      26.342  44.606   9.212  0.00  0.00    -0.082 HD
ATOM     26  C   UNL     1      24.819  44.331   7.731  0.00  0.00    -0.064 C 
ATOM     27  C   UNL     1      24.942  42.782   7.705  0.00  0.00    +0.066 C 
ENDBRANCH  19  20
ENDBRANCH  18  19
ENDBRANCH  14  15
ENDBRANCH  12  13
TORSDOF 6
ENDMDL
MODEL 2
REMARK VINA RESULT:      -8.2      3.296      6.710
REMARK  Name = C:\Users\Docking\Desktop\test protocol\1iep_ligandH.pdb
REMARK  8 active torsions:
REMARK  status: ('A' for Active; 'I' for Inactive)
REMARK    1  A    between atoms: _5  and  _11
REMARK    2  A    between atoms: _19  and  _21
REMARK    3  A    between atoms: _22  and  _66
REMARK    4  A    between atoms: _27  and  _30
REMARK    5  A    between atoms: _32  and  _33
REMARK    6  A    between atoms: _38  and  _43
REMARK    7  A    between atoms: _43  and  _46
REMARK    8  A    between atoms: _53  and  _55
REMARK                            x       y       z     vdW  Elec       q    Type
REMARK                         _______ _______ _______ _____ _____    ______ ____
ROOT
ATOM     10  C   UNL     1      25.350  35.658  -1.233  0.00  0.00    +0.038 A 
ATOM     11  C   UNL     1      25.259  36.522  -0.112  0.00  0.00    +0.047 A 
ATOM     12  C   UNL     1      26.094  37.709  -0.006  0.00  0.00    +0.035 A 
ATOM     32  C   UNL     1      27.010  37.986  -1.063  0.00  0.00    +0.024 A 
ATOM     33  C   UNL     1      27.116  37.118  -2.209  0.00  0.00    +0.007 A 
ATOM     34  C   UNL     1      26.297  35.945  -2.317  0.00  0.00    -0.029 A 
ATOM     35  C   UNL     1      26.458  35.046  -3.565  0.00  0.00    +0.045 C 
ENDROOT
BRANCH  10   9
ATOM      4  C   UNL     1      22.675  32.275   0.874  0.00  0.00    +0.077 A 
ATOM      5  C   UNL     1      22.969  32.776   2.186  0.00  0.00    +0.048 A 
ATOM      6  C   UNL     1      23.819  33.901   2.275  0.00  0.00    +0.116 A 
ATOM      7  N   UNL     1      24.330  34.475   1.132  0.00  0.00    -0.223 NA
ATOM      8  C   UNL     1      24.028  33.966  -0.118  0.00  0.00    +0.220 A 
ATOM      9  N   UNL     1      24.524  34.533  -1.282  0.00  0.00    -0.283 N 
ATOM     36  H   UNL     1      24.284  34.123  -2.184  0.00  0.00    +0.155 HD
ATOM     37  N   UNL     1      23.220  32.892  -0.230  0.00  0.00    -0.214 NA
BRANCH   4   3
ATOM      1  C   UNL     1      20.376  29.649  -0.891  0.00  0.00    +0.020 A 
ATOM      2  C   UNL     1      21.224  30.802  -0.695  0.00  0.00    +0.013 A 
ATOM      3  C   UNL     1      21.791  31.095   0.615  0.00  0.00    +0.019 A 
ATOM     38  C   UNL     1      21.479  30.193   1.714  0.00  0.00    +0.120 A 
ATOM     39  N   UNL     1      20.658  29.091   1.495  0.00  0.00    -0.263 NA
ATOM     40  C   UNL     1      20.105  28.800   0.239  0.00  0.00    +0.111 A 
ENDBRANCH   4   3
ENDBRANCH  10   9
BRANCH  12  13
ATOM     13  N   UNL     1      26.051  38.619   1.111  0.00  0.00    -0.281 N 
ATOM     14  C   UNL     1      25.103  39.592   1.381  0.00  0.00    +0.248 C 
ATOM     30  O   UNL     1      24.258  39.973   0.585  0.00  0.00    -0.270 OA
ATOM     31  H   UNL     1      26.812  38.535   1.785  0.00  0.00    +0.155 HD
BRANCH  14  15
ATOM     15  C   UNL     1      25.102  40.247   2.725  0.00  0.00    +0.037 A 
ATOM     16  C   UNL     1      24.412  41.519   2.950  0.00  0.00    +0.013 A 
ATOM     17  C   UNL     1      24.442  42.138   4.251  0.00  0.00    +0.005 A 
ATOM     18  C   UNL     1      25.164  41.483   5.339  0.00  0.00    -0.033 A 
ATOM     28  C   UNL     1      25.836  40.218   5.090  0.00  0.00    +0.005 A 
ATOM     29  C   UNL     1      25.810  39.610   3.815  0.00  0.00    +0.013 A 
BRANCH  18  19
ATOM     19  C   UNL     1      25.266  42.081   6.755  0.00  0.00    +0.119 C 
BRANCH  19  20
ATOM     20  N   UNL     1      25.896  43.429   6.884  0.00  0.00    -0.302 NA
ATOM     21  C   UNL     1      27.417  43.341   7.034  0.00  0.00    +0.066 C 
ATOM     22  C   UNL     1      28.062  44.761   7.145  0.00  0.00    -0.064 C 
ATOM     23  N   UNL     1      27.443  45.508   8.328  0.00  0.00    +0.379 N 
ATOM     24  C   UNL     1      28.088  46.821   8.470  0.00  0.00    -0.096 C 
ATOM     25  H   UNL     1      27.663  44.921   9.250  0.00  0.00    -0.082 HD
ATOM     26  C   UNL     1      25.930  45.598   8.188  0.00  0.00    -0.064 C 
ATOM     27  C   UNL     1      25.302  44.183   8.049  0.00  0.00    +0.066 C 
ENDBRANCH  19  20
ENDBRANCH  18  19
ENDBRANCH  14  15
ENDBRANCH  12  13
TORSDOF 6
ENDMDL
MODEL 3
REMARK VINA RESULT:      -8.1     21.781     25.451
REMARK  Name = C:\Users\Docking\Desktop\test protocol\1iep_ligandH.pdb
REMARK  8 active torsions:
REMARK  status: ('A' for Active; 'I' for Inactive)
REMARK    1  A    between atoms: _5  and  _11
REMARK    2  A    between atoms: _19  and  _21
REMARK    3  A    between atoms: _22  and  _66
REMARK    4  A    between atoms: _27  and  _30
REMARK    5  A    between atoms: _32  and  _33
REMARK    6  A    between atoms: _38  and  _43
REMARK    7  A    between atoms: _43  and  _46
REMARK    8  A    between atoms: _53  and  _55
REMARK                            x       y       z     vdW  Elec       q    Type
REMARK                         _______ _______ _______ _____ _____    ______ ____
ROOT
ATOM     10  C   UNL     1      12.908  24.760  12.083  0.00  0.00    +0.038 A 
ATOM     11  C   UNL     1      11.885  25.660  11.689  0.00  0.00    +0.047 A 
ATOM     12  C   UNL     1      11.994  26.433  10.461  0.00  0.00    +0.035 A 
ATOM     32  C   UNL     1      13.159  26.262   9.657  0.00  0.00    +0.024 A 
ATOM     33  C   UNL     1      14.209  25.353  10.043  0.00  0.00    +0.007 A 
ATOM     34  C   UNL     1      14.108  24.590  11.254  0.00  0.00    -0.029 A 
ATOM     35  C   UNL     1      15.267  23.634  11.621  0.00  0.00    +0.045 C 
ENDROOT
BRANCH  10   9
ATOM      4  C   UNL     1      11.646  20.819  14.513  0.00  0.00    +0.077 A 
ATOM      5  C   UNL     1      11.239  20.140  13.317  0.00  0.00    +0.048 A 
ATOM      6  C   UNL     1      11.364  20.842  12.097  0.00  0.00    +0.116 A 
ATOM      7  N   UNL     1      11.861  22.128  12.087  0.00  0.00    -0.223 NA
ATOM      8  C   UNL     1      12.242  22.754  13.259  0.00  0.00    +0.220 A 
ATOM      9  N   UNL     1      12.751  24.044  13.271  0.00  0.00    -0.283 N 
ATOM     36  H   UNL     1      13.015  24.474  14.158  0.00  0.00    +0.155 HD
ATOM     37  N   UNL     1      12.131  22.105  14.437  0.00  0.00    -0.214 NA
BRANCH   4   3
ATOM      1  C   UNL     1      10.366  19.648  18.019  0.00  0.00    +0.020 A 
ATOM      2  C   UNL     1      10.380  20.255  16.708  0.00  0.00    +0.013 A 
ATOM      3  C   UNL     1      11.577  20.208  15.878  0.00  0.00    +0.019 A 
ATOM     38  C   UNL     1      12.752  19.534  16.409  0.00  0.00    +0.120 A 
ATOM     39  N   UNL     1      12.710  18.960  17.676  0.00  0.00    -0.263 NA
ATOM     40  C   UNL     1      11.564  19.000  18.484  0.00  0.00    +0.111 A 
ENDBRANCH   4   3
ENDBRANCH  10   9
BRANCH  12  13
ATOM     13  N   UNL     1      10.992  27.368  10.014  0.00  0.00    -0.281 N 
ATOM     14  C   UNL     1       9.928  27.132   9.159  0.00  0.00    +0.248 C 
ATOM     30  O   UNL     1       9.801  26.126   8.476  0.00  0.00    -0.270 OA
ATOM     31  H   UNL     1      11.076  28.320  10.372  0.00  0.00    +0.155 HD
BRANCH  14  15
ATOM     15  C   UNL     1       8.858  28.168   9.033  0.00  0.00    +0.037 A 
ATOM     16  C   UNL     1       9.053  29.527   9.545  0.00  0.00    +0.013 A 
ATOM     17  C   UNL     1       7.999  30.503   9.426  0.00  0.00    +0.005 A 
ATOM     18  C   UNL     1       6.740  30.122   8.791  0.00  0.00    -0.033 A 
ATOM     28  C   UNL     1       6.575  28.769   8.287  0.00  0.00    +0.005 A 
ATOM     29  C   UNL     1       7.606  27.810   8.402  0.00  0.00    +0.013 A 
BRANCH  18  19
ATOM     19  C   UNL     1       5.553  31.092   8.639  0.00  0.00    +0.119 C 
BRANCH  19  20
ATOM     20  N   UNL     1       5.718  32.232   7.689  0.00  0.00    -0.302 NA
ATOM     21  C   UNL     1       5.717  33.584   8.407  0.00  0.00    +0.066 C 
ATOM     22  C   UNL     1       5.913  34.764   7.401  0.00  0.00    -0.064 C 
ATOM     23  N   UNL     1       4.812  34.714   6.340  0.00  0.00    +0.379 N 
ATOM     24  C   UNL     1       4.960  35.856   5.425  0.00  0.00    -0.096 C 
ATOM     25  H   UNL     1       3.834  34.823   6.862  0.00  0.00    -0.082 HD
ATOM     26  C   UNL     1       4.805  33.372   5.622  0.00  0.00    -0.064 C 
ATOM     27  C   UNL     1       4.639  32.204   6.635  0.00  0.00    +0.066 C 
ENDBRANCH  19  20
ENDBRANCH  18  19
ENDBRANCH  14  15
ENDBRANCH  12  13
TORSDOF 6
ENDMDL
MODEL 4
REMARK VINA RESULT:      -8.0     13.522     16.548
REMARK  Name = C:\Users\Docking\Desktop\test protocol\1iep_ligandH.pdb
REMARK  8 active torsions:
REMARK  status: ('A' for Active; 'I' for Inactive)
REMARK    1  A    between atoms: _5  and  _11
REMARK    2  A    between atoms: _19  and  _21
REMARK    3  A    between atoms: _22  and  _66
REMARK    4  A    between atoms: _27  and  _30
REMARK    5  A    between atoms: _32  and  _33
REMARK    6  A    between atoms: _38  and  _43
REMARK    7  A    between atoms: _43  and  _46
REMARK    8  A    between atoms: _53  and  _55
REMARK                            x       y       z     vdW  Elec       q    Type
REMARK                         _______ _______ _______ _____ _____    ______ ____
ROOT
ATOM     10  C   UNL     1      21.198  27.451   3.663  0.00  0.00    +0.038 A 
ATOM     11  C   UNL     1      20.105  27.360   4.561  0.00  0.00    +0.047 A 
ATOM     12  C   UNL     1      19.510  26.075   4.895  0.00  0.00    +0.035 A 
ATOM     32  C   UNL     1      20.055  24.902   4.297  0.00  0.00    +0.024 A 
ATOM     33  C   UNL     1      21.166  24.976   3.381  0.00  0.00    +0.007 A 
ATOM     34  C   UNL     1      21.755  26.241   3.046  0.00  0.00    -0.029 A 
ATOM     35  C   UNL     1      22.940  26.261   2.052  0.00  0.00    +0.045 C 
ENDROOT
BRANCH  10   9
ATOM      4  C   UNL     1      21.821  31.226   0.765  0.00  0.00    +0.077 A 
ATOM      5  C   UNL     1      21.042  30.627  -0.281  0.00  0.00    +0.048 A 
ATOM      6  C   UNL     1      20.504  29.343  -0.035  0.00  0.00    +0.116 A 
ATOM      7  N   UNL     1      20.735  28.715   1.170  0.00  0.00    -0.223 NA
ATOM      8  C   UNL     1      21.493  29.320   2.156  0.00  0.00    +0.220 A 
ATOM      9  N   UNL     1      21.731  28.710   3.378  0.00  0.00    -0.283 N 
ATOM     36  H   UNL     1      22.301  29.186   4.076  0.00  0.00    +0.155 HD
ATOM     37  N   UNL     1      22.018  30.545   1.945  0.00  0.00    -0.214 NA
BRANCH   4   3
ATOM      1  C   UNL     1      24.092  34.207  -0.355  0.00  0.00    +0.020 A 
ATOM      2  C   UNL     1      23.516  32.884  -0.292  0.00  0.00    +0.013 A 
ATOM      3  C   UNL     1      22.453  32.579   0.657  0.00  0.00    +0.019 A 
ATOM     38  C   UNL     1      21.991  33.644   1.534  0.00  0.00    +0.120 A 
ATOM     39  N   UNL     1      22.565  34.909   1.451  0.00  0.00    -0.263 NA
ATOM     40  C   UNL     1      23.590  35.213   0.543  0.00  0.00    +0.111 A 
ENDBRANCH   4   3
ENDBRANCH  10   9
BRANCH  12  13
ATOM     13  N   UNL     1      18.393  25.922   5.795  0.00  0.00    -0.281 N 
ATOM     14  C   UNL     1      18.179  24.916   6.723  0.00  0.00    +0.248 C 
ATOM     30  O   UNL     1      18.816  23.874   6.772  0.00  0.00    -0.270 OA
ATOM     31  H   UNL     1      17.673  26.642   5.740  0.00  0.00    +0.155 HD
BRANCH  14  15
ATOM     15  C   UNL     1      17.092  25.087   7.734  0.00  0.00    +0.037 A 
ATOM     16  C   UNL     1      17.396  25.415   9.129  0.00  0.00    +0.013 A 
ATOM     17  C   UNL     1      16.329  25.557  10.088  0.00  0.00    +0.005 A 
ATOM     18  C   UNL     1      14.947  25.372   9.654  0.00  0.00    -0.033 A 
ATOM     28  C   UNL     1      14.673  25.051   8.263  0.00  0.00    +0.005 A 
ATOM     29  C   UNL     1      15.716  24.911   7.320  0.00  0.00    +0.013 A 
BRANCH  18  19
ATOM     19  C   UNL     1      13.747  25.483  10.613  0.00  0.00    +0.119 C 
BRANCH  19  20
ATOM     20  N   UNL     1      13.631  24.451  11.686  0.00  0.00    -0.302 NA
ATOM     21  C   UNL     1      13.473  23.040  11.112  0.00  0.00    +0.066 C 
ATOM     22  C   UNL     1      13.377  21.971  12.249  0.00  0.00    -0.064 C 
ATOM     23  N   UNL     1      12.205  22.315  13.170  0.00  0.00    +0.379 N 
ATOM     24  C   UNL     1      12.075  21.279  14.206  0.00  0.00    -0.096 C 
ATOM     25  H   UNL     1      11.275  22.297  12.555  0.00  0.00    -0.082 HD
ATOM     26  C   UNL     1      12.352  23.717  13.743  0.00  0.00    -0.064 C 
ATOM     27  C   UNL     1      12.477  24.769  12.605  0.00  0.00    +0.066 C 
ENDBRANCH  19  20
ENDBRANCH  18  19
ENDBRANCH  14  15
ENDBRANCH  12  13
TORSDOF 6
ENDMDL
MODEL 5
REMARK VINA RESULT:      -7.9     13.546     16.709
REMARK  Name = C:\Users\Docking\Desktop\test protocol\1iep_ligandH.pdb
REMARK  8 active torsions:
REMARK  status: ('A' for Active; 'I' for Inactive)
REMARK    1  A    between atoms: _5  and  _11
REMARK    2  A    between atoms: _19  and  _21
REMARK    3  A    between atoms: _22  and  _66
REMARK    4  A    between atoms: _27  and  _30
REMARK    5  A    between atoms: _32  and  _33
REMARK    6  A    between atoms: _38  and  _43
REMARK    7  A    between atoms: _43  and  _46
REMARK    8  A    between atoms: _53  and  _55
REMARK                            x       y       z     vdW  Elec       q    Type
REMARK                         _______ _______ _______ _____ _____    ______ ____
ROOT
ATOM     10  C   UNL     1      21.039  27.286   4.416  0.00  0.00    +0.038 A 
ATOM     11  C   UNL     1      19.704  27.190   4.885  0.00  0.00    +0.047 A 
ATOM     12  C   UNL     1      19.147  25.917   5.314  0.00  0.00    +0.035 A 
ATOM     32  C   UNL     1      19.978  24.761   5.254  0.00  0.00    +0.024 A 
ATOM     33  C   UNL     1      21.337  24.839   4.779  0.00  0.00    +0.007 A 
ATOM     34  C   UNL     1      21.892  26.092   4.352  0.00  0.00    -0.029 A 
ATOM     35  C   UNL     1      23.353  26.117   3.846  0.00  0.00    +0.045 C 
ENDROOT
BRANCH  10   9
ATOM      4  C   UNL     1      21.767  30.681   1.102  0.00  0.00    +0.077 A 
ATOM      5  C   UNL     1      21.155  29.891   0.073  0.00  0.00    +0.048 A 
ATOM      6  C   UNL     1      20.672  28.614   0.436  0.00  0.00    +0.116 A 
ATOM      7  N   UNL     1      20.797  28.170   1.735  0.00  0.00    -0.223 NA
ATOM      8  C   UNL     1      21.394  28.956   2.703  0.00  0.00    +0.220 A 
ATOM      9  N   UNL     1      21.523  28.533   4.017  0.00  0.00    -0.283 N 
ATOM     36  H   UNL     1      21.977  29.140   4.700  0.00  0.00    +0.155 HD
ATOM     37  N   UNL     1      21.865  30.179   2.381  0.00  0.00    -0.214 NA
BRANCH   4   3
ATOM      1  C   UNL     1      22.703  34.452   1.557  0.00  0.00    +0.020 A 
ATOM      2  C   UNL     1      22.145  33.146   1.823  0.00  0.00    +0.013 A 
ATOM      3  C   UNL     1      22.323  32.053   0.876  0.00  0.00    +0.019 A 
ATOM     38  C   UNL     1      23.076  32.316  -0.341  0.00  0.00    +0.120 A 
ATOM     39  N   UNL     1      23.600  33.584  -0.572  0.00  0.00    -0.263 NA
ATOM     40  C   UNL     1      23.434  34.644   0.332  0.00  0.00    +0.111 A 
ENDBRANCH   4   3
ENDBRANCH  10   9
BRANCH  12  13
ATOM     13  N   UNL     1      17.796  25.757   5.792  0.00  0.00    -0.281 N 
ATOM     14  C   UNL     1      16.808  24.925   5.291  0.00  0.00    +0.248 C 
ATOM     30  O   UNL     1      16.871  24.346   4.217  0.00  0.00    -0.270 OA
ATOM     31  H   UNL     1      17.536  26.327   6.598  0.00  0.00    +0.155 HD
BRANCH  14  15
ATOM     15  C   UNL     1      15.563  24.719   6.092  0.00  0.00    +0.037 A 
ATOM     16  C   UNL     1      14.416  23.994   5.541  0.00  0.00    +0.013 A 
ATOM     17  C   UNL     1      13.221  23.823   6.329  0.00  0.00    +0.005 A 
ATOM     18  C   UNL     1      13.168  24.379   7.679  0.00  0.00    -0.033 A 
ATOM     28  C   UNL     1      14.323  25.089   8.203  0.00  0.00    +0.005 A 
ATOM     29  C   UNL     1      15.495  25.259   7.433  0.00  0.00    +0.013 A 
BRANCH  18  19
ATOM     19  C   UNL     1      11.927  24.263   8.583  0.00  0.00    +0.119 C 
BRANCH  19  20
ATOM     20  N   UNL     1      12.091  24.630  10.021  0.00  0.00    -0.302 NA
ATOM     21  C   UNL     1      11.875  23.431  10.949  0.00  0.00    +0.066 C 
ATOM     22  C   UNL     1      12.074  23.828  12.448  0.00  0.00    -0.064 C 
ATOM     23  N   UNL     1      11.115  24.967  12.802  0.00  0.00    +0.379 N 
ATOM     24  C   UNL     1      11.259  25.303  14.226  0.00  0.00    -0.096 C 
ATOM     25  H   UNL     1      10.076  24.595  12.645  0.00  0.00    -0.082 HD
ATOM     26  C   UNL     1      11.322  26.162  11.883  0.00  0.00    -0.064 C 
ATOM     27  C   UNL     1      11.152  25.750  10.394  0.00  0.00    +0.066 C 
ENDBRANCH  19  20
ENDBRANCH  18  19
ENDBRANCH  14  15
ENDBRANCH  12  13
TORSDOF 6
ENDMDL
