MODEL 1
REMARK VINA RESULT:      -8.4      0.000      0.000
REMARK  Name = C:\Users\Docking\Desktop\test protocol\1iep_ligandH.pdb
REMARK  8 active torsions:
REMARK  status: ('A' for Active; 'I' for Inactive)
REMARK    1  A    between atoms: _5  and  _11
REMARK    2  A    between atoms: _19  and  _21
REMARK    3  A    between atoms: _22  and  _66
REMARK    4  A    between atoms: _27  and  _30
REMARK    5  A    between atoms: _32  and  _33
REMARK    6  A    between atoms: _38  and  _43
REMARK    7  A    between atoms: _43  and  _46
REMARK    8  A    between atoms: _53  and  _55
REMARK                            x       y       z     vdW  Elec       q    Type
REMARK                         _______ _______ _______ _____ _____    ______ ____
ROOT
ATOM     10  C   UNL     1      63.403  15.352  44.392  0.00  0.00    +0.038 A 
ATOM     11  C   UNL     1      63.276  16.055  43.166  0.00  0.00    +0.047 A 
ATOM     12  C   UNL     1      63.255  17.509  43.131  0.00  0.00    +0.035 A 
ATOM     32  C   UNL     1      63.368  18.216  44.364  0.00  0.00    +0.024 A 
ATOM     33  C   UNL     1      63.498  17.518  45.619  0.00  0.00    +0.007 A 
ATOM     34  C   UNL     1      63.516  16.084  45.659  0.00  0.00    -0.029 A 
ATOM     35  C   UNL     1      63.650  15.387  47.034  0.00  0.00    +0.045 C 
ENDROOT
BRANCH  10   9
ATOM      4  C   UNL     1      61.227  11.090  44.759  0.00  0.00    +0.077 A 
ATOM      5  C   UNL     1      59.960  11.695  45.052  0.00  0.00    +0.048 A 
ATOM      6  C   UNL     1      59.913  13.106  45.106  0.00  0.00    +0.116 A 
ATOM      7  N   UNL     1      61.053  13.847  44.882  0.00  0.00    -0.223 NA
ATOM      8  C   UNL     1      62.260  13.231  44.603  0.00  0.00    +0.220 A 
ATOM      9  N   UNL     1      63.417  13.956  44.367  0.00  0.00    -0.283 N 
ATOM     36  H   UNL     1      64.289  13.464  44.172  0.00  0.00    +0.155 HD
ATOM     37  N   UNL     1      62.332  11.885  44.548  0.00  0.00    -0.214 NA
BRANCH   4   3
ATOM      1  C   UNL     1      62.229   7.537  43.465  0.00  0.00    +0.020 A 
ATOM      2  C   UNL     1      62.048   8.970  43.506  0.00  0.00    +0.013 A 
ATOM      3  C   UNL     1      61.438   9.611  44.664  0.00  0.00    +0.019 A 
ATOM     38  C   UNL     1      61.020   8.766  45.774  0.00  0.00    +0.120 A 
ATOM     39  N   UNL     1      61.205   7.389  45.705  0.00  0.00    -0.263 NA
ATOM     40  C   UNL     1      61.789   6.761  44.595  0.00  0.00    +0.111 A 
ENDBRANCH   4   3
ENDBRANCH  10   9
BRANCH  12  13
ATOM     13  N   UNL     1      63.120  18.277  41.918  0.00  0.00    -0.281 N 
ATOM     14  C   UNL     1      63.903  18.212  40.778  0.00  0.00    +0.248 C 
ATOM     30  O   UNL     1      64.975  17.630  40.708  0.00  0.00    -0.270 OA
ATOM     31  H   UNL     1      62.354  18.951  41.899  0.00  0.00    +0.155 HD
BRANCH  14  15
ATOM     15  C   UNL     1      63.433  18.905  39.539  0.00  0.00    +0.037 A 
ATOM     16  C   UNL     1      63.058  18.149  38.341  0.00  0.00    +0.013 A 
ATOM     17  C   UNL     1      62.625  18.843  37.155  0.00  0.00    +0.005 A 
ATOM     18  C   UNL     1      62.564  20.302  37.161  0.00  0.00    -0.033 A 
ATOM     28  C   UNL     1      62.937  21.027  38.364  0.00  0.00    +0.005 A 
ATOM     29  C   UNL     1      63.363  20.350  39.529  0.00  0.00    +0.013 A 
BRANCH  18  19
ATOM     19  C   UNL     1      62.134  21.127  35.933  0.00  0.00    +0.119 C 
BRANCH  19  20
ATOM     20  N   UNL     1      63.024  21.084  34.735  0.00  0.00    -0.302 NA
ATOM     21  C   UNL     1      64.176  22.089  34.839  0.00  0.00    +0.066 C 
ATOM     22  C   UNL     1      65.111  22.015  33.588  0.00  0.00    -0.064 C 
ATOM     23  N   UNL     1      64.287  22.266  32.324  0.00  0.00    +0.379 N 
ATOM     24  C   UNL     1      65.172  22.255  31.151  0.00  0.00    -0.096 C 
ATOM     25  H   UNL     1      63.845  23.286  32.406  0.00  0.00    -0.082 HD
ATOM     26  C   UNL     1      63.138  21.274  32.214  0.00  0.00    -0.064 C 
ATOM     27  C   UNL     1      62.232  21.334  33.475  0.00  0.00    +0.066 C 
ENDBRANCH  19  20
ENDBRANCH  18  19
ENDBRANCH  14  15
ENDBRANCH  12  13
TORSDOF 6
ENDMDL
MODEL 2
REMARK VINA RESULT:      -8.3     27.804     29.822
REMARK  Name = C:\Users\Docking\Desktop\test protocol\1iep_ligandH.pdb
REMARK  8 active torsions:
REMARK  status: ('A' for Active; 'I' for Inactive)
REMARK    1  A    between atoms: _5  and  _11
REMARK    2  A    between atoms: _19  and  _21
REMARK    3  A    between atoms: _22  and  _66
REMARK    4  A    between atoms: _27  and  _30
REMARK    5  A    between atoms: _32  and  _33
REMARK    6  A    between atoms: _38  and  _43
REMARK    7  A    between atoms: _43  and  _46
REMARK    8  A    between atoms: _53  and  _55
REMARK                            x       y       z     vdW  Elec       q    Type
REMARK                         _______ _______ _______ _____ _____    ______ ____
ROOT
ATOM     10  C   UNL     1      42.819  26.746  59.219  0.00  0.00    +0.038 A 
ATOM     11  C   UNL     1      42.295  27.696  58.306  0.00  0.00    +0.047 A 
ATOM     12  C   UNL     1      42.125  27.373  56.897  0.00  0.00    +0.035 A 
ATOM     32  C   UNL     1      42.498  26.071  56.454  0.00  0.00    +0.024 A 
ATOM     33  C   UNL     1      43.033  25.093  57.368  0.00  0.00    +0.007 A 
ATOM     34  C   UNL     1      43.205  25.406  58.757  0.00  0.00    -0.029 A 
ATOM     35  C   UNL     1      43.790  24.321  59.691  0.00  0.00    +0.045 C 
ENDROOT
BRANCH  10   9
ATOM      4  C   UNL     1      41.148  27.111  63.703  0.00  0.00    +0.077 A 
ATOM      5  C   UNL     1      39.877  26.555  63.338  0.00  0.00    +0.048 A 
ATOM      6  C   UNL     1      39.691  26.194  61.985  0.00  0.00    +0.116 A 
ATOM      7  N   UNL     1      40.708  26.380  61.073  0.00  0.00    -0.223 NA
ATOM      8  C   UNL     1      41.921  26.921  61.458  0.00  0.00    +0.220 A 
ATOM      9  N   UNL     1      42.960  27.109  60.560  0.00  0.00    -0.283 N 
ATOM     36  H   UNL     1      43.837  27.518  60.882  0.00  0.00    +0.155 HD
ATOM     37  N   UNL     1      42.123  27.274  62.744  0.00  0.00    -0.214 NA
BRANCH   4   3
ATOM      1  C   UNL     1      41.341  27.329  67.604  0.00  0.00    +0.020 A 
ATOM      2  C   UNL     1      40.971  26.877  66.283  0.00  0.00    +0.013 A 
ATOM      3  C   UNL     1      41.498  27.537  65.095  0.00  0.00    +0.019 A 
ATOM     38  C   UNL     1      42.406  28.659  65.281  0.00  0.00    +0.120 A 
ATOM     39  N   UNL     1      42.744  29.073  66.566  0.00  0.00    -0.263 NA
ATOM     40  C   UNL     1      42.241  28.446  67.716  0.00  0.00    +0.111 A 
ENDBRANCH   4   3
ENDBRANCH  10   9
BRANCH  12  13
ATOM     13  N   UNL     1      41.606  28.300  55.922  0.00  0.00    -0.281 N 
ATOM     14  C   UNL     1      42.252  29.382  55.347  0.00  0.00    +0.248 C 
ATOM     30  O   UNL     1      43.310  29.846  55.745  0.00  0.00    -0.270 OA
ATOM     31  H   UNL     1      40.645  28.138  55.620  0.00  0.00    +0.155 HD
BRANCH  14  15
ATOM     15  C   UNL     1      41.625  30.053  54.168  0.00  0.00    +0.037 A 
ATOM     16  C   UNL     1      41.005  29.277  53.092  0.00  0.00    +0.013 A 
ATOM     17  C   UNL     1      40.423  29.949  51.958  0.00  0.00    +0.005 A 
ATOM     18  C   UNL     1      40.457  31.409  51.895  0.00  0.00    -0.033 A 
ATOM     28  C   UNL     1      41.074  32.155  52.980  0.00  0.00    +0.005 A 
ATOM     29  C   UNL     1      41.647  31.499  54.092  0.00  0.00    +0.013 A 
BRANCH  18  19
ATOM     19  C   UNL     1      39.879  32.209  50.713  0.00  0.00    +0.119 C 
BRANCH  19  20
ATOM     20  N   UNL     1      40.853  32.829  49.766  0.00  0.00    -0.302 NA
ATOM     21  C   UNL     1      40.175  33.312  48.480  0.00  0.00    +0.066 C 
ATOM     22  C   UNL     1      41.205  33.978  47.510  0.00  0.00    -0.064 C 
ATOM     23  N   UNL     1      42.321  32.982  47.193  0.00  0.00    +0.379 N 
ATOM     24  C   UNL     1      43.260  33.585  46.236  0.00  0.00    -0.096 C 
ATOM     25  H   UNL     1      41.855  32.098  46.699  0.00  0.00    -0.082 HD
ATOM     26  C   UNL     1      42.998  32.495  48.467  0.00  0.00    -0.064 C 
ATOM     27  C   UNL     1      41.962  31.861  49.436  0.00  0.00    +0.066 C 
ENDBRANCH  19  20
ENDBRANCH  18  19
ENDBRANCH  14  15
ENDBRANCH  12  13
TORSDOF 6
ENDMDL
MODEL 3
REMARK VINA RESULT:      -8.1      6.710     10.791
REMARK  Name = C:\Users\Docking\Desktop\test protocol\1iep_ligandH.pdb
REMARK  8 active torsions:
REMARK  status: ('A' for Active; 'I' for Inactive)
REMARK    1  A    between atoms: _5  and  _11
REMARK    2  A    between atoms: _19  and  _21
REMARK    3  A    between atoms: _22  and  _66
REMARK    4  A    between atoms: _27  and  _30
REMARK    5  A    between atoms: _32  and  _33
REMARK    6  A    between atoms: _38  and  _43
REMARK    7  A    between atoms: _43  and  _46
REMARK    8  A    between atoms: _53  and  _55
REMARK                            x       y       z     vdW  Elec       q    Type
REMARK                         _______ _______ _______ _____ _____    ______ ____
ROOT
ATOM     10  C   UNL     1      62.531  17.522  43.407  0.00  0.00    +0.038 A 
ATOM     11  C   UNL     1      61.993  18.252  44.497  0.00  0.00    +0.047 A 
ATOM     12  C   UNL     1      62.235  19.679  44.640  0.00  0.00    +0.035 A 
ATOM     32  C   UNL     1      63.028  20.332  43.651  0.00  0.00    +0.024 A 
ATOM     33  C   UNL     1      63.583  19.605  42.536  0.00  0.00    +0.007 A 
ATOM     34  C   UNL     1      63.349  18.197  42.392  0.00  0.00    -0.029 A 
ATOM     35  C   UNL     1      63.974  17.467  41.180  0.00  0.00    +0.045 C 
ENDROOT
BRANCH  10   9
ATOM      4  C   UNL     1      63.525  12.944  44.451  0.00  0.00    +0.077 A 
ATOM      5  C   UNL     1      64.685  13.308  45.213  0.00  0.00    +0.048 A 
ATOM      6  C   UNL     1      64.995  14.683  45.306  0.00  0.00    +0.116 A 
ATOM      7  N   UNL     1      64.197  15.616  44.679  0.00  0.00    -0.223 NA
ATOM      8  C   UNL     1      63.087  15.231  43.951  0.00  0.00    +0.220 A 
ATOM      9  N   UNL     1      62.266  16.153  43.319  0.00  0.00    -0.283 N 
ATOM     36  H   UNL     1      61.461  15.829  42.785  0.00  0.00    +0.155 HD
ATOM     37  N   UNL     1      62.770  13.924  43.846  0.00  0.00    -0.214 NA
BRANCH   4   3
ATOM      1  C   UNL     1      61.333   9.705  44.418  0.00  0.00    +0.020 A 
ATOM      2  C   UNL     1      61.727  11.080  44.620  0.00  0.00    +0.013 A 
ATOM      3  C   UNL     1      63.066  11.532  44.263  0.00  0.00    +0.019 A 
ATOM     38  C   UNL     1      63.989  10.559  43.698  0.00  0.00    +0.120 A 
ATOM     39  N   UNL     1      63.582   9.241  43.516  0.00  0.00    -0.263 NA
ATOM     40  C   UNL     1      62.297   8.794  43.858  0.00  0.00    +0.111 A 
ENDBRANCH   4   3
ENDBRANCH  10   9
BRANCH  12  13
ATOM     13  N   UNL     1      61.723  20.471  45.730  0.00  0.00    -0.281 N 
ATOM     14  C   UNL     1      60.423  20.910  45.927  0.00  0.00    +0.248 C 
ATOM     30  O   UNL     1      59.544  20.867  45.079  0.00  0.00    -0.270 OA
ATOM     31  H   UNL     1      62.400  20.741  46.444  0.00  0.00    +0.155 HD
BRANCH  14  15
ATOM     15  C   UNL     1      60.051  21.494  47.251  0.00  0.00    +0.037 A 
ATOM     16  C   UNL     1      58.728  22.080  47.478  0.00  0.00    +0.013 A 
ATOM     17  C   UNL     1      58.401  22.652  48.760  0.00  0.00    +0.005 A 
ATOM     18  C   UNL     1      59.399  22.638  49.827  0.00  0.00    -0.033 A 
ATOM     28  C   UNL     1      60.702  22.045  49.576  0.00  0.00    +0.005 A 
ATOM     29  C   UNL     1      61.027  21.485  48.320  0.00  0.00    +0.013 A 
BRANCH  18  19
ATOM     19  C   UNL     1      59.144  23.245  51.219  0.00  0.00    +0.119 C 
BRANCH  19  20
ATOM     20  N   UNL     1      58.105  24.313  51.320  0.00  0.00    -0.302 NA
ATOM     21  C   UNL     1      58.660  25.690  50.946  0.00  0.00    +0.066 C 
ATOM     22  C   UNL     1      57.554  26.792  51.035  0.00  0.00    -0.064 C 
ATOM     23  N   UNL     1      56.968  26.810  52.448  0.00  0.00    +0.379 N 
ATOM     24  C   UNL     1      55.969  27.884  52.551  0.00  0.00    -0.096 C 
ATOM     25  H   UNL     1      57.797  27.049  53.154  0.00  0.00    -0.082 HD
ATOM     26  C   UNL     1      56.417  25.443  52.829  0.00  0.00    -0.064 C 
ATOM     27  C   UNL     1      57.516  24.351  52.709  0.00  0.00    +0.066 C 
ENDBRANCH  19  20
ENDBRANCH  18  19
ENDBRANCH  14  15
ENDBRANCH  12  13
TORSDOF 6
ENDMDL
MODEL 4
REMARK VINA RESULT:      -8.1      2.963     13.910
REMARK  Name = C:\Users\Docking\Desktop\test protocol\1iep_ligandH.pdb
REMARK  8 active torsions:
REMARK  status: ('A' for Active; 'I' for Inactive)
REMARK    1  A    between atoms: _5  and  _11
REMARK    2  A    between atoms: _19  and  _21
REMARK    3  A    between atoms: _22  and  _66
REMARK    4  A    between atoms: _27  and  _30
REMARK    5  A    between atoms: _32  and  _33
REMARK    6  A    between atoms: _38  and  _43
REMARK    7  A    between atoms: _43  and  _46
REMARK    8  A    between atoms: _53  and  _55
REMARK                            x       y       z     vdW  Elec       q    Type
REMARK                         _______ _______ _______ _____ _____    ______ ____
ROOT
ATOM     10  C   UNL     1      62.089  15.584  44.231  0.00  0.00    +0.038 A 
ATOM     11  C   UNL     1      61.686  14.226  44.146  0.00  0.00    +0.047 A 
ATOM     12  C   UNL     1      61.765  13.344  45.300  0.00  0.00    +0.035 A 
ATOM     32  C   UNL     1      62.258  13.879  46.526  0.00  0.00    +0.024 A 
ATOM     33  C   UNL     1      62.673  15.256  46.630  0.00  0.00    +0.007 A 
ATOM     34  C   UNL     1      62.599  16.130  45.494  0.00  0.00    -0.029 A 
ATOM     35  C   UNL     1      63.063  17.595  45.662  0.00  0.00    +0.045 C 
ENDROOT
BRANCH  10   9
ATOM      4  C   UNL     1      63.827  17.294  40.097  0.00  0.00    +0.077 A 
ATOM      5  C   UNL     1      65.045  16.547  40.232  0.00  0.00    +0.048 A 
ATOM      6  C   UNL     1      65.187  15.740  41.383  0.00  0.00    +0.116 A 
ATOM      7  N   UNL     1      64.180  15.691  42.323  0.00  0.00    -0.223 NA
ATOM      8  C   UNL     1      63.020  16.426  42.163  0.00  0.00    +0.220 A 
ATOM      9  N   UNL     1      61.991  16.386  43.092  0.00  0.00    -0.283 N 
ATOM     36  H   UNL     1      61.154  16.948  42.941  0.00  0.00    +0.155 HD
ATOM     37  N   UNL     1      62.860  17.205  41.073  0.00  0.00    -0.214 NA
BRANCH   4   3
ATOM      1  C   UNL     1      63.004  20.440  37.923  0.00  0.00    +0.020 A 
ATOM      2  C   UNL     1      63.289  19.620  39.078  0.00  0.00    +0.013 A 
ATOM      3  C   UNL     1      63.527  18.189  38.935  0.00  0.00    +0.019 A 
ATOM     38  C   UNL     1      63.470  17.615  37.599  0.00  0.00    +0.120 A 
ATOM     39  N   UNL     1      63.191  18.429  36.506  0.00  0.00    -0.263 NA
ATOM     40  C   UNL     1      62.959  19.807  36.632  0.00  0.00    +0.111 A 
ENDBRANCH   4   3
ENDBRANCH  10   9
BRANCH  12  13
ATOM     13  N   UNL     1      61.378  11.956  45.272  0.00  0.00    -0.281 N 
ATOM     14  C   UNL     1      62.080  10.886  44.740  0.00  0.00    +0.248 C 
ATOM     30  O   UNL     1      63.057  10.994  44.013  0.00  0.00    -0.270 OA
ATOM     31  H   UNL     1      60.477  11.734  45.695  0.00  0.00    +0.155 HD
BRANCH  14  15
ATOM     15  C   UNL     1      61.623   9.497  45.047  0.00  0.00    +0.037 A 
ATOM     16  C   UNL     1      60.759   9.219  46.198  0.00  0.00    +0.013 A 
ATOM     17  C   UNL     1      60.346   7.867  46.482  0.00  0.00    +0.005 A 
ATOM     18  C   UNL     1      60.796   6.783  45.612  0.00  0.00    -0.033 A 
ATOM     28  C   UNL     1      61.648   7.088  44.475  0.00  0.00    +0.005 A 
ATOM     29  C   UNL     1      62.056   8.412  44.194  0.00  0.00    +0.013 A 
BRANCH  18  19
ATOM     19  C   UNL     1      60.422   5.309  45.852  0.00  0.00    +0.119 C 
BRANCH  19  20
ATOM     20  N   UNL     1      61.071   4.617  47.005  0.00  0.00    -0.302 NA
ATOM     21  C   UNL     1      61.651   3.257  46.607  0.00  0.00    +0.066 C 
ATOM     22  C   UNL     1      62.347   2.557  47.820  0.00  0.00    -0.064 C 
ATOM     23  N   UNL     1      61.341   2.404  48.962  0.00  0.00    +0.379 N 
ATOM     24  C   UNL     1      61.975   1.695  50.083  0.00  0.00    -0.096 C 
ATOM     25  H   UNL     1      60.502   1.770  48.591  0.00  0.00    -0.082 HD
ATOM     26  C   UNL     1      60.757   3.752  49.362  0.00  0.00    -0.064 C 
ATOM     27  C   UNL     1      60.094   4.451  48.143  0.00  0.00    +0.066 C 
ENDBRANCH  19  20
ENDBRANCH  18  19
ENDBRANCH  14  15
ENDBRANCH  12  13
TORSDOF 6
ENDMDL
MODEL 5
REMARK VINA RESULT:      -8.1     55.567     59.480
REMARK  Name = C:\Users\Docking\Desktop\test protocol\1iep_ligandH.pdb
REMARK  8 active torsions:
REMARK  status: ('A' for Active; 'I' for Inactive)
REMARK    1  A    between atoms: _5  and  _11
REMARK    2  A    between atoms: _19  and  _21
REMARK    3  A    between atoms: _22  and  _66
REMARK    4  A    between atoms: _27  and  _30
REMARK    5  A    between atoms: _32  and  _33
REMARK    6  A    between atoms: _38  and  _43
REMARK    7  A    between atoms: _43  and  _46
REMARK    8  A    between atoms: _53  and  _55
REMARK                            x       y       z     vdW  Elec       q    Type
REMARK                         _______ _______ _______ _____ _____    ______ ____
ROOT
ATOM     10  C   UNL     1      13.667  41.070  29.363  0.00  0.00    +0.038 A 
ATOM     11  C   UNL     1      13.136  40.767  30.642  0.00  0.00    +0.047 A 
ATOM     12  C   UNL     1      14.005  40.591  31.795  0.00  0.00    +0.035 A 
ATOM     32  C   UNL     1      15.411  40.733  31.610  0.00  0.00    +0.024 A 
ATOM     33  C   UNL     1      15.968  41.039  30.316  0.00  0.00    +0.007 A 
ATOM     34  C   UNL     1      15.116  41.212  29.174  0.00  0.00    -0.029 A 
ATOM     35  C   UNL     1      15.769  41.534  27.810  0.00  0.00    +0.045 C 
ENDROOT
BRANCH  10   9
ATOM      4  C   UNL     1      10.951  43.785  26.483  0.00  0.00    +0.077 A 
ATOM      5  C   UNL     1      11.294  44.984  27.192  0.00  0.00    +0.048 A 
ATOM      6  C   UNL     1      12.167  44.858  28.296  0.00  0.00    +0.116 A 
ATOM      7  N   UNL     1      12.654  43.620  28.655  0.00  0.00    -0.223 NA
ATOM      8  C   UNL     1      12.302  42.483  27.952  0.00  0.00    +0.220 A 
ATOM      9  N   UNL     1      12.787  41.229  28.290  0.00  0.00    -0.283 N 
ATOM     36  H   UNL     1      12.497  40.414  27.751  0.00  0.00    +0.155 HD
ATOM     37  N   UNL     1      11.469  42.577  26.894  0.00  0.00    -0.214 NA
BRANCH   4   3
ATOM      1  C   UNL     1       8.936  42.582  23.354  0.00  0.00    +0.020 A 
ATOM      2  C   UNL     1       9.824  42.557  24.494  0.00  0.00    +0.013 A 
ATOM      3  C   UNL     1      10.043  43.755  25.294  0.00  0.00    +0.019 A 
ATOM     38  C   UNL     1       9.342  44.972  24.911  0.00  0.00    +0.120 A 
ATOM     39  N   UNL     1       8.494  44.966  23.808  0.00  0.00    -0.263 NA
ATOM     40  C   UNL     1       8.277  43.819  23.030  0.00  0.00    +0.111 A 
ENDBRANCH   4   3
ENDBRANCH  10   9
BRANCH  12  13
ATOM     13  N   UNL     1      13.524  40.274  33.117  0.00  0.00    -0.281 N 
ATOM     14  C   UNL     1      12.981  41.137  34.055  0.00  0.00    +0.248 C 
ATOM     30  O   UNL     1      13.025  42.356  33.980  0.00  0.00    -0.270 OA
ATOM     31  H   UNL     1      13.591  39.295  33.395  0.00  0.00    +0.155 HD
BRANCH  14  15
ATOM     15  C   UNL     1      12.306  40.563  35.259  0.00  0.00    +0.037 A 
ATOM     16  C   UNL     1      13.079  39.991  36.364  0.00  0.00    +0.013 A 
ATOM     17  C   UNL     1      12.401  39.428  37.505  0.00  0.00    +0.005 A 
ATOM     18  C   UNL     1      10.941  39.438  37.548  0.00  0.00    -0.033 A 
ATOM     28  C   UNL     1      10.199  40.017  36.440  0.00  0.00    +0.005 A 
ATOM     29  C   UNL     1      10.859  40.568  35.319  0.00  0.00    +0.013 A 
BRANCH  18  19
ATOM     19  C   UNL     1      10.134  38.841  38.716  0.00  0.00    +0.119 C 
BRANCH  19  20
ATOM     20  N   UNL     1       8.647  38.954  38.648  0.00  0.00    -0.302 NA
ATOM     21  C   UNL     1       8.121  40.120  39.489  0.00  0.00    +0.066 C 
ATOM     22  C   UNL     1       6.565  40.238  39.389  0.00  0.00    -0.064 C 
ATOM     23  N   UNL     1       5.927  38.920  39.832  0.00  0.00    +0.379 N 
ATOM     24  C   UNL     1       4.463  39.047  39.794  0.00  0.00    -0.096 C 
ATOM     25  H   UNL     1       6.224  38.740  40.891  0.00  0.00    -0.082 HD
ATOM     26  C   UNL     1       6.447  37.754  39.003  0.00  0.00    -0.064 C 
ATOM     27  C   UNL     1       7.996  37.665  39.085  0.00  0.00    +0.066 C 
ENDBRANCH  19  20
ENDBRANCH  18  19
ENDBRANCH  14  15
ENDBRANCH  12  13
TORSDOF 6
ENDMDL
