MODEL 1
REMARK VINA RESULT:     -10.8      0.000      0.000
REMARK  Name = C:\Users\Docking\Desktop\test protocol\1iep_ligandH.pdb
REMARK  8 active torsions:
REMARK  status: ('A' for Active; 'I' for Inactive)
REMARK    1  A    between atoms: _5  and  _11
REMARK    2  A    between atoms: _19  and  _21
REMARK    3  A    between atoms: _22  and  _66
REMARK    4  A    between atoms: _27  and  _30
REMARK    5  A    between atoms: _32  and  _33
REMARK    6  A    between atoms: _38  and  _43
REMARK    7  A    between atoms: _43  and  _46
REMARK    8  A    between atoms: _53  and  _55
REMARK                            x       y       z     vdW  Elec       q    Type
REMARK                         _______ _______ _______ _____ _____    ______ ____
ROOT
ATOM     10  C   UNL     1       7.011  24.051   7.717  0.00  0.00    +0.038 A 
ATOM     11  C   UNL     1       6.492  24.777   6.614  0.00  0.00    +0.047 A 
ATOM     12  C   UNL     1       6.447  26.231   6.625  0.00  0.00    +0.035 A 
ATOM     32  C   UNL     1       6.942  26.914   7.774  0.00  0.00    +0.024 A 
ATOM     33  C   UNL     1       7.473  26.192   8.903  0.00  0.00    +0.007 A 
ATOM     34  C   UNL     1       7.517  24.757   8.900  0.00  0.00    -0.029 A 
ATOM     35  C   UNL     1       8.090  24.035  10.141  0.00  0.00    +0.045 C 
ENDROOT
BRANCH  10   9
ATOM      4  C   UNL     1       5.252  19.737   8.870  0.00  0.00    +0.077 A 
ATOM      5  C   UNL     1       4.223  20.310   9.690  0.00  0.00    +0.048 A 
ATOM      6  C   UNL     1       4.186  21.719   9.794  0.00  0.00    +0.116 A 
ATOM      7  N   UNL     1       5.113  22.487   9.124  0.00  0.00    -0.223 NA
ATOM      8  C   UNL     1       6.093  21.902   8.342  0.00  0.00    +0.220 A 
ATOM      9  N   UNL     1       7.030  22.656   7.653  0.00  0.00    -0.283 N 
ATOM     36  H   UNL     1       7.742  22.186   7.093  0.00  0.00    +0.155 HD
ATOM     37  N   UNL     1       6.151  20.559   8.228  0.00  0.00    -0.214 NA
BRANCH   4   3
ATOM      1  C   UNL     1       6.059  15.952   9.436  0.00  0.00    +0.020 A 
ATOM      2  C   UNL     1       5.916  17.366   9.693  0.00  0.00    +0.013 A 
ATOM      3  C   UNL     1       5.419  18.264   8.658  0.00  0.00    +0.019 A 
ATOM     38  C   UNL     1       5.072  17.695   7.364  0.00  0.00    +0.120 A 
ATOM     39  N   UNL     1       5.222  16.329   7.146  0.00  0.00    -0.263 NA
ATOM     40  C   UNL     1       5.700  15.455   8.134  0.00  0.00    +0.111 A 
ENDBRANCH   4   3
ENDBRANCH  10   9
BRANCH  12  13
ATOM     13  N   UNL     1       5.924  27.021   5.538  0.00  0.00    -0.281 N 
ATOM     14  C   UNL     1       4.642  27.005   5.014  0.00  0.00    +0.248 C 
ATOM     30  O   UNL     1       3.804  26.151   5.262  0.00  0.00    -0.270 OA
ATOM     31  H   UNL     1       6.578  27.672   5.103  0.00  0.00    +0.155 HD
BRANCH  14  15
ATOM     15  C   UNL     1       4.236  28.087   4.066  0.00  0.00    +0.037 A 
ATOM     16  C   UNL     1       3.581  29.308   4.542  0.00  0.00    +0.013 A 
ATOM     17  C   UNL     1       3.184  30.329   3.604  0.00  0.00    +0.005 A 
ATOM     18  C   UNL     1       3.443  30.133   2.180  0.00  0.00    -0.033 A 
ATOM     28  C   UNL     1       4.100  28.914   1.736  0.00  0.00    +0.005 A 
ATOM     29  C   UNL     1       4.489  27.911   2.652  0.00  0.00    +0.013 A 
BRANCH  18  19
ATOM     19  C   UNL     1       3.036  31.159   1.107  0.00  0.00    +0.119 C 
BRANCH  19  20
ATOM     20  N   UNL     1       2.012  32.178   1.488  0.00  0.00    -0.302 NA
ATOM     21  C   UNL     1       0.616  31.565   1.626  0.00  0.00    +0.066 C 
ATOM     22  C   UNL     1      -0.438  32.640   2.048  0.00  0.00    -0.064 C 
ATOM     23  N   UNL     1      -0.443  33.775   1.022  0.00  0.00    +0.379 N 
ATOM     24  C   UNL     1      -1.474  34.759   1.385  0.00  0.00    -0.096 C 
ATOM     25  H   UNL     1      -0.725  33.338   0.036  0.00  0.00    -0.082 HD
ATOM     26  C   UNL     1       0.942  34.388   0.877  0.00  0.00    -0.064 C 
ATOM     27  C   UNL     1       1.987  33.306   0.487  0.00  0.00    +0.066 C 
ENDBRANCH  19  20
ENDBRANCH  18  19
ENDBRANCH  14  15
ENDBRANCH  12  13
TORSDOF 6
ENDMDL
MODEL 2
REMARK VINA RESULT:      -9.4      3.663      4.922
REMARK  Name = C:\Users\Docking\Desktop\test protocol\1iep_ligandH.pdb
REMARK  8 active torsions:
REMARK  status: ('A' for Active; 'I' for Inactive)
REMARK    1  A    between atoms: _5  and  _11
REMARK    2  A    between atoms: _19  and  _21
REMARK    3  A    between atoms: _22  and  _66
REMARK    4  A    between atoms: _27  and  _30
REMARK    5  A    between atoms: _32  and  _33
REMARK    6  A    between atoms: _38  and  _43
REMARK    7  A    between atoms: _43  and  _46
REMARK    8  A    between atoms: _53  and  _55
REMARK                            x       y       z     vdW  Elec       q    Type
REMARK                         _______ _______ _______ _____ _____    ______ ____
ROOT
ATOM     10  C   UNL     1       4.063  23.162   7.231  0.00  0.00    +0.038 A 
ATOM     11  C   UNL     1       4.304  23.884   6.035  0.00  0.00    +0.047 A 
ATOM     12  C   UNL     1       4.129  25.327   5.978  0.00  0.00    +0.035 A 
ATOM     32  C   UNL     1       3.710  26.003   7.161  0.00  0.00    +0.024 A 
ATOM     33  C   UNL     1       3.459  25.284   8.386  0.00  0.00    +0.007 A 
ATOM     34  C   UNL     1       3.628  23.861   8.446  0.00  0.00    -0.029 A 
ATOM     35  C   UNL     1       3.339  23.141   9.784  0.00  0.00    +0.045 C 
ENDROOT
BRANCH  10   9
ATOM      4  C   UNL     1       6.842  19.260   7.537  0.00  0.00    +0.077 A 
ATOM      5  C   UNL     1       8.032  20.047   7.688  0.00  0.00    +0.048 A 
ATOM      6  C   UNL     1       7.887  21.453   7.675  0.00  0.00    +0.116 A 
ATOM      7  N   UNL     1       6.639  22.018   7.521  0.00  0.00    -0.223 NA
ATOM      8  C   UNL     1       5.512  21.230   7.376  0.00  0.00    +0.220 A 
ATOM      9  N   UNL     1       4.247  21.777   7.228  0.00  0.00    -0.283 N 
ATOM     36  H   UNL     1       3.442  21.162   7.117  0.00  0.00    +0.155 HD
ATOM     37  N   UNL     1       5.625  19.885   7.384  0.00  0.00    -0.214 NA
BRANCH   4   3
ATOM      1  C   UNL     1       7.973  15.520   7.359  0.00  0.00    +0.020 A 
ATOM      2  C   UNL     1       8.037  16.963   7.353  0.00  0.00    +0.013 A 
ATOM      3  C   UNL     1       6.832  17.763   7.534  0.00  0.00    +0.019 A 
ATOM     38  C   UNL     1       5.569  17.066   7.721  0.00  0.00    +0.120 A 
ATOM     39  N   UNL     1       5.538  15.675   7.721  0.00  0.00    -0.263 NA
ATOM     40  C   UNL     1       6.690  14.895   7.546  0.00  0.00    +0.111 A 
ENDBRANCH   4   3
ENDBRANCH  10   9
BRANCH  12  13
ATOM     13  N   UNL     1       4.352  26.113   4.790  0.00  0.00    -0.281 N 
ATOM     14  C   UNL     1       5.559  26.418   4.184  0.00  0.00    +0.248 C 
ATOM     30  O   UNL     1       6.654  26.238   4.697  0.00  0.00    -0.270 OA
ATOM     31  H   UNL     1       3.517  26.490   4.341  0.00  0.00    +0.155 HD
BRANCH  14  15
ATOM     15  C   UNL     1       5.549  27.024   2.818  0.00  0.00    +0.037 A 
ATOM     16  C   UNL     1       6.633  26.769   1.866  0.00  0.00    +0.013 A 
ATOM     17  C   UNL     1       6.607  27.380   0.560  0.00  0.00    +0.005 A 
ATOM     18  C   UNL     1       5.491  28.250   0.199  0.00  0.00    -0.033 A 
ATOM     28  C   UNL     1       4.427  28.482   1.161  0.00  0.00    +0.005 A 
ATOM     29  C   UNL     1       4.449  27.886   2.442  0.00  0.00    +0.013 A 
BRANCH  18  19
ATOM     19  C   UNL     1       5.392  28.961  -1.164  0.00  0.00    +0.119 C 
BRANCH  19  20
ATOM     20  N   UNL     1       5.338  28.098  -2.382  0.00  0.00    -0.302 NA
ATOM     21  C   UNL     1       6.245  28.623  -3.498  0.00  0.00    +0.066 C 
ATOM     22  C   UNL     1       6.194  27.696  -4.757  0.00  0.00    -0.064 C 
ATOM     23  N   UNL     1       4.748  27.582  -5.243  0.00  0.00    +0.379 N 
ATOM     24  C   UNL     1       4.704  26.758  -6.460  0.00  0.00    -0.096 C 
ATOM     25  H   UNL     1       4.401  28.606  -5.514  0.00  0.00    -0.082 HD
ATOM     26  C   UNL     1       3.838  27.064  -4.139  0.00  0.00    -0.064 C 
ATOM     27  C   UNL     1       3.919  27.975  -2.882  0.00  0.00    +0.066 C 
ENDBRANCH  19  20
ENDBRANCH  18  19
ENDBRANCH  14  15
ENDBRANCH  12  13
TORSDOF 6
ENDMDL
MODEL 3
REMARK VINA RESULT:      -9.1      6.157     12.975
REMARK  Name = C:\Users\Docking\Desktop\test protocol\1iep_ligandH.pdb
REMARK  8 active torsions:
REMARK  status: ('A' for Active; 'I' for Inactive)
REMARK    1  A    between atoms: _5  and  _11
REMARK    2  A    between atoms: _19  and  _21
REMARK    3  A    between atoms: _22  and  _66
REMARK    4  A    between atoms: _27  and  _30
REMARK    5  A    between atoms: _32  and  _33
REMARK    6  A    between atoms: _38  and  _43
REMARK    7  A    between atoms: _43  and  _46
REMARK    8  A    between atoms: _53  and  _55
REMARK                            x       y       z     vdW  Elec       q    Type
REMARK                         _______ _______ _______ _____ _____    ______ ____
ROOT
ATOM     10  C   UNL     1       8.094  27.891  -2.927  0.00  0.00    +0.038 A 
ATOM     11  C   UNL     1       7.878  27.149  -1.737  0.00  0.00    +0.047 A 
ATOM     12  C   UNL     1       8.648  27.417  -0.533  0.00  0.00    +0.035 A 
ATOM     32  C   UNL     1       9.628  28.451  -0.574  0.00  0.00    +0.024 A 
ATOM     33  C   UNL     1       9.862  29.214  -1.775  0.00  0.00    +0.007 A 
ATOM     34  C   UNL     1       9.107  28.952  -2.967  0.00  0.00    -0.029 A 
ATOM     35  C   UNL     1       9.404  29.797  -4.227  0.00  0.00    +0.045 C 
ENDROOT
BRANCH  10   9
ATOM      4  C   UNL     1       3.877  27.356  -5.156  0.00  0.00    +0.077 A 
ATOM      5  C   UNL     1       3.141  27.674  -3.967  0.00  0.00    +0.048 A 
ATOM      6  C   UNL     1       3.885  27.963  -2.801  0.00  0.00    +0.116 A 
ATOM      7  N   UNL     1       5.262  27.933  -2.834  0.00  0.00    -0.223 NA
ATOM      8  C   UNL     1       5.942  27.620  -3.997  0.00  0.00    +0.220 A 
ATOM      9  N   UNL     1       7.326  27.591  -4.054  0.00  0.00    -0.283 N 
ATOM     36  H   UNL     1       7.790  27.348  -4.930  0.00  0.00    +0.155 HD
ATOM     37  N   UNL     1       5.254  27.339  -5.123  0.00  0.00    -0.214 NA
BRANCH   4   3
ATOM      1  C   UNL     1       2.669  27.552  -8.871  0.00  0.00    +0.020 A 
ATOM      2  C   UNL     1       3.307  27.913  -7.627  0.00  0.00    +0.013 A 
ATOM      3  C   UNL     1       3.234  27.031  -6.469  0.00  0.00    +0.019 A 
ATOM     38  C   UNL     1       2.501  25.781  -6.604  0.00  0.00    +0.120 A 
ATOM     39  N   UNL     1       1.895  25.461  -7.815  0.00  0.00    -0.263 NA
ATOM     40  C   UNL     1       1.958  26.302  -8.936  0.00  0.00    +0.111 A 
ENDBRANCH   4   3
ENDBRANCH  10   9
BRANCH  12  13
ATOM     13  N   UNL     1       8.478  26.692   0.702  0.00  0.00    -0.281 N 
ATOM     14  C   UNL     1       7.331  26.572   1.468  0.00  0.00    +0.248 C 
ATOM     30  O   UNL     1       6.325  27.251   1.319  0.00  0.00    -0.270 OA
ATOM     31  H   UNL     1       9.304  26.207   1.053  0.00  0.00    +0.155 HD
BRANCH  14  15
ATOM     15  C   UNL     1       7.300  25.562   2.570  0.00  0.00    +0.037 A 
ATOM     16  C   UNL     1       7.787  24.195   2.361  0.00  0.00    +0.013 A 
ATOM     17  C   UNL     1       7.730  23.236   3.435  0.00  0.00    +0.005 A 
ATOM     18  C   UNL     1       7.186  23.640   4.729  0.00  0.00    -0.033 A 
ATOM     28  C   UNL     1       6.715  25.004   4.910  0.00  0.00    +0.005 A 
ATOM     29  C   UNL     1       6.768  25.947   3.859  0.00  0.00    +0.013 A 
BRANCH  18  19
ATOM     19  C   UNL     1       7.067  22.677   5.925  0.00  0.00    +0.119 C 
BRANCH  19  20
ATOM     20  N   UNL     1       6.029  22.987   6.953  0.00  0.00    -0.302 NA
ATOM     21  C   UNL     1       6.305  22.277   8.281  0.00  0.00    +0.066 C 
ATOM     22  C   UNL     1       5.221  22.630   9.351  0.00  0.00    -0.064 C 
ATOM     23  N   UNL     1       3.838  22.256   8.815  0.00  0.00    +0.379 N 
ATOM     24  C   UNL     1       2.823  22.533   9.841  0.00  0.00    -0.096 C 
ATOM     25  H   UNL     1       3.836  21.158   8.624  0.00  0.00    -0.082 HD
ATOM     26  C   UNL     1       3.557  22.956   7.493  0.00  0.00    -0.064 C 
ATOM     27  C   UNL     1       4.655  22.622   6.445  0.00  0.00    +0.066 C 
ENDBRANCH  19  20
ENDBRANCH  18  19
ENDBRANCH  14  15
ENDBRANCH  12  13
TORSDOF 6
ENDMDL
MODEL 4
REMARK VINA RESULT:      -8.7      3.347      4.573
REMARK  Name = C:\Users\Docking\Desktop\test protocol\1iep_ligandH.pdb
REMARK  8 active torsions:
REMARK  status: ('A' for Active; 'I' for Inactive)
REMARK    1  A    between atoms: _5  and  _11
REMARK    2  A    between atoms: _19  and  _21
REMARK    3  A    between atoms: _22  and  _66
REMARK    4  A    between atoms: _27  and  _30
REMARK    5  A    between atoms: _32  and  _33
REMARK    6  A    between atoms: _38  and  _43
REMARK    7  A    between atoms: _43  and  _46
REMARK    8  A    between atoms: _53  and  _55
REMARK                            x       y       z     vdW  Elec       q    Type
REMARK                         _______ _______ _______ _____ _____    ______ ____
ROOT
ATOM     10  C   UNL     1       6.933  23.743   7.189  0.00  0.00    +0.038 A 
ATOM     11  C   UNL     1       6.570  24.192   5.894  0.00  0.00    +0.047 A 
ATOM     12  C   UNL     1       6.234  25.585   5.647  0.00  0.00    +0.035 A 
ATOM     32  C   UNL     1       6.279  26.495   6.743  0.00  0.00    +0.024 A 
ATOM     33  C   UNL     1       6.644  26.056   8.067  0.00  0.00    +0.007 A 
ATOM     34  C   UNL     1       6.975  24.682   8.317  0.00  0.00    -0.029 A 
ATOM     35  C   UNL     1       7.353  24.265   9.757  0.00  0.00    +0.045 C 
ENDROOT
BRANCH  10   9
ATOM      4  C   UNL     1       5.904  19.334   8.783  0.00  0.00    +0.077 A 
ATOM      5  C   UNL     1       4.647  19.759   9.327  0.00  0.00    +0.048 A 
ATOM      6  C   UNL     1       4.306  21.123   9.182  0.00  0.00    +0.116 A 
ATOM      7  N   UNL     1       5.165  21.987   8.539  0.00  0.00    -0.223 NA
ATOM      8  C   UNL     1       6.371  21.544   8.027  0.00  0.00    +0.220 A 
ATOM      9  N   UNL     1       7.247  22.394   7.369  0.00  0.00    -0.283 N 
ATOM     36  H   UNL     1       8.130  22.030   7.012  0.00  0.00    +0.155 HD
ATOM     37  N   UNL     1       6.721  20.247   8.154  0.00  0.00    -0.214 NA
BRANCH   4   3
ATOM      1  C   UNL     1       7.999  16.082   8.201  0.00  0.00    +0.020 A 
ATOM      2  C   UNL     1       7.557  17.453   8.096  0.00  0.00    +0.013 A 
ATOM      3  C   UNL     1       6.404  17.924   8.854  0.00  0.00    +0.019 A 
ATOM     38  C   UNL     1       5.717  16.975   9.716  0.00  0.00    +0.120 A 
ATOM     39  N   UNL     1       6.164  15.660   9.795  0.00  0.00    -0.263 NA
ATOM     40  C   UNL     1       7.271  15.195   9.070  0.00  0.00    +0.111 A 
ENDBRANCH   4   3
ENDBRANCH  10   9
BRANCH  12  13
ATOM     13  N   UNL     1       5.851  26.098   4.355  0.00  0.00    -0.281 N 
ATOM     14  C   UNL     1       4.999  27.154   4.076  0.00  0.00    +0.248 C 
ATOM     30  O   UNL     1       4.266  27.686   4.897  0.00  0.00    -0.270 OA
ATOM     31  H   UNL     1       6.256  25.624   3.548  0.00  0.00    +0.155 HD
BRANCH  14  15
ATOM     15  C   UNL     1       4.943  27.687   2.681  0.00  0.00    +0.037 A 
ATOM     16  C   UNL     1       3.904  28.635   2.271  0.00  0.00    +0.013 A 
ATOM     17  C   UNL     1       3.863  29.121   0.914  0.00  0.00    +0.005 A 
ATOM     18  C   UNL     1       4.866  28.660  -0.042  0.00  0.00    -0.033 A 
ATOM     28  C   UNL     1       5.889  27.723   0.393  0.00  0.00    +0.005 A 
ATOM     29  C   UNL     1       5.932  27.244   1.721  0.00  0.00    +0.013 A 
BRANCH  18  19
ATOM     19  C   UNL     1       4.885  29.109  -1.515  0.00  0.00    +0.119 C 
BRANCH  19  20
ATOM     20  N   UNL     1       5.100  28.053  -2.549  0.00  0.00    -0.302 NA
ATOM     21  C   UNL     1       6.237  28.411  -3.510  0.00  0.00    +0.066 C 
ATOM     22  C   UNL     1       6.463  27.286  -4.571  0.00  0.00    -0.064 C 
ATOM     23  N   UNL     1       5.162  27.045  -5.339  0.00  0.00    +0.379 N 
ATOM     24  C   UNL     1       5.386  26.027  -6.376  0.00  0.00    -0.096 C 
ATOM     25  H   UNL     1       4.891  27.997  -5.851  0.00  0.00    -0.082 HD
ATOM     26  C   UNL     1       4.025  26.690  -4.391  0.00  0.00    -0.064 C 
ATOM     27  C   UNL     1       3.828  27.802  -3.323  0.00  0.00    +0.066 C 
ENDBRANCH  19  20
ENDBRANCH  18  19
ENDBRANCH  14  15
ENDBRANCH  12  13
TORSDOF 6
ENDMDL
MODEL 5
REMARK VINA RESULT:      -8.7     23.665     25.620
REMARK  Name = C:\Users\Docking\Desktop\test protocol\1iep_ligandH.pdb
REMARK  8 active torsions:
REMARK  status: ('A' for Active; 'I' for Inactive)
REMARK    1  A    between atoms: _5  and  _11
REMARK    2  A    between atoms: _19  and  _21
REMARK    3  A    between atoms: _22  and  _66
REMARK    4  A    between atoms: _27  and  _30
REMARK    5  A    between atoms: _32  and  _33
REMARK    6  A    between atoms: _38  and  _43
REMARK    7  A    between atoms: _43  and  _46
REMARK    8  A    between atoms: _53  and  _55
REMARK                            x       y       z     vdW  Elec       q    Type
REMARK                         _______ _______ _______ _____ _____    ______ ____
ROOT
ATOM     10  C   UNL     1     -20.756  13.818   4.871  0.00  0.00    +0.038 A 
ATOM     11  C   UNL     1     -19.491  14.401   4.602  0.00  0.00    +0.047 A 
ATOM     12  C   UNL     1     -19.094  14.744   3.245  0.00  0.00    +0.035 A 
ATOM     32  C   UNL     1     -20.011  14.481   2.186  0.00  0.00    +0.024 A 
ATOM     33  C   UNL     1     -21.300  13.888   2.442  0.00  0.00    +0.007 A 
ATOM     34  C   UNL     1     -21.696  13.546   3.778  0.00  0.00    -0.029 A 
ATOM     35  C   UNL     1     -23.088  12.906   3.993  0.00  0.00    +0.045 C 
ENDROOT
BRANCH  10   9
ATOM      4  C   UNL     1     -20.783  10.851   8.644  0.00  0.00    +0.077 A 
ATOM      5  C   UNL     1     -20.108   9.819   7.912  0.00  0.00    +0.048 A 
ATOM      6  C   UNL     1     -19.777  10.088   6.565  0.00  0.00    +0.116 A 
ATOM      7  N   UNL     1     -20.103  11.304   6.003  0.00  0.00    -0.223 NA
ATOM      8  C   UNL     1     -20.756  12.277   6.736  0.00  0.00    +0.220 A 
ATOM      9  N   UNL     1     -21.085  13.509   6.193  0.00  0.00    -0.283 N 
ATOM     36  H   UNL     1     -21.573  14.198   6.765  0.00  0.00    +0.155 HD
ATOM     37  N   UNL     1     -21.083  12.043   8.024  0.00  0.00    -0.214 NA
BRANCH   4   3
ATOM      1  C   UNL     1     -21.745  11.678  12.344  0.00  0.00    +0.020 A 
ATOM      2  C   UNL     1     -21.344  11.861  10.969  0.00  0.00    +0.013 A 
ATOM      3  C   UNL     1     -21.196  10.718  10.077  0.00  0.00    +0.019 A 
ATOM     38  C   UNL     1     -21.465   9.392  10.613  0.00  0.00    +0.120 A 
ATOM     39  N   UNL     1     -21.849   9.246  11.942  0.00  0.00    -0.263 NA
ATOM     40  C   UNL     1     -21.992  10.339  12.810  0.00  0.00    +0.111 A 
ENDBRANCH   4   3
ENDBRANCH  10   9
BRANCH  12  13
ATOM     13  N   UNL     1     -17.820  15.331   2.910  0.00  0.00    -0.281 N 
ATOM     14  C   UNL     1     -17.343  16.585   3.255  0.00  0.00    +0.248 C 
ATOM     30  O   UNL     1     -18.029  17.479   3.727  0.00  0.00    -0.270 OA
ATOM     31  H   UNL     1     -17.194  14.751   2.351  0.00  0.00    +0.155 HD
BRANCH  14  15
ATOM     15  C   UNL     1     -15.898  16.894   3.030  0.00  0.00    +0.037 A 
ATOM     16  C   UNL     1     -14.918  15.828   2.807  0.00  0.00    +0.013 A 
ATOM     17  C   UNL     1     -13.528  16.154   2.609  0.00  0.00    +0.005 A 
ATOM     18  C   UNL     1     -13.110  17.553   2.632  0.00  0.00    -0.033 A 
ATOM     28  C   UNL     1     -14.104  18.591   2.850  0.00  0.00    +0.005 A 
ATOM     29  C   UNL     1     -15.467  18.276   3.045  0.00  0.00    +0.013 A 
BRANCH  18  19
ATOM     19  C   UNL     1     -11.645  17.992   2.451  0.00  0.00    +0.119 C 
BRANCH  19  20
ATOM     20  N   UNL     1     -11.185  18.283   1.061  0.00  0.00    -0.302 NA
ATOM     21  C   UNL     1     -10.910  17.003   0.267  0.00  0.00    +0.066 C 
ATOM     22  C   UNL     1     -10.451  17.325  -1.193  0.00  0.00    -0.064 C 
ATOM     23  N   UNL     1      -9.206  18.213  -1.149  0.00  0.00    +0.379 N 
ATOM     24  C   UNL     1      -8.738  18.471  -2.518  0.00  0.00    -0.096 C 
ATOM     25  H   UNL     1      -8.406  17.647  -0.619  0.00  0.00    -0.082 HD
ATOM     26  C   UNL     1      -9.470  19.487  -0.359  0.00  0.00    -0.064 C 
ATOM     27  C   UNL     1      -9.953  19.155   1.081  0.00  0.00    +0.066 C 
ENDBRANCH  19  20
ENDBRANCH  18  19
ENDBRANCH  14  15
ENDBRANCH  12  13
TORSDOF 6
ENDMDL
