MODEL 1
REMARK VINA RESULT:      -8.1      0.000      0.000
REMARK  Name = C:\Users\Docking\Desktop\test protocol\1iep_ligandH.pdb
REMARK  8 active torsions:
REMARK  status: ('A' for Active; 'I' for Inactive)
REMARK    1  A    between atoms: _5  and  _11
REMARK    2  A    between atoms: _19  and  _21
REMARK    3  A    between atoms: _22  and  _66
REMARK    4  A    between atoms: _27  and  _30
REMARK    5  A    between atoms: _32  and  _33
REMARK    6  A    between atoms: _38  and  _43
REMARK    7  A    between atoms: _43  and  _46
REMARK    8  A    between atoms: _53  and  _55
REMARK                            x       y       z     vdW  Elec       q    Type
REMARK                         _______ _______ _______ _____ _____    ______ ____
ROOT
ATOM     10  C   UNL     1      16.029  17.805  16.264  0.00  0.00    +0.038 A 
ATOM     11  C   UNL     1      15.575  16.909  17.266  0.00  0.00    +0.047 A 
ATOM     12  C   UNL     1      16.484  16.383  18.272  0.00  0.00    +0.035 A 
ATOM     32  C   UNL     1      17.848  16.792  18.230  0.00  0.00    +0.024 A 
ATOM     33  C   UNL     1      18.327  17.701  17.219  0.00  0.00    +0.007 A 
ATOM     34  C   UNL     1      17.436  18.222  16.222  0.00  0.00    -0.029 A 
ATOM     35  C   UNL     1      18.005  19.188  15.157  0.00  0.00    +0.045 C 
ENDROOT
BRANCH  10   9
ATOM      4  C   UNL     1      13.809  17.551  12.016  0.00  0.00    +0.077 A 
ATOM      5  C   UNL     1      14.557  16.390  11.628  0.00  0.00    +0.048 A 
ATOM      6  C   UNL     1      15.508  15.893  12.548  0.00  0.00    +0.116 A 
ATOM      7  N   UNL     1      15.689  16.520  13.762  0.00  0.00    -0.223 NA
ATOM      8  C   UNL     1      14.953  17.639  14.104  0.00  0.00    +0.220 A 
ATOM      9  N   UNL     1      15.113  18.280  15.323  0.00  0.00    -0.283 N 
ATOM     36  H   UNL     1      14.556  19.108  15.534  0.00  0.00    +0.155 HD
ATOM     37  N   UNL     1      14.039  18.133  13.243  0.00  0.00    -0.214 NA
BRANCH   4   3
ATOM      1  C   UNL     1      11.244  20.107  10.536  0.00  0.00    +0.020 A 
ATOM      2  C   UNL     1      12.252  19.534  11.399  0.00  0.00    +0.013 A 
ATOM      3  C   UNL     1      12.766  18.192  11.154  0.00  0.00    +0.019 A 
ATOM     38  C   UNL     1      12.237  17.451  10.019  0.00  0.00    +0.120 A 
ATOM     39  N   UNL     1      11.266  18.028   9.206  0.00  0.00    -0.263 NA
ATOM     40  C   UNL     1      10.762  19.318   9.433  0.00  0.00    +0.111 A 
ENDBRANCH   4   3
ENDBRANCH  10   9
BRANCH  12  13
ATOM     13  N   UNL     1      16.082  15.464  19.308  0.00  0.00    -0.281 N 
ATOM     14  C   UNL     1      16.427  14.129  19.444  0.00  0.00    +0.248 C 
ATOM     30  O   UNL     1      16.965  13.463  18.572  0.00  0.00    -0.270 OA
ATOM     31  H   UNL     1      15.469  15.844  20.030  0.00  0.00    +0.155 HD
BRANCH  14  15
ATOM     15  C   UNL     1      16.117  13.430  20.728  0.00  0.00    +0.037 A 
ATOM     16  C   UNL     1      15.008  12.478  20.826  0.00  0.00    +0.013 A 
ATOM     17  C   UNL     1      14.719  11.830  22.080  0.00  0.00    +0.005 A 
ATOM     18  C   UNL     1      15.544  12.131  23.248  0.00  0.00    -0.033 A 
ATOM     28  C   UNL     1      16.641  13.076  23.122  0.00  0.00    +0.005 A 
ATOM     29  C   UNL     1      16.926  13.714  21.893  0.00  0.00    +0.013 A 
BRANCH  18  19
ATOM     19  C   UNL     1      15.296  11.503  24.632  0.00  0.00    +0.119 C 
BRANCH  19  20
ATOM     20  N   UNL     1      15.507  10.030  24.762  0.00  0.00    -0.302 NA
ATOM     21  C   UNL     1      14.939   9.482  26.074  0.00  0.00    +0.066 C 
ATOM     22  C   UNL     1      15.149   7.937  26.184  0.00  0.00    -0.064 C 
ATOM     23  N   UNL     1      16.640   7.618  26.065  0.00  0.00    +0.379 N 
ATOM     24  C   UNL     1      16.847   6.171  26.225  0.00  0.00    -0.096 C 
ATOM     25  H   UNL     1      17.163   8.130  26.906  0.00  0.00    -0.082 HD
ATOM     26  C   UNL     1      17.215   8.162  24.765  0.00  0.00    -0.064 C 
ATOM     27  C   UNL     1      16.974   9.694  24.652  0.00  0.00    +0.066 C 
ENDBRANCH  19  20
ENDBRANCH  18  19
ENDBRANCH  14  15
ENDBRANCH  12  13
TORSDOF 6
ENDMDL
MODEL 2
REMARK VINA RESULT:      -7.7      1.590      2.493
REMARK  Name = C:\Users\Docking\Desktop\test protocol\1iep_ligandH.pdb
REMARK  8 active torsions:
REMARK  status: ('A' for Active; 'I' for Inactive)
REMARK    1  A    between atoms: _5  and  _11
REMARK    2  A    between atoms: _19  and  _21
REMARK    3  A    between atoms: _22  and  _66
REMARK    4  A    between atoms: _27  and  _30
REMARK    5  A    between atoms: _32  and  _33
REMARK    6  A    between atoms: _38  and  _43
REMARK    7  A    between atoms: _43  and  _46
REMARK    8  A    between atoms: _53  and  _55
REMARK                            x       y       z     vdW  Elec       q    Type
REMARK                         _______ _______ _______ _____ _____    ______ ____
ROOT
ATOM     10  C   UNL     1      15.588  18.112  16.383  0.00  0.00    +0.038 A 
ATOM     11  C   UNL     1      15.312  17.044  17.275  0.00  0.00    +0.047 A 
ATOM     12  C   UNL     1      16.140  16.811  18.448  0.00  0.00    +0.035 A 
ATOM     32  C   UNL     1      17.239  17.687  18.684  0.00  0.00    +0.024 A 
ATOM     33  C   UNL     1      17.534  18.777  17.788  0.00  0.00    +0.007 A 
ATOM     34  C   UNL     1      16.723  19.010  16.627  0.00  0.00    -0.029 A 
ATOM     35  C   UNL     1      17.089  20.190  15.697  0.00  0.00    +0.045 C 
ENDROOT
BRANCH  10   9
ATOM      4  C   UNL     1      14.313  17.145  11.858  0.00  0.00    +0.077 A 
ATOM      5  C   UNL     1      15.403  16.229  11.684  0.00  0.00    +0.048 A 
ATOM      6  C   UNL     1      16.273  16.040  12.781  0.00  0.00    +0.116 A 
ATOM      7  N   UNL     1      16.059  16.722  13.959  0.00  0.00    -0.223 NA
ATOM      8  C   UNL     1      14.999  17.600  14.093  0.00  0.00    +0.220 A 
ATOM      9  N   UNL     1      14.760  18.289  15.272  0.00  0.00    -0.283 N 
ATOM     36  H   UNL     1      13.972  18.934  15.328  0.00  0.00    +0.155 HD
ATOM     37  N   UNL     1      14.155  17.798  13.060  0.00  0.00    -0.214 NA
BRANCH   4   3
ATOM      1  C   UNL     1      10.953  17.903  10.003  0.00  0.00    +0.020 A 
ATOM      2  C   UNL     1      11.884  17.609  11.068  0.00  0.00    +0.013 A 
ATOM      3  C   UNL     1      13.306  17.449  10.792  0.00  0.00    +0.019 A 
ATOM     38  C   UNL     1      13.757  17.593   9.416  0.00  0.00    +0.120 A 
ATOM     39  N   UNL     1      12.838  17.874   8.411  0.00  0.00    -0.263 NA
ATOM     40  C   UNL     1      11.466  18.029   8.664  0.00  0.00    +0.111 A 
ENDBRANCH   4   3
ENDBRANCH  10   9
BRANCH  12  13
ATOM     13  N   UNL     1      15.914  15.738  19.384  0.00  0.00    -0.281 N 
ATOM     14  C   UNL     1      16.468  14.469  19.375  0.00  0.00    +0.248 C 
ATOM     30  O   UNL     1      17.083  13.990  18.434  0.00  0.00    -0.270 OA
ATOM     31  H   UNL     1      15.266  15.939  20.147  0.00  0.00    +0.155 HD
BRANCH  14  15
ATOM     15  C   UNL     1      16.304  13.600  20.581  0.00  0.00    +0.037 A 
ATOM     16  C   UNL     1      17.244  13.671  21.702  0.00  0.00    +0.013 A 
ATOM     17  C   UNL     1      17.072  12.810  22.845  0.00  0.00    +0.005 A 
ATOM     18  C   UNL     1      15.953  11.871  22.873  0.00  0.00    -0.033 A 
ATOM     28  C   UNL     1      15.033  11.825  21.749  0.00  0.00    +0.005 A 
ATOM     29  C   UNL     1      15.198  12.667  20.626  0.00  0.00    +0.013 A 
BRANCH  18  19
ATOM     19  C   UNL     1      15.705  10.900  24.042  0.00  0.00    +0.119 C 
BRANCH  19  20
ATOM     20  N   UNL     1      15.130  11.472  25.296  0.00  0.00    -0.302 NA
ATOM     21  C   UNL     1      14.593  10.384  26.230  0.00  0.00    +0.066 C 
ATOM     22  C   UNL     1      14.015  10.999  27.547  0.00  0.00    -0.064 C 
ATOM     23  N   UNL     1      12.917  12.005  27.198  0.00  0.00    +0.379 N 
ATOM     24  C   UNL     1      12.332  12.542  28.435  0.00  0.00    -0.096 C 
ATOM     25  H   UNL     1      12.114  11.453  26.656  0.00  0.00    -0.082 HD
ATOM     26  C   UNL     1      13.442  13.088  26.267  0.00  0.00    -0.064 C 
ATOM     27  C   UNL     1      14.040  12.465  24.975  0.00  0.00    +0.066 C 
ENDBRANCH  19  20
ENDBRANCH  18  19
ENDBRANCH  14  15
ENDBRANCH  12  13
TORSDOF 6
ENDMDL
MODEL 3
REMARK VINA RESULT:      -7.7      2.588      4.112
REMARK  Name = C:\Users\Docking\Desktop\test protocol\1iep_ligandH.pdb
REMARK  8 active torsions:
REMARK  status: ('A' for Active; 'I' for Inactive)
REMARK    1  A    between atoms: _5  and  _11
REMARK    2  A    between atoms: _19  and  _21
REMARK    3  A    between atoms: _22  and  _66
REMARK    4  A    between atoms: _27  and  _30
REMARK    5  A    between atoms: _32  and  _33
REMARK    6  A    between atoms: _38  and  _43
REMARK    7  A    between atoms: _43  and  _46
REMARK    8  A    between atoms: _53  and  _55
REMARK                            x       y       z     vdW  Elec       q    Type
REMARK                         _______ _______ _______ _____ _____    ______ ____
ROOT
ATOM     10  C   UNL     1      17.137  17.006  15.806  0.00  0.00    +0.038 A 
ATOM     11  C   UNL     1      16.885  16.042  16.816  0.00  0.00    +0.047 A 
ATOM     12  C   UNL     1      16.026  16.348  17.950  0.00  0.00    +0.035 A 
ATOM     32  C   UNL     1      15.438  17.644  18.022  0.00  0.00    +0.024 A 
ATOM     33  C   UNL     1      15.684  18.636  17.005  0.00  0.00    +0.007 A 
ATOM     34  C   UNL     1      16.532  18.341  15.885  0.00  0.00    -0.029 A 
ATOM     35  C   UNL     1      16.766  19.445  14.828  0.00  0.00    +0.045 C 
ENDROOT
BRANCH  10   9
ATOM      4  C   UNL     1      17.843  15.443  11.323  0.00  0.00    +0.077 A 
ATOM      5  C   UNL     1      16.436  15.279  11.096  0.00  0.00    +0.048 A 
ATOM      6  C   UNL     1      15.565  15.600  12.160  0.00  0.00    +0.116 A 
ATOM      7  N   UNL     1      16.074  16.053  13.359  0.00  0.00    -0.223 NA
ATOM      8  C   UNL     1      17.436  16.198  13.546  0.00  0.00    +0.220 A 
ATOM      9  N   UNL     1      17.969  16.659  14.740  0.00  0.00    -0.283 N 
ATOM     36  H   UNL     1      18.980  16.745  14.840  0.00  0.00    +0.155 HD
ATOM     37  N   UNL     1      18.289  15.896  12.545  0.00  0.00    -0.214 NA
BRANCH   4   3
ATOM      1  C   UNL     1      20.060  13.611   8.671  0.00  0.00    +0.020 A 
ATOM      2  C   UNL     1      19.032  13.844   9.660  0.00  0.00    +0.013 A 
ATOM      3  C   UNL     1      18.890  15.148  10.294  0.00  0.00    +0.019 A 
ATOM     38  C   UNL     1      19.811  16.205   9.903  0.00  0.00    +0.120 A 
ATOM     39  N   UNL     1      20.792  15.951   8.949  0.00  0.00    -0.263 NA
ATOM     40  C   UNL     1      20.939  14.699   8.333  0.00  0.00    +0.111 A 
ENDBRANCH   4   3
ENDBRANCH  10   9
BRANCH  12  13
ATOM     13  N   UNL     1      15.741  15.413  19.010  0.00  0.00    -0.281 N 
ATOM     14  C   UNL     1      16.352  14.195  19.259  0.00  0.00    +0.248 C 
ATOM     30  O   UNL     1      17.098  13.623  18.477  0.00  0.00    -0.270 OA
ATOM     31  H   UNL     1      14.998  15.681  19.655  0.00  0.00    +0.155 HD
BRANCH  14  15
ATOM     15  C   UNL     1      16.086  13.505  20.558  0.00  0.00    +0.037 A 
ATOM     16  C   UNL     1      15.008  12.522  20.690  0.00  0.00    +0.013 A 
ATOM     17  C   UNL     1      14.761  11.885  21.959  0.00  0.00    +0.005 A 
ATOM     18  C   UNL     1      15.597  12.228  23.107  0.00  0.00    -0.033 A 
ATOM     28  C   UNL     1      16.663  13.202  22.947  0.00  0.00    +0.005 A 
ATOM     29  C   UNL     1      16.907  13.830  21.705  0.00  0.00    +0.013 A 
BRANCH  18  19
ATOM     19  C   UNL     1      15.392  11.612  24.504  0.00  0.00    +0.119 C 
BRANCH  19  20
ATOM     20  N   UNL     1      15.600  10.140  24.639  0.00  0.00    -0.302 NA
ATOM     21  C   UNL     1      15.054   9.603  25.966  0.00  0.00    +0.066 C 
ATOM     22  C   UNL     1      15.259   8.057  26.081  0.00  0.00    -0.064 C 
ATOM     23  N   UNL     1      16.746   7.730  25.935  0.00  0.00    +0.379 N 
ATOM     24  C   UNL     1      16.949   6.283  26.101  0.00  0.00    -0.096 C 
ATOM     25  H   UNL     1      17.288   8.245  26.762  0.00  0.00    -0.082 HD
ATOM     26  C   UNL     1      17.297   8.263  24.620  0.00  0.00    -0.064 C 
ATOM     27  C   UNL     1      17.062   9.795  24.503  0.00  0.00    +0.066 C 
ENDBRANCH  19  20
ENDBRANCH  18  19
ENDBRANCH  14  15
ENDBRANCH  12  13
TORSDOF 6
ENDMDL
MODEL 4
REMARK VINA RESULT:      -7.4      4.146     13.133
REMARK  Name = C:\Users\Docking\Desktop\test protocol\1iep_ligandH.pdb
REMARK  8 active torsions:
REMARK  status: ('A' for Active; 'I' for Inactive)
REMARK    1  A    between atoms: _5  and  _11
REMARK    2  A    between atoms: _19  and  _21
REMARK    3  A    between atoms: _22  and  _66
REMARK    4  A    between atoms: _27  and  _30
REMARK    5  A    between atoms: _32  and  _33
REMARK    6  A    between atoms: _38  and  _43
REMARK    7  A    between atoms: _43  and  _46
REMARK    8  A    between atoms: _53  and  _55
REMARK                            x       y       z     vdW  Elec       q    Type
REMARK                         _______ _______ _______ _____ _____    ______ ____
ROOT
ATOM     10  C   UNL     1      15.939  16.242  17.763  0.00  0.00    +0.038 A 
ATOM     11  C   UNL     1      16.463  15.709  16.557  0.00  0.00    +0.047 A 
ATOM     12  C   UNL     1      16.772  16.570  15.427  0.00  0.00    +0.035 A 
ATOM     32  C   UNL     1      16.538  17.970  15.559  0.00  0.00    +0.024 A 
ATOM     33  C   UNL     1      16.006  18.528  16.778  0.00  0.00    +0.007 A 
ATOM     34  C   UNL     1      15.696  17.683  17.895  0.00  0.00    -0.029 A 
ATOM     35  C   UNL     1      15.121  18.335  19.174  0.00  0.00    +0.045 C 
ENDROOT
BRANCH  10   9
ATOM      4  C   UNL     1      17.241  13.756  21.657  0.00  0.00    +0.077 A 
ATOM      5  C   UNL     1      18.597  14.213  21.568  0.00  0.00    +0.048 A 
ATOM      6  C   UNL     1      18.921  15.081  20.502  0.00  0.00    +0.116 A 
ATOM      7  N   UNL     1      17.952  15.458  19.597  0.00  0.00    -0.223 NA
ATOM      8  C   UNL     1      16.653  14.997  19.711  0.00  0.00    +0.220 A 
ATOM      9  N   UNL     1      15.660  15.369  18.817  0.00  0.00    -0.283 N 
ATOM     36  H   UNL     1      14.716  15.002  18.931  0.00  0.00    +0.155 HD
ATOM     37  N   UNL     1      16.319  14.166  20.720  0.00  0.00    -0.214 NA
BRANCH   4   3
ATOM      1  C   UNL     1      15.069  11.204  23.676  0.00  0.00    +0.020 A 
ATOM      2  C   UNL     1      15.504  12.078  22.611  0.00  0.00    +0.013 A 
ATOM      3  C   UNL     1      16.743  12.837  22.730  0.00  0.00    +0.019 A 
ATOM     38  C   UNL     1      17.525  12.687  23.948  0.00  0.00    +0.120 A 
ATOM     39  N   UNL     1      17.080  11.840  24.958  0.00  0.00    -0.263 NA
ATOM     40  C   UNL     1      15.889  11.106  24.856  0.00  0.00    +0.111 A 
ENDBRANCH   4   3
ENDBRANCH  10   9
BRANCH  12  13
ATOM     13  N   UNL     1      17.298  16.086  14.174  0.00  0.00    -0.281 N 
ATOM     14  C   UNL     1      16.643  15.987  12.957  0.00  0.00    +0.248 C 
ATOM     30  O   UNL     1      15.436  16.102  12.810  0.00  0.00    -0.270 OA
ATOM     31  H   UNL     1      18.270  15.778  14.187  0.00  0.00    +0.155 HD
BRANCH  14  15
ATOM     15  C   UNL     1      17.445  15.706  11.727  0.00  0.00    +0.037 A 
ATOM     16  C   UNL     1      17.725  14.333  11.300  0.00  0.00    +0.013 A 
ATOM     17  C   UNL     1      18.515  14.090  10.119  0.00  0.00    +0.005 A 
ATOM     18  C   UNL     1      19.030  15.224   9.356  0.00  0.00    -0.033 A 
ATOM     28  C   UNL     1      18.733  16.576   9.799  0.00  0.00    +0.005 A 
ATOM     29  C   UNL     1      17.959  16.818  10.957  0.00  0.00    +0.013 A 
BRANCH  18  19
ATOM     19  C   UNL     1      19.899  15.058   8.096  0.00  0.00    +0.119 C 
BRANCH  19  20
ATOM     20  N   UNL     1      19.210  14.634   6.840  0.00  0.00    -0.302 NA
ATOM     21  C   UNL     1      17.726  15.010   6.845  0.00  0.00    +0.066 C 
ATOM     22  C   UNL     1      17.025  14.580   5.515  0.00  0.00    -0.064 C 
ATOM     23  N   UNL     1      17.202  13.074   5.314  0.00  0.00    +0.379 N 
ATOM     24  C   UNL     1      16.495  12.656   4.094  0.00  0.00    -0.096 C 
ATOM     25  H   UNL     1      16.721  12.558   6.177  0.00  0.00    -0.082 HD
ATOM     26  C   UNL     1      18.675  12.691   5.310  0.00  0.00    -0.064 C 
ATOM     27  C   UNL     1      19.368  13.149   6.624  0.00  0.00    +0.066 C 
ENDBRANCH  19  20
ENDBRANCH  18  19
ENDBRANCH  14  15
ENDBRANCH  12  13
TORSDOF 6
ENDMDL
MODEL 5
REMARK VINA RESULT:      -7.4      2.937      4.688
REMARK  Name = C:\Users\Docking\Desktop\test protocol\1iep_ligandH.pdb
REMARK  8 active torsions:
REMARK  status: ('A' for Active; 'I' for Inactive)
REMARK    1  A    between atoms: _5  and  _11
REMARK    2  A    between atoms: _19  and  _21
REMARK    3  A    between atoms: _22  and  _66
REMARK    4  A    between atoms: _27  and  _30
REMARK    5  A    between atoms: _32  and  _33
REMARK    6  A    between atoms: _38  and  _43
REMARK    7  A    between atoms: _43  and  _46
REMARK    8  A    between atoms: _53  and  _55
REMARK                            x       y       z     vdW  Elec       q    Type
REMARK                         _______ _______ _______ _____ _____    ______ ____
ROOT
ATOM     10  C   UNL     1      17.154  17.147  16.009  0.00  0.00    +0.038 A 
ATOM     11  C   UNL     1      16.929  16.154  16.997  0.00  0.00    +0.047 A 
ATOM     12  C   UNL     1      16.079  16.416  18.148  0.00  0.00    +0.035 A 
ATOM     32  C   UNL     1      15.470  17.700  18.260  0.00  0.00    +0.024 A 
ATOM     33  C   UNL     1      15.688  18.721  17.266  0.00  0.00    +0.007 A 
ATOM     34  C   UNL     1      16.528  18.470  16.130  0.00  0.00    -0.029 A 
ATOM     35  C   UNL     1      16.731  19.604  15.099  0.00  0.00    +0.045 C 
ENDROOT
BRANCH  10   9
ATOM      4  C   UNL     1      17.837  15.674  11.493  0.00  0.00    +0.077 A 
ATOM      5  C   UNL     1      16.432  15.470  11.284  0.00  0.00    +0.048 A 
ATOM      6  C   UNL     1      15.568  15.749  12.367  0.00  0.00    +0.116 A 
ATOM      7  N   UNL     1      16.082  16.198  13.564  0.00  0.00    -0.223 NA
ATOM      8  C   UNL     1      17.442  16.383  13.732  0.00  0.00    +0.220 A 
ATOM      9  N   UNL     1      17.979  16.842  14.925  0.00  0.00    -0.283 N 
ATOM     36  H   UNL     1      18.989  16.958  15.012  0.00  0.00    +0.155 HD
ATOM     37  N   UNL     1      18.288  16.122  12.714  0.00  0.00    -0.214 NA
BRANCH   4   3
ATOM      1  C   UNL     1      21.152  15.795   9.420  0.00  0.00    +0.020 A 
ATOM      2  C   UNL     1      20.184  16.069  10.457  0.00  0.00    +0.013 A 
ATOM      3  C   UNL     1      18.876  15.426  10.444  0.00  0.00    +0.019 A 
ATOM     38  C   UNL     1      18.577  14.503   9.359  0.00  0.00    +0.120 A 
ATOM     39  N   UNL     1      19.528  14.260   8.374  0.00  0.00    -0.263 NA
ATOM     40  C   UNL     1      20.790  14.874   8.375  0.00  0.00    +0.111 A 
ENDBRANCH   4   3
ENDBRANCH  10   9
BRANCH  12  13
ATOM     13  N   UNL     1      15.821  15.449  19.186  0.00  0.00    -0.281 N 
ATOM     14  C   UNL     1      16.358  14.179  19.320  0.00  0.00    +0.248 C 
ATOM     30  O   UNL     1      16.983  13.598  18.446  0.00  0.00    -0.270 OA
ATOM     31  H   UNL     1      15.162  15.736  19.910  0.00  0.00    +0.155 HD
BRANCH  14  15
ATOM     15  C   UNL     1      16.160  13.443  20.606  0.00  0.00    +0.037 A 
ATOM     16  C   UNL     1      17.037  13.674  21.756  0.00  0.00    +0.013 A 
ATOM     17  C   UNL     1      16.835  12.938  22.979  0.00  0.00    +0.005 A 
ATOM     18  C   UNL     1      15.748  11.965  23.058  0.00  0.00    -0.033 A 
ATOM     28  C   UNL     1      14.889  11.760  21.903  0.00  0.00    +0.005 A 
ATOM     29  C   UNL     1      15.085  12.479  20.703  0.00  0.00    +0.013 A 
BRANCH  18  19
ATOM     19  C   UNL     1      15.471  11.120  24.316  0.00  0.00    +0.119 C 
BRANCH  19  20
ATOM     20  N   UNL     1      14.928  11.831  25.511  0.00  0.00    -0.302 NA
ATOM     21  C   UNL     1      14.549  10.861  26.634  0.00  0.00    +0.066 C 
ATOM     22  C   UNL     1      14.004  11.623  27.885  0.00  0.00    -0.064 C 
ATOM     23  N   UNL     1      12.801  12.475  27.476  0.00  0.00    +0.379 N 
ATOM     24  C   UNL     1      12.251  13.148  28.662  0.00  0.00    -0.096 C 
ATOM     25  H   UNL     1      12.017  11.786  27.084  0.00  0.00    -0.082 HD
ATOM     26  C   UNL     1      13.169  13.441  26.359  0.00  0.00    -0.064 C 
ATOM     27  C   UNL     1      13.737  12.676  25.131  0.00  0.00    +0.066 C 
ENDBRANCH  19  20
ENDBRANCH  18  19
ENDBRANCH  14  15
ENDBRANCH  12  13
TORSDOF 6
ENDMDL
