MODEL 1
REMARK VINA RESULT:      -7.6      0.000      0.000
REMARK  Name = C:\Users\Docking\Desktop\test protocol\1iep_ligandH.pdb
REMARK  8 active torsions:
REMARK  status: ('A' for Active; 'I' for Inactive)
REMARK    1  A    between atoms: _5  and  _11
REMARK    2  A    between atoms: _19  and  _21
REMARK    3  A    between atoms: _22  and  _66
REMARK    4  A    between atoms: _27  and  _30
REMARK    5  A    between atoms: _32  and  _33
REMARK    6  A    between atoms: _38  and  _43
REMARK    7  A    between atoms: _43  and  _46
REMARK    8  A    between atoms: _53  and  _55
REMARK                            x       y       z     vdW  Elec       q    Type
REMARK                         _______ _______ _______ _____ _____    ______ ____
ROOT
ATOM     10  C   UNL     1      10.736  17.777   9.605  0.00  0.00    +0.038 A 
ATOM     11  C   UNL     1      11.549  17.313  10.670  0.00  0.00    +0.047 A 
ATOM     12  C   UNL     1      11.844  18.159  11.816  0.00  0.00    +0.035 A 
ATOM     32  C   UNL     1      11.292  19.473  11.846  0.00  0.00    +0.024 A 
ATOM     33  C   UNL     1      10.464  19.961  10.771  0.00  0.00    +0.007 A 
ATOM     34  C   UNL     1      10.172  19.132   9.637  0.00  0.00    -0.029 A 
ATOM     35  C   UNL     1       9.285  19.711   8.510  0.00  0.00    +0.045 C 
ENDROOT
BRANCH  10   9
ATOM      4  C   UNL     1       8.104  14.442   7.373  0.00  0.00    +0.077 A 
ATOM      5  C   UNL     1       7.163  14.377   8.453  0.00  0.00    +0.048 A 
ATOM      6  C   UNL     1       7.396  15.213   9.568  0.00  0.00    +0.116 A 
ATOM      7  N   UNL     1       8.492  16.048   9.590  0.00  0.00    -0.223 NA
ATOM      8  C   UNL     1       9.381  16.085   8.532  0.00  0.00    +0.220 A 
ATOM      9  N   UNL     1      10.486  16.923   8.529  0.00  0.00    -0.283 N 
ATOM     36  H   UNL     1      11.123  16.915   7.732  0.00  0.00    +0.155 HD
ATOM     37  N   UNL     1       9.182  15.295   7.456  0.00  0.00    -0.214 NA
BRANCH   4   3
ATOM      1  C   UNL     1       8.948  12.092   4.362  0.00  0.00    +0.020 A 
ATOM      2  C   UNL     1       9.109  12.868   5.570  0.00  0.00    +0.013 A 
ATOM      3  C   UNL     1       7.992  13.622   6.125  0.00  0.00    +0.019 A 
ATOM     38  C   UNL     1       6.716  13.570   5.428  0.00  0.00    +0.120 A 
ATOM     39  N   UNL     1       6.591  12.815   4.266  0.00  0.00    -0.263 NA
ATOM     40  C   UNL     1       7.659  12.086   3.722  0.00  0.00    +0.111 A 
ENDBRANCH   4   3
ENDBRANCH  10   9
BRANCH  12  13
ATOM     13  N   UNL     1      12.669  17.744  12.923  0.00  0.00    -0.281 N 
ATOM     14  C   UNL     1      13.828  18.342  13.393  0.00  0.00    +0.248 C 
ATOM     30  O   UNL     1      14.451  19.206  12.794  0.00  0.00    -0.270 OA
ATOM     31  H   UNL     1      12.362  16.909  13.422  0.00  0.00    +0.155 HD
BRANCH  14  15
ATOM     15  C   UNL     1      14.382  17.906  14.710  0.00  0.00    +0.037 A 
ATOM     16  C   UNL     1      15.690  17.252  14.805  0.00  0.00    +0.013 A 
ATOM     17  C   UNL     1      16.194  16.826  16.087  0.00  0.00    +0.005 A 
ATOM     18  C   UNL     1      15.390  17.055  17.285  0.00  0.00    -0.033 A 
ATOM     28  C   UNL     1      14.098  17.710  17.162  0.00  0.00    +0.005 A 
ATOM     29  C   UNL     1      13.600  18.128  15.908  0.00  0.00    +0.013 A 
BRANCH  18  19
ATOM     19  C   UNL     1      15.839  16.614  18.691  0.00  0.00    +0.119 C 
BRANCH  19  20
ATOM     20  N   UNL     1      15.526  17.531  19.827  0.00  0.00    -0.302 NA
ATOM     21  C   UNL     1      16.567  18.645  19.970  0.00  0.00    +0.066 C 
ATOM     22  C   UNL     1      16.212  19.608  21.149  0.00  0.00    -0.064 C 
ATOM     23  N   UNL     1      16.099  18.803  22.445  0.00  0.00    +0.379 N 
ATOM     24  C   UNL     1      15.823  19.714  23.566  0.00  0.00    -0.096 C 
ATOM     25  H   UNL     1      17.089  18.325  22.633  0.00  0.00    -0.082 HD
ATOM     26  C   UNL     1      15.068  17.691  22.311  0.00  0.00    -0.064 C 
ATOM     27  C   UNL     1      15.414  16.757  21.118  0.00  0.00    +0.066 C 
ENDBRANCH  19  20
ENDBRANCH  18  19
ENDBRANCH  14  15
ENDBRANCH  12  13
TORSDOF 6
ENDMDL
MODEL 2
REMARK VINA RESULT:      -7.4     13.773     17.981
REMARK  Name = C:\Users\Docking\Desktop\test protocol\1iep_ligandH.pdb
REMARK  8 active torsions:
REMARK  status: ('A' for Active; 'I' for Inactive)
REMARK    1  A    between atoms: _5  and  _11
REMARK    2  A    between atoms: _19  and  _21
REMARK    3  A    between atoms: _22  and  _66
REMARK    4  A    between atoms: _27  and  _30
REMARK    5  A    between atoms: _32  and  _33
REMARK    6  A    between atoms: _38  and  _43
REMARK    7  A    between atoms: _43  and  _46
REMARK    8  A    between atoms: _53  and  _55
REMARK                            x       y       z     vdW  Elec       q    Type
REMARK                         _______ _______ _______ _____ _____    ______ ____
ROOT
ATOM     10  C   UNL     1       1.358  17.345  22.114  0.00  0.00    +0.038 A 
ATOM     11  C   UNL     1       1.181  17.462  20.711  0.00  0.00    +0.047 A 
ATOM     12  C   UNL     1       1.376  18.732  20.031  0.00  0.00    +0.035 A 
ATOM     32  C   UNL     1       1.754  19.865  20.810  0.00  0.00    +0.024 A 
ATOM     33  C   UNL     1       1.937  19.765  22.236  0.00  0.00    +0.007 A 
ATOM     34  C   UNL     1       1.743  18.514  22.913  0.00  0.00    -0.029 A 
ATOM     35  C   UNL     1       1.947  18.467  24.446  0.00  0.00    +0.045 C 
ENDROOT
BRANCH  10   9
ATOM      4  C   UNL     1      -1.487  13.912  23.891  0.00  0.00    +0.077 A 
ATOM      5  C   UNL     1      -2.673  14.674  23.623  0.00  0.00    +0.048 A 
ATOM      6  C   UNL     1      -2.507  15.947  23.034  0.00  0.00    +0.116 A 
ATOM      7  N   UNL     1      -1.244  16.414  22.738  0.00  0.00    -0.223 NA
ATOM      8  C   UNL     1      -0.121  15.655  23.011  0.00  0.00    +0.220 A 
ATOM      9  N   UNL     1       1.157  16.101  22.715  0.00  0.00    -0.283 N 
ATOM     36  H   UNL     1       1.961  15.514  22.939  0.00  0.00    +0.155 HD
ATOM     37  N   UNL     1      -0.253  14.436  23.575  0.00  0.00    -0.214 NA
BRANCH   4   3
ATOM      1  C   UNL     1      -0.373  10.602  25.653  0.00  0.00    +0.020 A 
ATOM      2  C   UNL     1      -0.308  11.922  25.068  0.00  0.00    +0.013 A 
ATOM      3  C   UNL     1      -1.499  12.548  24.508  0.00  0.00    +0.019 A 
ATOM     38  C   UNL     1      -2.750  11.807  24.556  0.00  0.00    +0.120 A 
ATOM     39  N   UNL     1      -2.782  10.537  25.124  0.00  0.00    -0.263 NA
ATOM     40  C   UNL     1      -1.642   9.924  25.665  0.00  0.00    +0.111 A 
ENDBRANCH   4   3
ENDBRANCH  10   9
BRANCH  12  13
ATOM     13  N   UNL     1       1.203  18.913  18.611  0.00  0.00    -0.281 N 
ATOM     14  C   UNL     1       0.583  19.964  17.955  0.00  0.00    +0.248 C 
ATOM     30  O   UNL     1      -0.109  20.809  18.503  0.00  0.00    -0.270 OA
ATOM     31  H   UNL     1       1.584  18.176  18.017  0.00  0.00    +0.155 HD
BRANCH  14  15
ATOM     15  C   UNL     1       0.743  20.086  16.474  0.00  0.00    +0.037 A 
ATOM     16  C   UNL     1       1.189  18.951  15.662  0.00  0.00    +0.013 A 
ATOM     17  C   UNL     1       1.351  19.100  14.237  0.00  0.00    +0.005 A 
ATOM     18  C   UNL     1       1.066  20.391  13.616  0.00  0.00    -0.033 A 
ATOM     28  C   UNL     1       0.620  21.499  14.444  0.00  0.00    +0.005 A 
ATOM     29  C   UNL     1       0.460  21.356  15.841  0.00  0.00    +0.013 A 
BRANCH  18  19
ATOM     19  C   UNL     1       1.232  20.648  12.106  0.00  0.00    +0.119 C 
BRANCH  19  20
ATOM     20  N   UNL     1      -0.003  20.960  11.326  0.00  0.00    -0.302 NA
ATOM     21  C   UNL     1      -0.976  19.779  11.293  0.00  0.00    +0.066 C 
ATOM     22  C   UNL     1      -2.272  20.131  10.492  0.00  0.00    -0.064 C 
ATOM     23  N   UNL     1      -1.891  20.557   9.073  0.00  0.00    +0.379 N 
ATOM     24  C   UNL     1      -3.110  20.833   8.300  0.00  0.00    -0.096 C 
ATOM     25  H   UNL     1      -1.371  19.697   8.591  0.00  0.00    -0.082 HD
ATOM     26  C   UNL     1      -0.920  21.729   9.096  0.00  0.00    -0.064 C 
ATOM     27  C   UNL     1       0.350  21.379   9.920  0.00  0.00    +0.066 C 
ENDBRANCH  19  20
ENDBRANCH  18  19
ENDBRANCH  14  15
ENDBRANCH  12  13
TORSDOF 6
ENDMDL
MODEL 3
REMARK VINA RESULT:      -7.3      2.924     13.141
REMARK  Name = C:\Users\Docking\Desktop\test protocol\1iep_ligandH.pdb
REMARK  8 active torsions:
REMARK  status: ('A' for Active; 'I' for Inactive)
REMARK    1  A    between atoms: _5  and  _11
REMARK    2  A    between atoms: _19  and  _21
REMARK    3  A    between atoms: _22  and  _66
REMARK    4  A    between atoms: _27  and  _30
REMARK    5  A    between atoms: _32  and  _33
REMARK    6  A    between atoms: _38  and  _43
REMARK    7  A    between atoms: _43  and  _46
REMARK    8  A    between atoms: _53  and  _55
REMARK                            x       y       z     vdW  Elec       q    Type
REMARK                         _______ _______ _______ _____ _____    ______ ____
ROOT
ATOM     10  C   UNL     1      11.257  19.517  11.324  0.00  0.00    +0.038 A 
ATOM     11  C   UNL     1      10.446  18.549  10.678  0.00  0.00    +0.047 A 
ATOM     12  C   UNL     1       9.912  18.783   9.345  0.00  0.00    +0.035 A 
ATOM     32  C   UNL     1      10.226  20.014   8.698  0.00  0.00    +0.024 A 
ATOM     33  C   UNL     1      11.048  21.009   9.341  0.00  0.00    +0.007 A 
ATOM     34  C   UNL     1      11.575  20.785  10.656  0.00  0.00    -0.029 A 
ATOM     35  C   UNL     1      12.446  21.889  11.299  0.00  0.00    +0.045 C 
ENDROOT
BRANCH  10   9
ATOM      4  C   UNL     1      14.453  17.520  14.296  0.00  0.00    +0.077 A 
ATOM      5  C   UNL     1      15.203  16.960  13.208  0.00  0.00    +0.048 A 
ATOM      6  C   UNL     1      14.728  17.202  11.900  0.00  0.00    +0.116 A 
ATOM      7  N   UNL     1      13.588  17.952  11.705  0.00  0.00    -0.223 NA
ATOM      8  C   UNL     1      12.888  18.476  12.776  0.00  0.00    +0.220 A 
ATOM      9  N   UNL     1      11.743  19.239  12.603  0.00  0.00    -0.283 N 
ATOM     36  H   UNL     1      11.251  19.602  13.419  0.00  0.00    +0.155 HD
ATOM     37  N   UNL     1      13.320  18.257  14.035  0.00  0.00    -0.214 NA
BRANCH   4   3
ATOM      1  C   UNL     1      14.321  17.446  18.204  0.00  0.00    +0.020 A 
ATOM      2  C   UNL     1      13.907  17.622  16.831  0.00  0.00    +0.013 A 
ATOM      3  C   UNL     1      14.830  17.354  15.735  0.00  0.00    +0.019 A 
ATOM     38  C   UNL     1      16.174  16.904  16.065  0.00  0.00    +0.120 A 
ATOM     39  N   UNL     1      16.544  16.745  17.397  0.00  0.00    -0.263 NA
ATOM     40  C   UNL     1      15.666  17.001  18.460  0.00  0.00    +0.111 A 
ENDBRANCH   4   3
ENDBRANCH  10   9
BRANCH  12  13
ATOM     13  N   UNL     1       9.076  17.841   8.643  0.00  0.00    -0.281 N 
ATOM     14  C   UNL     1       9.274  16.479   8.486  0.00  0.00    +0.248 C 
ATOM     30  O   UNL     1      10.317  15.897   8.748  0.00  0.00    -0.270 OA
ATOM     31  H   UNL     1       8.237  18.225   8.208  0.00  0.00    +0.155 HD
BRANCH  14  15
ATOM     15  C   UNL     1       8.157  15.644   7.948  0.00  0.00    +0.037 A 
ATOM     16  C   UNL     1       7.287  14.873   8.840  0.00  0.00    +0.013 A 
ATOM     17  C   UNL     1       6.227  14.063   8.294  0.00  0.00    +0.005 A 
ATOM     18  C   UNL     1       6.031  14.020   6.847  0.00  0.00    -0.033 A 
ATOM     28  C   UNL     1       6.906  14.799   5.986  0.00  0.00    +0.005 A 
ATOM     29  C   UNL     1       7.946  15.594   6.517  0.00  0.00    +0.013 A 
BRANCH  18  19
ATOM     19  C   UNL     1       4.939  13.166   6.176  0.00  0.00    +0.119 C 
BRANCH  19  20
ATOM     20  N   UNL     1       3.522  13.452   6.549  0.00  0.00    -0.302 NA
ATOM     21  C   UNL     1       2.741  12.172   6.859  0.00  0.00    +0.066 C 
ATOM     22  C   UNL     1       1.266  12.490   7.270  0.00  0.00    -0.064 C 
ATOM     23  N   UNL     1       0.587  13.282   6.150  0.00  0.00    +0.379 N 
ATOM     24  C   UNL     1      -0.816  13.532   6.509  0.00  0.00    -0.096 C 
ATOM     25  H   UNL     1       0.595  12.646   5.235  0.00  0.00    -0.082 HD
ATOM     26  C   UNL     1       1.359  14.555   5.834  0.00  0.00    -0.064 C 
ATOM     27  C   UNL     1       2.831  14.229   5.456  0.00  0.00    +0.066 C 
ENDBRANCH  19  20
ENDBRANCH  18  19
ENDBRANCH  14  15
ENDBRANCH  12  13
TORSDOF 6
ENDMDL
MODEL 4
REMARK VINA RESULT:      -7.3      6.234     14.674
REMARK  Name = C:\Users\Docking\Desktop\test protocol\1iep_ligandH.pdb
REMARK  8 active torsions:
REMARK  status: ('A' for Active; 'I' for Inactive)
REMARK    1  A    between atoms: _5  and  _11
REMARK    2  A    between atoms: _19  and  _21
REMARK    3  A    between atoms: _22  and  _66
REMARK    4  A    between atoms: _27  and  _30
REMARK    5  A    between atoms: _32  and  _33
REMARK    6  A    between atoms: _38  and  _43
REMARK    7  A    between atoms: _43  and  _46
REMARK    8  A    between atoms: _53  and  _55
REMARK                            x       y       z     vdW  Elec       q    Type
REMARK                         _______ _______ _______ _____ _____    ______ ____
ROOT
ATOM     10  C   UNL     1      15.424  14.670  23.518  0.00  0.00    +0.038 A 
ATOM     11  C   UNL     1      15.237  15.026  22.158  0.00  0.00    +0.047 A 
ATOM     12  C   UNL     1      15.121  16.419  21.754  0.00  0.00    +0.035 A 
ATOM     32  C   UNL     1      15.202  17.423  22.762  0.00  0.00    +0.024 A 
ATOM     33  C   UNL     1      15.390  17.079  24.149  0.00  0.00    +0.007 A 
ATOM     34  C   UNL     1      15.503  15.707  24.554  0.00  0.00    -0.029 A 
ATOM     35  C   UNL     1      15.697  15.395  26.056  0.00  0.00    +0.045 C 
ENDROOT
BRANCH  10   9
ATOM      4  C   UNL     1      17.932  10.600  23.950  0.00  0.00    +0.077 A 
ATOM      5  C   UNL     1      19.127  11.214  23.447  0.00  0.00    +0.048 A 
ATOM      6  C   UNL     1      19.052  12.577  23.081  0.00  0.00    +0.116 A 
ATOM      7  N   UNL     1      17.865  13.265  23.214  0.00  0.00    -0.223 NA
ATOM      8  C   UNL     1      16.731  12.642  23.701  0.00  0.00    +0.220 A 
ATOM      9  N   UNL     1      15.529  13.317  23.850  0.00  0.00    -0.283 N 
ATOM     36  H   UNL     1      14.712  12.820  24.205  0.00  0.00    +0.155 HD
ATOM     37  N   UNL     1      16.776  11.341  24.055  0.00  0.00    -0.214 NA
BRANCH   4   3
ATOM      1  C   UNL     1      16.953   7.320  25.843  0.00  0.00    +0.020 A 
ATOM      2  C   UNL     1      16.993   8.714  25.467  0.00  0.00    +0.013 A 
ATOM      3  C   UNL     1      17.852   9.168  24.380  0.00  0.00    +0.019 A 
ATOM     38  C   UNL     1      18.664   8.178  23.689  0.00  0.00    +0.120 A 
ATOM     39  N   UNL     1      18.606   6.842  24.074  0.00  0.00    -0.263 NA
ATOM     40  C   UNL     1      17.784   6.394  25.119  0.00  0.00    +0.111 A 
ENDBRANCH   4   3
ENDBRANCH  10   9
BRANCH  12  13
ATOM     13  N   UNL     1      14.923  16.840  20.390  0.00  0.00    -0.281 N 
ATOM     14  C   UNL     1      15.883  17.229  19.470  0.00  0.00    +0.248 C 
ATOM     30  O   UNL     1      17.046  17.479  19.750  0.00  0.00    -0.270 OA
ATOM     31  H   UNL     1      13.957  16.854  20.062  0.00  0.00    +0.155 HD
BRANCH  14  15
ATOM     15  C   UNL     1      15.492  17.376  18.035  0.00  0.00    +0.037 A 
ATOM     16  C   UNL     1      14.202  17.957  17.655  0.00  0.00    +0.013 A 
ATOM     17  C   UNL     1      13.842  18.072  16.264  0.00  0.00    +0.005 A 
ATOM     18  C   UNL     1      14.776  17.605  15.242  0.00  0.00    -0.033 A 
ATOM     28  C   UNL     1      16.051  17.037  15.647  0.00  0.00    +0.005 A 
ATOM     29  C   UNL     1      16.407  16.922  17.010  0.00  0.00    +0.013 A 
BRANCH  18  19
ATOM     19  C   UNL     1      14.466  17.668  13.735  0.00  0.00    +0.119 C 
BRANCH  19  20
ATOM     20  N   UNL     1      15.525  17.186  12.798  0.00  0.00    -0.302 NA
ATOM     21  C   UNL     1      15.723  18.139  11.616  0.00  0.00    +0.066 C 
ATOM     22  C   UNL     1      16.849  17.631  10.658  0.00  0.00    -0.064 C 
ATOM     23  N   UNL     1      16.503  16.224  10.168  0.00  0.00    +0.379 N 
ATOM     24  C   UNL     1      17.531  15.767   9.222  0.00  0.00    -0.096 C 
ATOM     25  H   UNL     1      15.538  16.287   9.614  0.00  0.00    -0.082 HD
ATOM     26  C   UNL     1      16.302  15.271  11.338  0.00  0.00    -0.064 C 
ATOM     27  C   UNL     1      15.201  15.800  12.299  0.00  0.00    +0.066 C 
ENDBRANCH  19  20
ENDBRANCH  18  19
ENDBRANCH  14  15
ENDBRANCH  12  13
TORSDOF 6
ENDMDL
MODEL 5
REMARK VINA RESULT:      -7.3      4.489      6.505
REMARK  Name = C:\Users\Docking\Desktop\test protocol\1iep_ligandH.pdb
REMARK  8 active torsions:
REMARK  status: ('A' for Active; 'I' for Inactive)
REMARK    1  A    between atoms: _5  and  _11
REMARK    2  A    between atoms: _19  and  _21
REMARK    3  A    between atoms: _22  and  _66
REMARK    4  A    between atoms: _27  and  _30
REMARK    5  A    between atoms: _32  and  _33
REMARK    6  A    between atoms: _38  and  _43
REMARK    7  A    between atoms: _43  and  _46
REMARK    8  A    between atoms: _53  and  _55
REMARK                            x       y       z     vdW  Elec       q    Type
REMARK                         _______ _______ _______ _____ _____    ______ ____
ROOT
ATOM     10  C   UNL     1      14.546  17.347  11.933  0.00  0.00    +0.038 A 
ATOM     11  C   UNL     1      14.616  17.149  13.336  0.00  0.00    +0.047 A 
ATOM     12  C   UNL     1      15.864  16.770  13.980  0.00  0.00    +0.035 A 
ATOM     32  C   UNL     1      17.022  16.604  13.166  0.00  0.00    +0.024 A 
ATOM     33  C   UNL     1      16.968  16.800  11.738  0.00  0.00    +0.007 A 
ATOM     34  C   UNL     1      15.739  17.171  11.097  0.00  0.00    -0.029 A 
ATOM     35  C   UNL     1      15.738  17.362   9.562  0.00  0.00    +0.045 C 
ENDROOT
BRANCH  10   9
ATOM      4  C   UNL     1      11.283  20.623  10.645  0.00  0.00    +0.077 A 
ATOM      5  C   UNL     1      12.072  21.701  11.168  0.00  0.00    +0.048 A 
ATOM      6  C   UNL     1      13.308  21.369  11.768  0.00  0.00    +0.116 A 
ATOM      7  N   UNL     1      13.715  20.054  11.833  0.00  0.00    -0.223 NA
ATOM      8  C   UNL     1      12.929  19.038  11.320  0.00  0.00    +0.220 A 
ATOM      9  N   UNL     1      13.321  17.709  11.367  0.00  0.00    -0.283 N 
ATOM     36  H   UNL     1      12.710  16.989  10.984  0.00  0.00    +0.155 HD
ATOM     37  N   UNL     1      11.744  19.329  10.744  0.00  0.00    -0.214 NA
BRANCH   4   3
ATOM      1  C   UNL     1       7.619  21.760   9.881  0.00  0.00    +0.020 A 
ATOM      2  C   UNL     1       8.882  21.606  10.566  0.00  0.00    +0.013 A 
ATOM      3  C   UNL     1       9.956  20.814   9.980  0.00  0.00    +0.019 A 
ATOM     38  C   UNL     1       9.717  20.185   8.689  0.00  0.00    +0.120 A 
ATOM     39  N   UNL     1       8.490  20.349   8.054  0.00  0.00    -0.263 NA
ATOM     40  C   UNL     1       7.449  21.108   8.609  0.00  0.00    +0.111 A 
ENDBRANCH   4   3
ENDBRANCH  10   9
BRANCH  12  13
ATOM     13  N   UNL     1      15.995  16.548  15.399  0.00  0.00    -0.281 N 
ATOM     14  C   UNL     1      16.556  17.390  16.345  0.00  0.00    +0.248 C 
ATOM     30  O   UNL     1      17.227  18.377  16.081  0.00  0.00    -0.270 OA
ATOM     31  H   UNL     1      15.629  15.662  15.748  0.00  0.00    +0.155 HD
BRANCH  14  15
ATOM     15  C   UNL     1      16.355  17.084  17.794  0.00  0.00    +0.037 A 
ATOM     16  C   UNL     1      16.943  17.927  18.838  0.00  0.00    +0.013 A 
ATOM     17  C   UNL     1      16.747  17.600  20.228  0.00  0.00    +0.005 A 
ATOM     18  C   UNL     1      15.958  16.422  20.582  0.00  0.00    -0.033 A 
ATOM     28  C   UNL     1      15.382  15.606  19.527  0.00  0.00    +0.005 A 
ATOM     29  C   UNL     1      15.572  15.923  18.163  0.00  0.00    +0.013 A 
BRANCH  18  19
ATOM     19  C   UNL     1      15.716  15.985  22.039  0.00  0.00    +0.119 C 
BRANCH  19  20
ATOM     20  N   UNL     1      15.771  14.522  22.332  0.00  0.00    -0.302 NA
ATOM     21  C   UNL     1      14.477  14.017  22.978  0.00  0.00    +0.066 C 
ATOM     22  C   UNL     1      14.543  12.480  23.257  0.00  0.00    -0.064 C 
ATOM     23  N   UNL     1      15.748  12.178  24.149  0.00  0.00    +0.379 N 
ATOM     24  C   UNL     1      15.780  10.741  24.461  0.00  0.00    -0.096 C 
ATOM     25  H   UNL     1      15.605  12.729  25.108  0.00  0.00    -0.082 HD
ATOM     26  C   UNL     1      17.038  12.679  23.516  0.00  0.00    -0.064 C 
ATOM     27  C   UNL     1      16.951  14.202  23.216  0.00  0.00    +0.066 C 
ENDBRANCH  19  20
ENDBRANCH  18  19
ENDBRANCH  14  15
ENDBRANCH  12  13
TORSDOF 6
ENDMDL
