MODEL 1
REMARK VINA RESULT:      -8.8      0.000      0.000
REMARK  Name = C:\Users\Docking\Desktop\test protocol\1iep_ligandH.pdb
REMARK  8 active torsions:
REMARK  status: ('A' for Active; 'I' for Inactive)
REMARK    1  A    between atoms: _5  and  _11
REMARK    2  A    between atoms: _19  and  _21
REMARK    3  A    between atoms: _22  and  _66
REMARK    4  A    between atoms: _27  and  _30
REMARK    5  A    between atoms: _32  and  _33
REMARK    6  A    between atoms: _38  and  _43
REMARK    7  A    between atoms: _43  and  _46
REMARK    8  A    between atoms: _53  and  _55
REMARK                            x       y       z     vdW  Elec       q    Type
REMARK                         _______ _______ _______ _____ _____    ______ ____
ROOT
ATOM     10  C   UNL     1     -22.770  56.638  54.033  0.00  0.00    +0.038 A 
ATOM     11  C   UNL     1     -23.306  55.327  54.089  0.00  0.00    +0.047 A 
ATOM     12  C   UNL     1     -22.522  54.175  53.672  0.00  0.00    +0.035 A 
ATOM     32  C   UNL     1     -21.193  54.395  53.206  0.00  0.00    +0.024 A 
ATOM     33  C   UNL     1     -20.632  55.722  53.142  0.00  0.00    +0.007 A 
ATOM     34  C   UNL     1     -21.402  56.862  53.549  0.00  0.00    -0.029 A 
ATOM     35  C   UNL     1     -20.753  58.262  53.453  0.00  0.00    +0.045 C 
ENDROOT
BRANCH  10   9
ATOM      4  C   UNL     1     -25.082  59.135  57.418  0.00  0.00    +0.077 A 
ATOM      5  C   UNL     1     -24.690  58.216  58.447  0.00  0.00    +0.048 A 
ATOM      6  C   UNL     1     -23.899  57.110  58.063  0.00  0.00    +0.116 A 
ATOM      7  N   UNL     1     -23.534  56.945  56.744  0.00  0.00    -0.223 NA
ATOM      8  C   UNL     1     -23.930  57.850  55.776  0.00  0.00    +0.220 A 
ATOM      9  N   UNL     1     -23.568  57.708  54.446  0.00  0.00    -0.283 N 
ATOM     36  H   UNL     1     -23.886  58.393  53.761  0.00  0.00    +0.155 HD
ATOM     37  N   UNL     1     -24.687  58.913  56.118  0.00  0.00    -0.214 NA
BRANCH   4   3
ATOM      1  C   UNL     1     -27.137  62.422  56.899  0.00  0.00    +0.020 A 
ATOM      2  C   UNL     1     -26.333  61.259  56.604  0.00  0.00    +0.013 A 
ATOM      3  C   UNL     1     -25.915  60.354  57.668  0.00  0.00    +0.019 A 
ATOM     38  C   UNL     1     -26.331  60.657  59.029  0.00  0.00    +0.120 A 
ATOM     39  N   UNL     1     -27.105  61.785  59.282  0.00  0.00    -0.263 NA
ATOM     40  C   UNL     1     -27.512  62.664  58.267  0.00  0.00    +0.111 A 
ENDBRANCH   4   3
ENDBRANCH  10   9
BRANCH  12  13
ATOM     13  N   UNL     1     -23.015  52.820  53.699  0.00  0.00    -0.281 N 
ATOM     14  C   UNL     1     -23.053  51.949  54.775  0.00  0.00    +0.248 C 
ATOM     30  O   UNL     1     -22.469  52.131  55.832  0.00  0.00    -0.270 OA
ATOM     31  H   UNL     1     -23.381  52.460  52.817  0.00  0.00    +0.155 HD
BRANCH  14  15
ATOM     15  C   UNL     1     -23.843  50.686  54.654  0.00  0.00    +0.037 A 
ATOM     16  C   UNL     1     -24.077  49.821  55.813  0.00  0.00    +0.013 A 
ATOM     17  C   UNL     1     -24.828  48.600  55.665  0.00  0.00    +0.005 A 
ATOM     18  C   UNL     1     -25.353  48.237  54.351  0.00  0.00    -0.033 A 
ATOM     28  C   UNL     1     -25.111  49.115  53.219  0.00  0.00    +0.005 A 
ATOM     29  C   UNL     1     -24.374  50.313  53.360  0.00  0.00    +0.013 A 
BRANCH  18  19
ATOM     19  C   UNL     1     -26.147  46.942  54.096  0.00  0.00    +0.119 C 
BRANCH  19  20
ATOM     20  N   UNL     1     -25.398  45.781  53.527  0.00  0.00    -0.302 NA
ATOM     21  C   UNL     1     -24.087  45.522  54.275  0.00  0.00    +0.066 C 
ATOM     22  C   UNL     1     -23.328  44.290  53.681  0.00  0.00    -0.064 C 
ATOM     23  N   UNL     1     -23.066  44.525  52.193  0.00  0.00    +0.379 N 
ATOM     24  C   UNL     1     -22.301  43.396  51.645  0.00  0.00    -0.096 C 
ATOM     25  H   UNL     1     -22.433  45.439  52.101  0.00  0.00    -0.082 HD
ATOM     26  C   UNL     1     -24.364  44.787  51.442  0.00  0.00    -0.064 C 
ATOM     27  C   UNL     1     -25.125  45.994  52.059  0.00  0.00    +0.066 C 
ENDBRANCH  19  20
ENDBRANCH  18  19
ENDBRANCH  14  15
ENDBRANCH  12  13
TORSDOF 6
ENDMDL
MODEL 2
REMARK VINA RESULT:      -8.8     33.212     36.458
REMARK  Name = C:\Users\Docking\Desktop\test protocol\1iep_ligandH.pdb
REMARK  8 active torsions:
REMARK  status: ('A' for Active; 'I' for Inactive)
REMARK    1  A    between atoms: _5  and  _11
REMARK    2  A    between atoms: _19  and  _21
REMARK    3  A    between atoms: _22  and  _66
REMARK    4  A    between atoms: _27  and  _30
REMARK    5  A    between atoms: _32  and  _33
REMARK    6  A    between atoms: _38  and  _43
REMARK    7  A    between atoms: _43  and  _46
REMARK    8  A    between atoms: _53  and  _55
REMARK                            x       y       z     vdW  Elec       q    Type
REMARK                         _______ _______ _______ _____ _____    ______ ____
ROOT
ATOM     10  C   UNL     1      12.945  52.468  44.602  0.00  0.00    +0.038 A 
ATOM     11  C   UNL     1      11.757  51.761  44.921  0.00  0.00    +0.047 A 
ATOM     12  C   UNL     1      10.902  51.216  43.877  0.00  0.00    +0.035 A 
ATOM     32  C   UNL     1      11.289  51.407  42.519  0.00  0.00    +0.024 A 
ATOM     33  C   UNL     1      12.493  52.123  42.176  0.00  0.00    +0.007 A 
ATOM     34  C   UNL     1      13.338  52.665  43.201  0.00  0.00    -0.029 A 
ATOM     35  C   UNL     1      14.613  53.430  42.776  0.00  0.00    +0.045 C 
ENDROOT
BRANCH  10   9
ATOM      4  C   UNL     1      16.350  51.985  47.949  0.00  0.00    +0.077 A 
ATOM      5  C   UNL     1      16.569  50.608  47.612  0.00  0.00    +0.048 A 
ATOM      6  C   UNL     1      15.780  50.060  46.576  0.00  0.00    +0.116 A 
ATOM      7  N   UNL     1      14.844  50.840  45.932  0.00  0.00    -0.223 NA
ATOM      8  C   UNL     1      14.657  52.165  46.283  0.00  0.00    +0.220 A 
ATOM      9  N   UNL     1      13.728  52.970  45.643  0.00  0.00    -0.283 N 
ATOM     36  H   UNL     1      13.615  53.940  45.936  0.00  0.00    +0.155 HD
ATOM     37  N   UNL     1      15.398  52.711  47.269  0.00  0.00    -0.214 NA
BRANCH   4   3
ATOM      1  C   UNL     1      17.241  54.236  51.021  0.00  0.00    +0.020 A 
ATOM      2  C   UNL     1      16.463  53.560  50.009  0.00  0.00    +0.013 A 
ATOM      3  C   UNL     1      17.108  52.708  49.018  0.00  0.00    +0.019 A 
ATOM     38  C   UNL     1      18.555  52.559  49.081  0.00  0.00    +0.120 A 
ATOM     39  N   UNL     1      19.278  53.223  50.067  0.00  0.00    -0.263 NA
ATOM     40  C   UNL     1      18.668  54.047  51.024  0.00  0.00    +0.111 A 
ENDBRANCH   4   3
ENDBRANCH  10   9
BRANCH  12  13
ATOM     13  N   UNL     1       9.681  50.497  44.141  0.00  0.00    -0.281 N 
ATOM     14  C   UNL     1       8.428  51.019  44.420  0.00  0.00    +0.248 C 
ATOM     30  O   UNL     1       8.214  52.190  44.698  0.00  0.00    -0.270 OA
ATOM     31  H   UNL     1       9.747  49.479  44.118  0.00  0.00    +0.155 HD
BRANCH  14  15
ATOM     15  C   UNL     1       7.245  50.106  44.402  0.00  0.00    +0.037 A 
ATOM     16  C   UNL     1       5.917  50.591  44.016  0.00  0.00    +0.013 A 
ATOM     17  C   UNL     1       4.789  49.693  44.023  0.00  0.00    +0.005 A 
ATOM     18  C   UNL     1       4.985  48.300  44.419  0.00  0.00    -0.033 A 
ATOM     28  C   UNL     1       6.314  47.845  44.793  0.00  0.00    +0.005 A 
ATOM     29  C   UNL     1       7.422  48.722  44.787  0.00  0.00    +0.013 A 
BRANCH  18  19
ATOM     19  C   UNL     1       3.835  47.278  44.477  0.00  0.00    +0.119 C 
BRANCH  19  20
ATOM     20  N   UNL     1       2.451  47.791  44.248  0.00  0.00    -0.302 NA
ATOM     21  C   UNL     1       1.577  47.664  45.499  0.00  0.00    +0.066 C 
ATOM     22  C   UNL     1       0.140  48.226  45.248  0.00  0.00    -0.064 C 
ATOM     23  N   UNL     1      -0.494  47.490  44.067  0.00  0.00    +0.379 N 
ATOM     24  C   UNL     1      -1.867  47.976  43.866  0.00  0.00    -0.096 C 
ATOM     25  H   UNL     1      -0.553  46.409  44.334  0.00  0.00    -0.082 HD
ATOM     26  C   UNL     1       0.370  47.610  42.820  0.00  0.00    -0.064 C 
ATOM     27  C   UNL     1       1.805  47.075  43.088  0.00  0.00    +0.066 C 
ENDBRANCH  19  20
ENDBRANCH  18  19
ENDBRANCH  14  15
ENDBRANCH  12  13
TORSDOF 6
ENDMDL
MODEL 3
REMARK VINA RESULT:      -8.7     31.277     35.060
REMARK  Name = C:\Users\Docking\Desktop\test protocol\1iep_ligandH.pdb
REMARK  8 active torsions:
REMARK  status: ('A' for Active; 'I' for Inactive)
REMARK    1  A    between atoms: _5  and  _11
REMARK    2  A    between atoms: _19  and  _21
REMARK    3  A    between atoms: _22  and  _66
REMARK    4  A    between atoms: _27  and  _30
REMARK    5  A    between atoms: _32  and  _33
REMARK    6  A    between atoms: _38  and  _43
REMARK    7  A    between atoms: _43  and  _46
REMARK    8  A    between atoms: _53  and  _55
REMARK                            x       y       z     vdW  Elec       q    Type
REMARK                         _______ _______ _______ _____ _____    ______ ____
ROOT
ATOM     10  C   UNL     1       5.243  51.412  42.778  0.00  0.00    +0.038 A 
ATOM     11  C   UNL     1       6.364  51.081  43.583  0.00  0.00    +0.047 A 
ATOM     12  C   UNL     1       7.518  51.963  43.664  0.00  0.00    +0.035 A 
ATOM     32  C   UNL     1       7.496  53.175  42.915  0.00  0.00    +0.024 A 
ATOM     33  C   UNL     1       6.365  53.526  42.091  0.00  0.00    +0.007 A 
ATOM     34  C   UNL     1       5.225  52.659  42.005  0.00  0.00    -0.029 A 
ATOM     35  C   UNL     1       4.044  53.083  41.101  0.00  0.00    +0.045 C 
ENDROOT
BRANCH  10   9
ATOM      4  C   UNL     1       0.816  50.077  44.067  0.00  0.00    +0.077 A 
ATOM      5  C   UNL     1       0.654  51.223  44.914  0.00  0.00    +0.048 A 
ATOM      6  C   UNL     1       1.736  52.128  44.997  0.00  0.00    +0.116 A 
ATOM      7  N   UNL     1       2.889  51.895  44.280  0.00  0.00    -0.223 NA
ATOM      8  C   UNL     1       3.014  50.779  43.473  0.00  0.00    +0.220 A 
ATOM      9  N   UNL     1       4.162  50.528  42.737  0.00  0.00    -0.283 N 
ATOM     36  H   UNL     1       4.218  49.690  42.160  0.00  0.00    +0.155 HD
ATOM     37  N   UNL     1       1.996  49.899  43.379  0.00  0.00    -0.214 NA
BRANCH   4   3
ATOM      1  C   UNL     1      -2.614  48.198  44.026  0.00  0.00    +0.020 A 
ATOM      2  C   UNL     1      -1.635  49.240  44.234  0.00  0.00    +0.013 A 
ATOM      3  C   UNL     1      -0.238  49.032  43.873  0.00  0.00    +0.019 A 
ATOM     38  C   UNL     1       0.138  47.749  43.298  0.00  0.00    +0.120 A 
ATOM     39  N   UNL     1      -0.827  46.764  43.111  0.00  0.00    -0.263 NA
ATOM     40  C   UNL     1      -2.173  46.952  43.456  0.00  0.00    +0.111 A 
ENDBRANCH   4   3
ENDBRANCH  10   9
BRANCH  12  13
ATOM     13  N   UNL     1       8.687  51.677  44.457  0.00  0.00    -0.281 N 
ATOM     14  C   UNL     1       9.940  51.284  44.016  0.00  0.00    +0.248 C 
ATOM     30  O   UNL     1      10.187  50.910  42.879  0.00  0.00    -0.270 OA
ATOM     31  H   UNL     1       8.578  51.776  45.467  0.00  0.00    +0.155 HD
BRANCH  14  15
ATOM     15  C   UNL     1      11.081  51.293  44.981  0.00  0.00    +0.037 A 
ATOM     16  C   UNL     1      12.470  51.237  44.517  0.00  0.00    +0.013 A 
ATOM     17  C   UNL     1      13.551  51.231  45.470  0.00  0.00    +0.005 A 
ATOM     18  C   UNL     1      13.248  51.281  46.898  0.00  0.00    -0.033 A 
ATOM     28  C   UNL     1      11.862  51.342  47.331  0.00  0.00    +0.005 A 
ATOM     29  C   UNL     1      10.799  51.347  46.400  0.00  0.00    +0.013 A 
BRANCH  18  19
ATOM     19  C   UNL     1      14.338  51.257  47.986  0.00  0.00    +0.119 C 
BRANCH  19  20
ATOM     20  N   UNL     1      15.729  51.604  47.568  0.00  0.00    -0.302 NA
ATOM     21  C   UNL     1      16.623  50.366  47.464  0.00  0.00    +0.066 C 
ATOM     22  C   UNL     1      18.069  50.745  47.004  0.00  0.00    -0.064 C 
ATOM     23  N   UNL     1      18.662  51.761  47.982  0.00  0.00    +0.379 N 
ATOM     24  C   UNL     1      20.042  52.076  47.585  0.00  0.00    -0.096 C 
ATOM     25  H   UNL     1      18.700  51.280  48.987  0.00  0.00    -0.082 HD
ATOM     26  C   UNL     1      17.777  52.995  48.094  0.00  0.00    -0.064 C 
ATOM     27  C   UNL     1      16.335  52.603  48.523  0.00  0.00    +0.066 C 
ENDBRANCH  19  20
ENDBRANCH  18  19
ENDBRANCH  14  15
ENDBRANCH  12  13
TORSDOF 6
ENDMDL
MODEL 4
REMARK VINA RESULT:      -8.7      3.176     13.183
REMARK  Name = C:\Users\Docking\Desktop\test protocol\1iep_ligandH.pdb
REMARK  8 active torsions:
REMARK  status: ('A' for Active; 'I' for Inactive)
REMARK    1  A    between atoms: _5  and  _11
REMARK    2  A    between atoms: _19  and  _21
REMARK    3  A    between atoms: _22  and  _66
REMARK    4  A    between atoms: _27  and  _30
REMARK    5  A    between atoms: _32  and  _33
REMARK    6  A    between atoms: _38  and  _43
REMARK    7  A    between atoms: _43  and  _46
REMARK    8  A    between atoms: _53  and  _55
REMARK                            x       y       z     vdW  Elec       q    Type
REMARK                         _______ _______ _______ _____ _____    ______ ____
ROOT
ATOM     10  C   UNL     1     -22.821  55.927  53.673  0.00  0.00    +0.038 A 
ATOM     11  C   UNL     1     -23.506  56.773  54.583  0.00  0.00    +0.047 A 
ATOM     12  C   UNL     1     -22.958  58.064  54.968  0.00  0.00    +0.035 A 
ATOM     32  C   UNL     1     -21.711  58.464  54.405  0.00  0.00    +0.024 A 
ATOM     33  C   UNL     1     -21.001  57.616  53.480  0.00  0.00    +0.007 A 
ATOM     34  C   UNL     1     -21.535  56.340  53.099  0.00  0.00    -0.029 A 
ATOM     35  C   UNL     1     -20.727  55.470  52.108  0.00  0.00    +0.045 C 
ENDROOT
BRANCH  10   9
ATOM      4  C   UNL     1     -23.697  51.289  54.544  0.00  0.00    +0.077 A 
ATOM      5  C   UNL     1     -22.928  51.310  55.755  0.00  0.00    +0.048 A 
ATOM      6  C   UNL     1     -22.317  52.532  56.115  0.00  0.00    +0.116 A 
ATOM      7  N   UNL     1     -22.471  53.644  55.316  0.00  0.00    -0.223 NA
ATOM      8  C   UNL     1     -23.218  53.589  54.153  0.00  0.00    +0.220 A 
ATOM      9  N   UNL     1     -23.393  54.697  53.338  0.00  0.00    -0.283 N 
ATOM     36  H   UNL     1     -23.945  54.614  52.485  0.00  0.00    +0.155 HD
ATOM     37  N   UNL     1     -23.810  52.433  53.787  0.00  0.00    -0.214 NA
BRANCH   4   3
ATOM      1  C   UNL     1     -26.397  48.910  53.011  0.00  0.00    +0.020 A 
ATOM      2  C   UNL     1     -25.758  50.113  53.493  0.00  0.00    +0.013 A 
ATOM      3  C   UNL     1     -24.405  50.073  54.032  0.00  0.00    +0.019 A 
ATOM     38  C   UNL     1     -23.720  48.790  54.070  0.00  0.00    +0.120 A 
ATOM     39  N   UNL     1     -24.361  47.648  53.600  0.00  0.00    -0.263 NA
ATOM     40  C   UNL     1     -25.664  47.674  53.080  0.00  0.00    +0.111 A 
ENDBRANCH   4   3
ENDBRANCH  10   9
BRANCH  12  13
ATOM     13  N   UNL     1     -23.605  58.962  55.893  0.00  0.00    -0.281 N 
ATOM     14  C   UNL     1     -23.945  58.723  57.214  0.00  0.00    +0.248 C 
ATOM     30  O   UNL     1     -23.936  57.621  57.742  0.00  0.00    -0.270 OA
ATOM     31  H   UNL     1     -23.841  59.885  55.529  0.00  0.00    +0.155 HD
BRANCH  14  15
ATOM     15  C   UNL     1     -24.369  59.874  58.069  0.00  0.00    +0.037 A 
ATOM     16  C   UNL     1     -24.752  61.159  57.479  0.00  0.00    +0.013 A 
ATOM     17  C   UNL     1     -25.141  62.257  58.328  0.00  0.00    +0.005 A 
ATOM     18  C   UNL     1     -25.150  62.074  59.777  0.00  0.00    -0.033 A 
ATOM     28  C   UNL     1     -24.770  60.787  60.336  0.00  0.00    +0.005 A 
ATOM     29  C   UNL     1     -24.387  59.708  59.507  0.00  0.00    +0.013 A 
BRANCH  18  19
ATOM     19  C   UNL     1     -25.530  63.197  60.760  0.00  0.00    +0.119 C 
BRANCH  19  20
ATOM     20  N   UNL     1     -24.536  64.293  60.964  0.00  0.00    -0.302 NA
ATOM     21  C   UNL     1     -23.291  63.807  61.710  0.00  0.00    +0.066 C 
ATOM     22  C   UNL     1     -22.252  64.960  61.895  0.00  0.00    -0.064 C 
ATOM     23  N   UNL     1     -22.911  66.122  62.641  0.00  0.00    +0.379 N 
ATOM     24  C   UNL     1     -21.920  67.185  62.867  0.00  0.00    -0.096 C 
ATOM     25  H   UNL     1     -23.235  65.743  63.638  0.00  0.00    -0.082 HD
ATOM     26  C   UNL     1     -24.152  66.610  61.907  0.00  0.00    -0.064 C 
ATOM     27  C   UNL     1     -25.165  65.449  61.703  0.00  0.00    +0.066 C 
ENDBRANCH  19  20
ENDBRANCH  18  19
ENDBRANCH  14  15
ENDBRANCH  12  13
TORSDOF 6
ENDMDL
MODEL 5
REMARK VINA RESULT:      -8.6     20.089     22.944
REMARK  Name = C:\Users\Docking\Desktop\test protocol\1iep_ligandH.pdb
REMARK  8 active torsions:
REMARK  status: ('A' for Active; 'I' for Inactive)
REMARK    1  A    between atoms: _5  and  _11
REMARK    2  A    between atoms: _19  and  _21
REMARK    3  A    between atoms: _22  and  _66
REMARK    4  A    between atoms: _27  and  _30
REMARK    5  A    between atoms: _32  and  _33
REMARK    6  A    between atoms: _38  and  _43
REMARK    7  A    between atoms: _43  and  _46
REMARK    8  A    between atoms: _53  and  _55
REMARK                            x       y       z     vdW  Elec       q    Type
REMARK                         _______ _______ _______ _____ _____    ______ ____
ROOT
ATOM     10  C   UNL     1      -9.391  57.585  64.486  0.00  0.00    +0.038 A 
ATOM     11  C   UNL     1      -8.124  57.514  65.120  0.00  0.00    +0.047 A 
ATOM     12  C   UNL     1      -7.958  56.838  66.397  0.00  0.00    +0.035 A 
ATOM     32  C   UNL     1      -9.104  56.241  66.999  0.00  0.00    +0.024 A 
ATOM     33  C   UNL     1     -10.400  56.304  66.369  0.00  0.00    +0.007 A 
ATOM     34  C   UNL     1     -10.570  56.973  65.110  0.00  0.00    -0.029 A 
ATOM     35  C   UNL     1     -11.983  57.015  64.484  0.00  0.00    +0.045 C 
ENDROOT
BRANCH  10   9
ATOM      4  C   UNL     1     -10.033  61.550  61.858  0.00  0.00    +0.077 A 
ATOM      5  C   UNL     1     -10.206  62.366  63.025  0.00  0.00    +0.048 A 
ATOM      6  C   UNL     1     -10.131  61.726  64.282  0.00  0.00    +0.116 A 
ATOM      7  N   UNL     1      -9.897  60.370  64.355  0.00  0.00    -0.223 NA
ATOM      8  C   UNL     1      -9.736  59.611  63.210  0.00  0.00    +0.220 A 
ATOM      9  N   UNL     1      -9.493  58.247  63.260  0.00  0.00    -0.283 N 
ATOM     36  H   UNL     1      -9.387  57.722  62.393  0.00  0.00    +0.155 HD
ATOM     37  N   UNL     1      -9.805  60.199  61.998  0.00  0.00    -0.214 NA
BRANCH   4   3
ATOM      1  C   UNL     1     -11.165  63.411  58.609  0.00  0.00    +0.020 A 
ATOM      2  C   UNL     1     -11.165  62.924  59.970  0.00  0.00    +0.013 A 
ATOM      3  C   UNL     1     -10.082  62.081  60.459  0.00  0.00    +0.019 A 
ATOM     38  C   UNL     1      -9.005  61.746  59.539  0.00  0.00    +0.120 A 
ATOM     39  N   UNL     1      -9.033  62.228  58.235  0.00  0.00    -0.263 NA
ATOM     40  C   UNL     1     -10.070  63.040  57.752  0.00  0.00    +0.111 A 
ENDBRANCH   4   3
ENDBRANCH  10   9
BRANCH  12  13
ATOM     13  N   UNL     1      -6.699  56.741  67.092  0.00  0.00    -0.281 N 
ATOM     14  C   UNL     1      -5.782  55.703  67.052  0.00  0.00    +0.248 C 
ATOM     30  O   UNL     1      -6.006  54.600  66.575  0.00  0.00    -0.270 OA
ATOM     31  H   UNL     1      -6.453  57.533  67.685  0.00  0.00    +0.155 HD
BRANCH  14  15
ATOM     15  C   UNL     1      -4.424  55.917  67.638  0.00  0.00    +0.037 A 
ATOM     16  C   UNL     1      -4.014  57.228  68.148  0.00  0.00    +0.013 A 
ATOM     17  C   UNL     1      -2.692  57.411  68.693  0.00  0.00    +0.005 A 
ATOM     18  C   UNL     1      -1.770  56.279  68.732  0.00  0.00    -0.033 A 
ATOM     28  C   UNL     1      -2.205  54.988  68.224  0.00  0.00    +0.005 A 
ATOM     29  C   UNL     1      -3.499  54.805  67.688  0.00  0.00    +0.013 A 
BRANCH  18  19
ATOM     19  C   UNL     1      -0.334  56.388  69.276  0.00  0.00    +0.119 C 
BRANCH  19  20
ATOM     20  N   UNL     1       0.782  56.101  68.325  0.00  0.00    -0.302 NA
ATOM     21  C   UNL     1       1.716  55.007  68.849  0.00  0.00    +0.066 C 
ATOM     22  C   UNL     1       2.864  54.704  67.832  0.00  0.00    -0.064 C 
ATOM     23  N   UNL     1       3.642  55.991  67.547  0.00  0.00    +0.379 N 
ATOM     24  C   UNL     1       4.758  55.698  66.636  0.00  0.00    -0.096 C 
ATOM     25  H   UNL     1       4.076  56.343  68.511  0.00  0.00    -0.082 HD
ATOM     26  C   UNL     1       2.720  57.085  67.029  0.00  0.00    -0.064 C 
ATOM     27  C   UNL     1       1.566  57.357  68.033  0.00  0.00    +0.066 C 
ENDBRANCH  19  20
ENDBRANCH  18  19
ENDBRANCH  14  15
ENDBRANCH  12  13
TORSDOF 6
ENDMDL
