MODEL 1
REMARK VINA RESULT:      -9.3      0.000      0.000
REMARK  Name = C:\Users\Docking\Desktop\test protocol\1iep_ligandH.pdb
REMARK  8 active torsions:
REMARK  status: ('A' for Active; 'I' for Inactive)
REMARK    1  A    between atoms: _5  and  _11
REMARK    2  A    between atoms: _19  and  _21
REMARK    3  A    between atoms: _22  and  _66
REMARK    4  A    between atoms: _27  and  _30
REMARK    5  A    between atoms: _32  and  _33
REMARK    6  A    between atoms: _38  and  _43
REMARK    7  A    between atoms: _43  and  _46
REMARK    8  A    between atoms: _53  and  _55
REMARK                            x       y       z     vdW  Elec       q    Type
REMARK                         _______ _______ _______ _____ _____    ______ ____
ROOT
ATOM     10  C   UNL     1     -22.978  56.845  54.010  0.00  0.00    +0.038 A 
ATOM     11  C   UNL     1     -23.490  55.523  54.055  0.00  0.00    +0.047 A 
ATOM     12  C   UNL     1     -22.684  54.389  53.630  0.00  0.00    +0.035 A 
ATOM     32  C   UNL     1     -21.359  54.638  53.168  0.00  0.00    +0.024 A 
ATOM     33  C   UNL     1     -20.823  55.976  53.114  0.00  0.00    +0.007 A 
ATOM     34  C   UNL     1     -21.614  57.098  53.530  0.00  0.00    -0.029 A 
ATOM     35  C   UNL     1     -20.991  58.511  53.445  0.00  0.00    +0.045 C 
ENDROOT
BRANCH  10   9
ATOM      4  C   UNL     1     -25.050  59.485  57.442  0.00  0.00    +0.077 A 
ATOM      5  C   UNL     1     -24.476  58.686  58.486  0.00  0.00    +0.048 A 
ATOM      6  C   UNL     1     -23.660  57.600  58.097  0.00  0.00    +0.116 A 
ATOM      7  N   UNL     1     -23.440  57.343  56.761  0.00  0.00    -0.223 NA
ATOM      8  C   UNL     1     -24.010  58.133  55.780  0.00  0.00    +0.220 A 
ATOM      9  N   UNL     1     -23.796  57.897  54.430  0.00  0.00    -0.283 N 
ATOM     36  H   UNL     1     -24.240  58.498  53.737  0.00  0.00    +0.155 HD
ATOM     37  N   UNL     1     -24.794  59.174  56.125  0.00  0.00    -0.214 NA
BRANCH   4   3
ATOM      1  C   UNL     1     -27.522  62.010  59.120  0.00  0.00    +0.020 A 
ATOM      2  C   UNL     1     -26.685  60.848  58.928  0.00  0.00    +0.013 A 
ATOM      3  C   UNL     1     -25.932  60.669  57.693  0.00  0.00    +0.019 A 
ATOM     38  C   UNL     1     -26.048  61.692  56.665  0.00  0.00    +0.120 A 
ATOM     39  N   UNL     1     -26.864  62.799  56.877  0.00  0.00    -0.263 NA
ATOM     40  C   UNL     1     -27.594  62.981  58.061  0.00  0.00    +0.111 A 
ENDBRANCH   4   3
ENDBRANCH  10   9
BRANCH  12  13
ATOM     13  N   UNL     1     -23.153  53.026  53.646  0.00  0.00    -0.281 N 
ATOM     14  C   UNL     1     -23.537  52.270  54.741  0.00  0.00    +0.248 C 
ATOM     30  O   UNL     1     -23.332  52.584  55.904  0.00  0.00    -0.270 OA
ATOM     31  H   UNL     1     -23.208  52.562  52.739  0.00  0.00    +0.155 HD
BRANCH  14  15
ATOM     15  C   UNL     1     -24.238  50.970  54.511  0.00  0.00    +0.037 A 
ATOM     16  C   UNL     1     -24.850  50.655  53.218  0.00  0.00    +0.013 A 
ATOM     17  C   UNL     1     -25.534  49.400  53.028  0.00  0.00    +0.005 A 
ATOM     18  C   UNL     1     -25.609  48.451  54.136  0.00  0.00    -0.033 A 
ATOM     28  C   UNL     1     -24.988  48.786  55.406  0.00  0.00    +0.005 A 
ATOM     29  C   UNL     1     -24.317  50.015  55.596  0.00  0.00    +0.013 A 
BRANCH  18  19
ATOM     19  C   UNL     1     -26.337  47.098  54.029  0.00  0.00    +0.119 C 
BRANCH  19  20
ATOM     20  N   UNL     1     -25.589  45.965  53.407  0.00  0.00    -0.302 NA
ATOM     21  C   UNL     1     -24.201  45.783  54.029  0.00  0.00    +0.066 C 
ATOM     22  C   UNL     1     -23.441  44.580  53.382  0.00  0.00    -0.064 C 
ATOM     23  N   UNL     1     -23.333  44.801  51.872  0.00  0.00    +0.379 N 
ATOM     24  C   UNL     1     -22.568  43.700  51.268  0.00  0.00    -0.096 C 
ATOM     25  H   UNL     1     -22.758  45.742  51.709  0.00  0.00    -0.082 HD
ATOM     26  C   UNL     1     -24.708  44.986  51.246  0.00  0.00    -0.064 C 
ATOM     27  C   UNL     1     -25.467  46.165  51.916  0.00  0.00    +0.066 C 
ENDBRANCH  19  20
ENDBRANCH  18  19
ENDBRANCH  14  15
ENDBRANCH  12  13
TORSDOF 6
ENDMDL
MODEL 2
REMARK VINA RESULT:      -9.1     31.294     35.067
REMARK  Name = C:\Users\Docking\Desktop\test protocol\1iep_ligandH.pdb
REMARK  8 active torsions:
REMARK  status: ('A' for Active; 'I' for Inactive)
REMARK    1  A    between atoms: _5  and  _11
REMARK    2  A    between atoms: _19  and  _21
REMARK    3  A    between atoms: _22  and  _66
REMARK    4  A    between atoms: _27  and  _30
REMARK    5  A    between atoms: _32  and  _33
REMARK    6  A    between atoms: _38  and  _43
REMARK    7  A    between atoms: _43  and  _46
REMARK    8  A    between atoms: _53  and  _55
REMARK                            x       y       z     vdW  Elec       q    Type
REMARK                         _______ _______ _______ _____ _____    ______ ____
ROOT
ATOM     10  C   UNL     1       5.022  51.505  42.660  0.00  0.00    +0.038 A 
ATOM     11  C   UNL     1       6.149  51.163  43.449  0.00  0.00    +0.047 A 
ATOM     12  C   UNL     1       7.312  52.034  43.518  0.00  0.00    +0.035 A 
ATOM     32  C   UNL     1       7.291  53.249  42.773  0.00  0.00    +0.024 A 
ATOM     33  C   UNL     1       6.153  53.612  41.964  0.00  0.00    +0.007 A 
ATOM     34  C   UNL     1       5.005  52.755  41.890  0.00  0.00    -0.029 A 
ATOM     35  C   UNL     1       3.816  53.191  41.002  0.00  0.00    +0.045 C 
ENDROOT
BRANCH  10   9
ATOM      4  C   UNL     1       0.619  50.179  44.038  0.00  0.00    +0.077 A 
ATOM      5  C   UNL     1       0.489  51.308  44.912  0.00  0.00    +0.048 A 
ATOM      6  C   UNL     1       1.580  52.203  44.984  0.00  0.00    +0.116 A 
ATOM      7  N   UNL     1       2.712  51.976  44.232  0.00  0.00    -0.223 NA
ATOM      8  C   UNL     1       2.806  50.875  43.400  0.00  0.00    +0.220 A 
ATOM      9  N   UNL     1       3.933  50.631  42.629  0.00  0.00    -0.283 N 
ATOM     36  H   UNL     1       3.966  49.804  42.034  0.00  0.00    +0.155 HD
ATOM     37  N   UNL     1       1.779  50.005  43.315  0.00  0.00    -0.214 NA
BRANCH   4   3
ATOM      1  C   UNL     1      -1.260  46.880  43.095  0.00  0.00    +0.020 A 
ATOM      2  C   UNL     1      -0.193  47.842  43.252  0.00  0.00    +0.013 A 
ATOM      3  C   UNL     1      -0.448  49.146  43.851  0.00  0.00    +0.019 A 
ATOM     38  C   UNL     1      -1.804  49.447  44.284  0.00  0.00    +0.120 A 
ATOM     39  N   UNL     1      -2.812  48.502  44.119  0.00  0.00    -0.263 NA
ATOM     40  C   UNL     1      -2.578  47.244  43.543  0.00  0.00    +0.111 A 
ENDBRANCH   4   3
ENDBRANCH  10   9
BRANCH  12  13
ATOM     13  N   UNL     1       8.488  51.736  44.296  0.00  0.00    -0.281 N 
ATOM     14  C   UNL     1       9.746  51.383  43.836  0.00  0.00    +0.248 C 
ATOM     30  O   UNL     1       9.996  51.061  42.684  0.00  0.00    -0.270 OA
ATOM     31  H   UNL     1       8.381  51.791  45.309  0.00  0.00    +0.155 HD
BRANCH  14  15
ATOM     15  C   UNL     1      10.890  51.372  44.798  0.00  0.00    +0.037 A 
ATOM     16  C   UNL     1      12.278  51.350  44.329  0.00  0.00    +0.013 A 
ATOM     17  C   UNL     1      13.362  51.323  45.278  0.00  0.00    +0.005 A 
ATOM     18  C   UNL     1      13.063  51.319  46.708  0.00  0.00    -0.033 A 
ATOM     28  C   UNL     1      11.677  51.347  47.146  0.00  0.00    +0.005 A 
ATOM     29  C   UNL     1      10.611  51.373  46.219  0.00  0.00    +0.013 A 
BRANCH  18  19
ATOM     19  C   UNL     1      14.156  51.270  47.791  0.00  0.00    +0.119 C 
BRANCH  19  20
ATOM     20  N   UNL     1      15.534  51.685  47.392  0.00  0.00    -0.302 NA
ATOM     21  C   UNL     1      16.514  50.509  47.404  0.00  0.00    +0.066 C 
ATOM     22  C   UNL     1      17.945  50.957  46.962  0.00  0.00    -0.064 C 
ATOM     23  N   UNL     1      18.433  52.077  47.881  0.00  0.00    +0.379 N 
ATOM     24  C   UNL     1      19.802  52.461  47.505  0.00  0.00    -0.096 C 
ATOM     25  H   UNL     1      18.469  51.671  48.919  0.00  0.00    -0.082 HD
ATOM     26  C   UNL     1      17.463  53.250  47.878  0.00  0.00    -0.064 C 
ATOM     27  C   UNL     1      16.037  52.788  48.290  0.00  0.00    +0.066 C 
ENDBRANCH  19  20
ENDBRANCH  18  19
ENDBRANCH  14  15
ENDBRANCH  12  13
TORSDOF 6
ENDMDL
MODEL 3
REMARK VINA RESULT:      -8.7      2.974     13.066
REMARK  Name = C:\Users\Docking\Desktop\test protocol\1iep_ligandH.pdb
REMARK  8 active torsions:
REMARK  status: ('A' for Active; 'I' for Inactive)
REMARK    1  A    between atoms: _5  and  _11
REMARK    2  A    between atoms: _19  and  _21
REMARK    3  A    between atoms: _22  and  _66
REMARK    4  A    between atoms: _27  and  _30
REMARK    5  A    between atoms: _32  and  _33
REMARK    6  A    between atoms: _38  and  _43
REMARK    7  A    between atoms: _43  and  _46
REMARK    8  A    between atoms: _53  and  _55
REMARK                            x       y       z     vdW  Elec       q    Type
REMARK                         _______ _______ _______ _____ _____    ______ ____
ROOT
ATOM     10  C   UNL     1     -22.821  55.765  53.488  0.00  0.00    +0.038 A 
ATOM     11  C   UNL     1     -23.548  56.656  54.318  0.00  0.00    +0.047 A 
ATOM     12  C   UNL     1     -23.010  57.959  54.676  0.00  0.00    +0.035 A 
ATOM     32  C   UNL     1     -21.729  58.323  54.169  0.00  0.00    +0.024 A 
ATOM     33  C   UNL     1     -20.975  57.430  53.326  0.00  0.00    +0.007 A 
ATOM     34  C   UNL     1     -21.500  56.142  52.971  0.00  0.00    -0.029 A 
ATOM     35  C   UNL     1     -20.645  55.222  52.068  0.00  0.00    +0.045 C 
ENDROOT
BRANCH  10   9
ATOM      4  C   UNL     1     -24.042  51.263  54.621  0.00  0.00    +0.077 A 
ATOM      5  C   UNL     1     -23.486  51.381  55.938  0.00  0.00    +0.048 A 
ATOM      6  C   UNL     1     -22.888  52.614  56.282  0.00  0.00    +0.116 A 
ATOM      7  N   UNL     1     -22.855  53.646  55.369  0.00  0.00    -0.223 NA
ATOM      8  C   UNL     1     -23.400  53.499  54.107  0.00  0.00    +0.220 A 
ATOM      9  N   UNL     1     -23.385  54.526  53.176  0.00  0.00    -0.283 N 
ATOM     36  H   UNL     1     -23.791  54.375  52.252  0.00  0.00    +0.155 HD
ATOM     37  N   UNL     1     -23.975  52.331  53.753  0.00  0.00    -0.214 NA
BRANCH   4   3
ATOM      1  C   UNL     1     -26.666  48.796  53.094  0.00  0.00    +0.020 A 
ATOM      2  C   UNL     1     -26.066  50.020  53.574  0.00  0.00    +0.013 A 
ATOM      3  C   UNL     1     -24.711  50.025  54.110  0.00  0.00    +0.019 A 
ATOM     38  C   UNL     1     -23.983  48.765  54.145  0.00  0.00    +0.120 A 
ATOM     39  N   UNL     1     -24.587  47.603  53.676  0.00  0.00    -0.263 NA
ATOM     40  C   UNL     1     -25.891  47.585  53.160  0.00  0.00    +0.111 A 
ENDBRANCH   4   3
ENDBRANCH  10   9
BRANCH  12  13
ATOM     13  N   UNL     1     -23.700  58.902  55.521  0.00  0.00    -0.281 N 
ATOM     14  C   UNL     1     -23.786  58.902  56.904  0.00  0.00    +0.248 C 
ATOM     30  O   UNL     1     -23.460  57.965  57.617  0.00  0.00    -0.270 OA
ATOM     31  H   UNL     1     -24.183  59.662  55.042  0.00  0.00    +0.155 HD
BRANCH  14  15
ATOM     15  C   UNL     1     -24.326  60.113  57.593  0.00  0.00    +0.037 A 
ATOM     16  C   UNL     1     -24.919  61.218  56.836  0.00  0.00    +0.013 A 
ATOM     17  C   UNL     1     -25.417  62.382  57.525  0.00  0.00    +0.005 A 
ATOM     18  C   UNL     1     -25.326  62.446  58.981  0.00  0.00    -0.033 A 
ATOM     28  C   UNL     1     -24.738  61.333  59.708  0.00  0.00    +0.005 A 
ATOM     29  C   UNL     1     -24.248  60.191  59.037  0.00  0.00    +0.013 A 
BRANCH  18  19
ATOM     19  C   UNL     1     -25.813  63.658  59.798  0.00  0.00    +0.119 C 
BRANCH  19  20
ATOM     20  N   UNL     1     -25.248  63.830  61.169  0.00  0.00    -0.302 NA
ATOM     21  C   UNL     1     -26.316  63.669  62.255  0.00  0.00    +0.066 C 
ATOM     22  C   UNL     1     -25.703  63.830  63.684  0.00  0.00    -0.064 C 
ATOM     23  N   UNL     1     -25.022  65.195  63.793  0.00  0.00    +0.379 N 
ATOM     24  C   UNL     1     -24.495  65.373  65.154  0.00  0.00    -0.096 C 
ATOM     25  H   UNL     1     -25.800  65.975  63.627  0.00  0.00    -0.082 HD
ATOM     26  C   UNL     1     -23.960  65.364  62.716  0.00  0.00    -0.064 C 
ATOM     27  C   UNL     1     -24.574  65.174  61.301  0.00  0.00    +0.066 C 
ENDBRANCH  19  20
ENDBRANCH  18  19
ENDBRANCH  14  15
ENDBRANCH  12  13
TORSDOF 6
ENDMDL
MODEL 4
REMARK VINA RESULT:      -8.7     26.455     28.014
REMARK  Name = C:\Users\Docking\Desktop\test protocol\1iep_ligandH.pdb
REMARK  8 active torsions:
REMARK  status: ('A' for Active; 'I' for Inactive)
REMARK    1  A    between atoms: _5  and  _11
REMARK    2  A    between atoms: _19  and  _21
REMARK    3  A    between atoms: _22  and  _66
REMARK    4  A    between atoms: _27  and  _30
REMARK    5  A    between atoms: _32  and  _33
REMARK    6  A    between atoms: _38  and  _43
REMARK    7  A    between atoms: _43  and  _46
REMARK    8  A    between atoms: _53  and  _55
REMARK                            x       y       z     vdW  Elec       q    Type
REMARK                         _______ _______ _______ _____ _____    ______ ____
ROOT
ATOM     10  C   UNL     1      -2.128  57.746  41.662  0.00  0.00    +0.038 A 
ATOM     11  C   UNL     1      -1.287  56.687  42.087  0.00  0.00    +0.047 A 
ATOM     12  C   UNL     1      -1.287  55.404  41.400  0.00  0.00    +0.035 A 
ATOM     32  C   UNL     1      -2.154  55.237  40.282  0.00  0.00    +0.024 A 
ATOM     33  C   UNL     1      -3.016  56.303  39.836  0.00  0.00    +0.007 A 
ATOM     34  C   UNL     1      -3.023  57.569  40.511  0.00  0.00    -0.029 A 
ATOM     35  C   UNL     1      -3.973  58.674  39.994  0.00  0.00    +0.045 C 
ENDROOT
BRANCH  10   9
ATOM      4  C   UNL     1       0.198  61.613  43.298  0.00  0.00    +0.077 A 
ATOM      5  C   UNL     1       1.444  61.171  42.742  0.00  0.00    +0.048 A 
ATOM      6  C   UNL     1       1.446  59.940  42.049  0.00  0.00    +0.116 A 
ATOM      7  N   UNL     1       0.281  59.213  41.926  0.00  0.00    -0.223 NA
ATOM      8  C   UNL     1      -0.904  59.667  42.475  0.00  0.00    +0.220 A 
ATOM      9  N   UNL     1      -2.088  58.956  42.358  0.00  0.00    -0.283 N 
ATOM     36  H   UNL     1      -2.940  59.321  42.784  0.00  0.00    +0.155 HD
ATOM     37  N   UNL     1      -0.931  60.839  43.144  0.00  0.00    -0.214 NA
BRANCH   4   3
ATOM      1  C   UNL     1      -1.363  64.764  45.011  0.00  0.00    +0.020 A 
ATOM      2  C   UNL     1      -1.260  63.527  44.272  0.00  0.00    +0.013 A 
ATOM      3  C   UNL     1       0.035  62.894  44.056  0.00  0.00    +0.019 A 
ATOM     38  C   UNL     1       1.215  63.543  44.605  0.00  0.00    +0.120 A 
ATOM     39  N   UNL     1       1.086  64.734  45.312  0.00  0.00    -0.263 NA
ATOM     40  C   UNL     1      -0.155  65.354  45.525  0.00  0.00    +0.111 A 
ENDBRANCH   4   3
ENDBRANCH  10   9
BRANCH  12  13
ATOM     13  N   UNL     1      -0.460  54.289  41.792  0.00  0.00    -0.281 N 
ATOM     14  C   UNL     1       0.798  53.954  41.318  0.00  0.00    +0.248 C 
ATOM     30  O   UNL     1       1.316  54.445  40.326  0.00  0.00    -0.270 OA
ATOM     31  H   UNL     1      -0.850  53.672  42.504  0.00  0.00    +0.155 HD
BRANCH  14  15
ATOM     15  C   UNL     1       1.588  52.913  42.043  0.00  0.00    +0.037 A 
ATOM     16  C   UNL     1       1.587  52.840  43.506  0.00  0.00    +0.013 A 
ATOM     17  C   UNL     1       2.372  51.837  44.181  0.00  0.00    +0.005 A 
ATOM     18  C   UNL     1       3.164  50.896  43.391  0.00  0.00    -0.033 A 
ATOM     28  C   UNL     1       3.142  50.988  41.941  0.00  0.00    +0.005 A 
ATOM     29  C   UNL     1       2.375  51.970  41.276  0.00  0.00    +0.013 A 
BRANCH  18  19
ATOM     19  C   UNL     1       4.047  49.806  44.028  0.00  0.00    +0.119 C 
BRANCH  19  20
ATOM     20  N   UNL     1       3.547  48.401  43.969  0.00  0.00    -0.302 NA
ATOM     21  C   UNL     1       2.223  48.230  44.720  0.00  0.00    +0.066 C 
ATOM     22  C   UNL     1       1.703  46.758  44.630  0.00  0.00    -0.064 C 
ATOM     23  N   UNL     1       2.767  45.810  45.185  0.00  0.00    +0.379 N 
ATOM     24  C   UNL     1       2.258  44.431  45.155  0.00  0.00    -0.096 C 
ATOM     25  H   UNL     1       2.940  46.083  46.252  0.00  0.00    -0.082 HD
ATOM     26  C   UNL     1       4.087  45.974  44.446  0.00  0.00    -0.064 C 
ATOM     27  C   UNL     1       4.580  47.447  44.517  0.00  0.00    +0.066 C 
ENDBRANCH  19  20
ENDBRANCH  18  19
ENDBRANCH  14  15
ENDBRANCH  12  13
TORSDOF 6
ENDMDL
MODEL 5
REMARK VINA RESULT:      -8.7      2.278     12.732
REMARK  Name = C:\Users\Docking\Desktop\test protocol\1iep_ligandH.pdb
REMARK  8 active torsions:
REMARK  status: ('A' for Active; 'I' for Inactive)
REMARK    1  A    between atoms: _5  and  _11
REMARK    2  A    between atoms: _19  and  _21
REMARK    3  A    between atoms: _22  and  _66
REMARK    4  A    between atoms: _27  and  _30
REMARK    5  A    between atoms: _32  and  _33
REMARK    6  A    between atoms: _38  and  _43
REMARK    7  A    between atoms: _43  and  _46
REMARK    8  A    between atoms: _53  and  _55
REMARK                            x       y       z     vdW  Elec       q    Type
REMARK                         _______ _______ _______ _____ _____    ______ ____
ROOT
ATOM     10  C   UNL     1     -22.816  55.744  53.487  0.00  0.00    +0.038 A 
ATOM     11  C   UNL     1     -23.521  56.640  54.330  0.00  0.00    +0.047 A 
ATOM     12  C   UNL     1     -22.962  57.935  54.686  0.00  0.00    +0.035 A 
ATOM     32  C   UNL     1     -21.683  58.286  54.162  0.00  0.00    +0.024 A 
ATOM     33  C   UNL     1     -20.953  57.386  53.304  0.00  0.00    +0.007 A 
ATOM     34  C   UNL     1     -21.498  56.107  52.952  0.00  0.00    -0.029 A 
ATOM     35  C   UNL     1     -20.668  55.180  52.034  0.00  0.00    +0.045 C 
ENDROOT
BRANCH  10   9
ATOM      4  C   UNL     1     -24.033  51.237  54.602  0.00  0.00    +0.077 A 
ATOM      5  C   UNL     1     -23.430  51.333  55.900  0.00  0.00    +0.048 A 
ATOM      6  C   UNL     1     -22.811  52.557  56.240  0.00  0.00    +0.116 A 
ATOM      7  N   UNL     1     -22.802  53.600  55.340  0.00  0.00    -0.223 NA
ATOM      8  C   UNL     1     -23.391  53.474  54.095  0.00  0.00    +0.220 A 
ATOM      9  N   UNL     1     -23.400  54.513  53.177  0.00  0.00    -0.283 N 
ATOM     36  H   UNL     1     -23.839  54.378  52.267  0.00  0.00    +0.155 HD
ATOM     37  N   UNL     1     -23.987  52.315  53.746  0.00  0.00    -0.214 NA
BRANCH   4   3
ATOM      1  C   UNL     1     -26.724  48.810  53.130  0.00  0.00    +0.020 A 
ATOM      2  C   UNL     1     -26.099  50.022  53.606  0.00  0.00    +0.013 A 
ATOM      3  C   UNL     1     -24.728  50.010  54.098  0.00  0.00    +0.019 A 
ATOM     38  C   UNL     1     -24.010  48.744  54.095  0.00  0.00    +0.120 A 
ATOM     39  N   UNL     1     -24.638  47.592  53.633  0.00  0.00    -0.263 NA
ATOM     40  C   UNL     1     -25.958  47.592  53.158  0.00  0.00    +0.111 A 
ENDBRANCH   4   3
ENDBRANCH  10   9
BRANCH  12  13
ATOM     13  N   UNL     1     -23.627  58.884  55.544  0.00  0.00    -0.281 N 
ATOM     14  C   UNL     1     -23.752  58.843  56.923  0.00  0.00    +0.248 C 
ATOM     30  O   UNL     1     -23.492  57.867  57.612  0.00  0.00    -0.270 OA
ATOM     31  H   UNL     1     -24.059  59.682  55.079  0.00  0.00    +0.155 HD
BRANCH  14  15
ATOM     15  C   UNL     1     -24.251  60.056  57.639  0.00  0.00    +0.037 A 
ATOM     16  C   UNL     1     -24.734  61.228  56.904  0.00  0.00    +0.013 A 
ATOM     17  C   UNL     1     -25.194  62.391  57.620  0.00  0.00    +0.005 A 
ATOM     18  C   UNL     1     -25.174  62.388  59.080  0.00  0.00    -0.033 A 
ATOM     28  C   UNL     1     -24.695  61.210  59.785  0.00  0.00    +0.005 A 
ATOM     29  C   UNL     1     -24.242  60.068  59.087  0.00  0.00    +0.013 A 
BRANCH  18  19
ATOM     19  C   UNL     1     -25.627  63.593  59.926  0.00  0.00    +0.119 C 
BRANCH  19  20
ATOM     20  N   UNL     1     -26.931  63.474  60.643  0.00  0.00    -0.302 NA
ATOM     21  C   UNL     1     -28.018  62.853  59.761  0.00  0.00    +0.066 C 
ATOM     22  C   UNL     1     -29.369  62.715  60.534  0.00  0.00    -0.064 C 
ATOM     23  N   UNL     1     -29.805  64.091  61.043  0.00  0.00    +0.379 N 
ATOM     24  C   UNL     1     -31.105  63.974  61.720  0.00  0.00    -0.096 C 
ATOM     25  H   UNL     1     -29.944  64.751  60.155  0.00  0.00    -0.082 HD
ATOM     26  C   UNL     1     -28.729  64.717  61.919  0.00  0.00    -0.064 C 
ATOM     27  C   UNL     1     -27.383  64.822  61.150  0.00  0.00    +0.066 C 
ENDBRANCH  19  20
ENDBRANCH  18  19
ENDBRANCH  14  15
ENDBRANCH  12  13
TORSDOF 6
ENDMDL
