MODEL 1
REMARK VINA RESULT:     -10.4      0.000      0.000
REMARK  Name = C:\Users\Docking\Desktop\test protocol\1iep_ligandH.pdb
REMARK  8 active torsions:
REMARK  status: ('A' for Active; 'I' for Inactive)
REMARK    1  A    between atoms: _5  and  _11
REMARK    2  A    between atoms: _19  and  _21
REMARK    3  A    between atoms: _22  and  _66
REMARK    4  A    between atoms: _27  and  _30
REMARK    5  A    between atoms: _32  and  _33
REMARK    6  A    between atoms: _38  and  _43
REMARK    7  A    between atoms: _43  and  _46
REMARK    8  A    between atoms: _53  and  _55
REMARK                            x       y       z     vdW  Elec       q    Type
REMARK                         _______ _______ _______ _____ _____    ______ ____
ROOT
ATOM     10  C   UNL     1      12.091  52.341  45.384  0.00  0.00    +0.038 A 
ATOM     11  C   UNL     1      11.037  51.423  45.627  0.00  0.00    +0.047 A 
ATOM     12  C   UNL     1      10.082  51.081  44.585  0.00  0.00    +0.035 A 
ATOM     32  C   UNL     1      10.232  51.690  43.305  0.00  0.00    +0.024 A 
ATOM     33  C   UNL     1      11.296  52.626  43.041  0.00  0.00    +0.007 A 
ATOM     34  C   UNL     1      12.240  52.969  44.066  0.00  0.00    -0.029 A 
ATOM     35  C   UNL     1      13.358  53.983  43.729  0.00  0.00    +0.045 C 
ENDROOT
BRANCH  10   9
ATOM      4  C   UNL     1      16.122  51.529  47.859  0.00  0.00    +0.077 A 
ATOM      5  C   UNL     1      16.475  50.411  47.032  0.00  0.00    +0.048 A 
ATOM      6  C   UNL     1      15.588  50.073  45.985  0.00  0.00    +0.116 A 
ATOM      7  N   UNL     1      14.438  50.806  45.789  0.00  0.00    -0.223 NA
ATOM      8  C   UNL     1      14.127  51.877  46.606  0.00  0.00    +0.220 A 
ATOM      9  N   UNL     1      12.979  52.633  46.422  0.00  0.00    -0.283 N 
ATOM     36  H   UNL     1      12.782  53.411  47.050  0.00  0.00    +0.155 HD
ATOM     37  N   UNL     1      14.956  52.219  47.613  0.00  0.00    -0.214 NA
BRANCH   4   3
ATOM      1  C   UNL     1      18.884  51.783  50.617  0.00  0.00    +0.020 A 
ATOM      2  C   UNL     1      18.109  51.273  49.510  0.00  0.00    +0.013 A 
ATOM      3  C   UNL     1      16.959  52.010  49.003  0.00  0.00    +0.019 A 
ATOM     38  C   UNL     1      16.616  53.271  49.645  0.00  0.00    +0.120 A 
ATOM     39  N   UNL     1      17.380  53.736  50.711  0.00  0.00    -0.263 NA
ATOM     40  C   UNL     1      18.489  53.034  51.208  0.00  0.00    +0.111 A 
ENDBRANCH   4   3
ENDBRANCH  10   9
BRANCH  12  13
ATOM     13  N   UNL     1       8.987  50.163  44.775  0.00  0.00    -0.281 N 
ATOM     14  C   UNL     1       7.670  50.460  45.086  0.00  0.00    +0.248 C 
ATOM     30  O   UNL     1       7.278  51.556  45.459  0.00  0.00    -0.270 OA
ATOM     31  H   UNL     1       9.209  49.173  44.668  0.00  0.00    +0.155 HD
BRANCH  14  15
ATOM     15  C   UNL     1       6.642  49.380  44.980  0.00  0.00    +0.037 A 
ATOM     16  C   UNL     1       5.329  49.637  44.382  0.00  0.00    +0.013 A 
ATOM     17  C   UNL     1       4.349  48.582  44.308  0.00  0.00    +0.005 A 
ATOM     18  C   UNL     1       4.680  47.260  44.833  0.00  0.00    -0.033 A 
ATOM     28  C   UNL     1       5.991  47.031  45.417  0.00  0.00    +0.005 A 
ATOM     29  C   UNL     1       6.954  48.063  45.492  0.00  0.00    +0.013 A 
BRANCH  18  19
ATOM     19  C   UNL     1       3.688  46.081  44.816  0.00  0.00    +0.119 C 
BRANCH  19  20
ATOM     20  N   UNL     1       2.232  46.412  44.809  0.00  0.00    -0.302 NA
ATOM     21  C   UNL     1       1.678  46.541  43.388  0.00  0.00    +0.066 C 
ATOM     22  C   UNL     1       0.149  46.866  43.400  0.00  0.00    -0.064 C 
ATOM     23  N   UNL     1      -0.090  48.152  44.193  0.00  0.00    +0.379 N 
ATOM     24  C   UNL     1      -1.520  48.491  44.157  0.00  0.00    -0.096 C 
ATOM     25  H   UNL     1       0.465  48.972  43.682  0.00  0.00    -0.082 HD
ATOM     26  C   UNL     1       0.460  48.033  45.607  0.00  0.00    -0.064 C 
ATOM     27  C   UNL     1       1.974  47.681  45.584  0.00  0.00    +0.066 C 
ENDBRANCH  19  20
ENDBRANCH  18  19
ENDBRANCH  14  15
ENDBRANCH  12  13
TORSDOF 6
ENDMDL
MODEL 2
REMARK VINA RESULT:     -10.0     22.831     33.376
REMARK  Name = C:\Users\Docking\Desktop\test protocol\1iep_ligandH.pdb
REMARK  8 active torsions:
REMARK  status: ('A' for Active; 'I' for Inactive)
REMARK    1  A    between atoms: _5  and  _11
REMARK    2  A    between atoms: _19  and  _21
REMARK    3  A    between atoms: _22  and  _66
REMARK    4  A    between atoms: _27  and  _30
REMARK    5  A    between atoms: _32  and  _33
REMARK    6  A    between atoms: _38  and  _43
REMARK    7  A    between atoms: _43  and  _46
REMARK    8  A    between atoms: _53  and  _55
REMARK                            x       y       z     vdW  Elec       q    Type
REMARK                         _______ _______ _______ _____ _____    ______ ____
ROOT
ATOM     10  C   UNL     1     -22.201  53.151  56.588  0.00  0.00    +0.038 A 
ATOM     11  C   UNL     1     -21.336  52.928  55.486  0.00  0.00    +0.047 A 
ATOM     12  C   UNL     1     -20.300  53.887  55.138  0.00  0.00    +0.035 A 
ATOM     32  C   UNL     1     -20.171  55.062  55.935  0.00  0.00    +0.024 A 
ATOM     33  C   UNL     1     -21.042  55.305  57.058  0.00  0.00    +0.007 A 
ATOM     34  C   UNL     1     -22.068  54.363  57.404  0.00  0.00    -0.029 A 
ATOM     35  C   UNL     1     -22.978  54.678  58.615  0.00  0.00    +0.045 C 
ENDROOT
BRANCH  10   9
ATOM      4  C   UNL     1     -25.908  50.373  55.331  0.00  0.00    +0.077 A 
ATOM      5  C   UNL     1     -25.915  50.886  53.991  0.00  0.00    +0.048 A 
ATOM      6  C   UNL     1     -24.952  51.869  53.668  0.00  0.00    +0.116 A 
ATOM      7  N   UNL     1     -24.055  52.298  54.622  0.00  0.00    -0.223 NA
ATOM      8  C   UNL     1     -24.077  51.784  55.905  0.00  0.00    +0.220 A 
ATOM      9  N   UNL     1     -23.179  52.196  56.877  0.00  0.00    -0.283 N 
ATOM     36  H   UNL     1     -23.233  51.798  57.815  0.00  0.00    +0.155 HD
ATOM     37  N   UNL     1     -24.987  50.846  56.239  0.00  0.00    -0.214 NA
BRANCH   4   3
ATOM      1  C   UNL     1     -28.034  47.103  55.633  0.00  0.00    +0.020 A 
ATOM      2  C   UNL     1     -27.104  48.079  55.114  0.00  0.00    +0.013 A 
ATOM      3  C   UNL     1     -26.861  49.328  55.824  0.00  0.00    +0.019 A 
ATOM     38  C   UNL     1     -27.580  49.560  57.068  0.00  0.00    +0.120 A 
ATOM     39  N   UNL     1     -28.470  48.603  57.543  0.00  0.00    -0.263 NA
ATOM     40  C   UNL     1     -28.714  47.398  56.867  0.00  0.00    +0.111 A 
ENDBRANCH   4   3
ENDBRANCH  10   9
BRANCH  12  13
ATOM     13  N   UNL     1     -19.397  53.719  54.026  0.00  0.00    -0.281 N 
ATOM     14  C   UNL     1     -19.422  54.369  52.803  0.00  0.00    +0.248 C 
ATOM     30  O   UNL     1     -20.357  55.044  52.398  0.00  0.00    -0.270 OA
ATOM     31  H   UNL     1     -18.649  53.038  54.156  0.00  0.00    +0.155 HD
BRANCH  14  15
ATOM     15  C   UNL     1     -18.244  54.240  51.892  0.00  0.00    +0.037 A 
ATOM     16  C   UNL     1     -18.380  53.665  50.551  0.00  0.00    +0.013 A 
ATOM     17  C   UNL     1     -17.224  53.536  49.700  0.00  0.00    +0.005 A 
ATOM     18  C   UNL     1     -15.922  53.985  50.186  0.00  0.00    -0.033 A 
ATOM     28  C   UNL     1     -15.817  54.557  51.518  0.00  0.00    +0.005 A 
ATOM     29  C   UNL     1     -16.947  54.684  52.357  0.00  0.00    +0.013 A 
BRANCH  18  19
ATOM     19  C   UNL     1     -14.632  53.867  49.354  0.00  0.00    +0.119 C 
BRANCH  19  20
ATOM     20  N   UNL     1     -13.403  53.394  50.060  0.00  0.00    -0.302 NA
ATOM     21  C   UNL     1     -12.558  54.559  50.583  0.00  0.00    +0.066 C 
ATOM     22  C   UNL     1     -11.288  54.046  51.338  0.00  0.00    -0.064 C 
ATOM     23  N   UNL     1     -10.467  53.157  50.404  0.00  0.00    +0.379 N 
ATOM     24  C   UNL     1      -9.243  52.720  51.092  0.00  0.00    -0.096 C 
ATOM     25  H   UNL     1     -10.160  53.777  49.530  0.00  0.00    -0.082 HD
ATOM     26  C   UNL     1     -11.301  51.998  49.876  0.00  0.00    -0.064 C 
ATOM     27  C   UNL     1     -12.574  52.518  49.153  0.00  0.00    +0.066 C 
ENDBRANCH  19  20
ENDBRANCH  18  19
ENDBRANCH  14  15
ENDBRANCH  12  13
TORSDOF 6
ENDMDL
MODEL 3
REMARK VINA RESULT:      -9.2      2.703     13.139
REMARK  Name = C:\Users\Docking\Desktop\test protocol\1iep_ligandH.pdb
REMARK  8 active torsions:
REMARK  status: ('A' for Active; 'I' for Inactive)
REMARK    1  A    between atoms: _5  and  _11
REMARK    2  A    between atoms: _19  and  _21
REMARK    3  A    between atoms: _22  and  _66
REMARK    4  A    between atoms: _27  and  _30
REMARK    5  A    between atoms: _32  and  _33
REMARK    6  A    between atoms: _38  and  _43
REMARK    7  A    between atoms: _43  and  _46
REMARK    8  A    between atoms: _53  and  _55
REMARK                            x       y       z     vdW  Elec       q    Type
REMARK                         _______ _______ _______ _____ _____    ______ ____
ROOT
ATOM     10  C   UNL     1       5.513  52.547  42.873  0.00  0.00    +0.038 A 
ATOM     11  C   UNL     1       6.490  52.316  43.874  0.00  0.00    +0.047 A 
ATOM     12  C   UNL     1       7.904  52.532  43.610  0.00  0.00    +0.035 A 
ATOM     32  C   UNL     1       8.288  52.987  42.315  0.00  0.00    +0.024 A 
ATOM     33  C   UNL     1       7.308  53.226  41.285  0.00  0.00    +0.007 A 
ATOM     34  C   UNL     1       5.912  53.012  41.539  0.00  0.00    -0.029 A 
ATOM     35  C   UNL     1       4.906  53.279  40.394  0.00  0.00    +0.045 C 
ENDROOT
BRANCH  10   9
ATOM      4  C   UNL     1       1.926  49.733  44.374  0.00  0.00    +0.077 A 
ATOM      5  C   UNL     1       2.799  48.606  44.532  0.00  0.00    +0.048 A 
ATOM      6  C   UNL     1       4.162  48.789  44.210  0.00  0.00    +0.116 A 
ATOM      7  N   UNL     1       4.609  50.014  43.764  0.00  0.00    -0.223 NA
ATOM      8  C   UNL     1       3.741  51.081  43.620  0.00  0.00    +0.220 A 
ATOM      9  N   UNL     1       4.169  52.324  43.181  0.00  0.00    -0.283 N 
ATOM     36  H   UNL     1       3.496  53.083  43.081  0.00  0.00    +0.155 HD
ATOM     37  N   UNL     1       2.434  50.931  43.920  0.00  0.00    -0.214 NA
BRANCH   4   3
ATOM      1  C   UNL     1      -1.593  48.615  45.664  0.00  0.00    +0.020 A 
ATOM      2  C   UNL     1      -0.173  48.600  45.397  0.00  0.00    +0.013 A 
ATOM      3  C   UNL     1       0.461  49.698  44.677  0.00  0.00    +0.019 A 
ATOM     38  C   UNL     1      -0.377  50.803  44.237  0.00  0.00    +0.120 A 
ATOM     39  N   UNL     1      -1.742  50.789  44.508  0.00  0.00    -0.263 NA
ATOM     40  C   UNL     1      -2.363  49.738  45.199  0.00  0.00    +0.111 A 
ENDBRANCH   4   3
ENDBRANCH  10   9
BRANCH  12  13
ATOM     13  N   UNL     1       8.942  52.306  44.585  0.00  0.00    -0.281 N 
ATOM     14  C   UNL     1       9.715  51.170  44.759  0.00  0.00    +0.248 C 
ATOM     30  O   UNL     1       9.484  50.090  44.235  0.00  0.00    -0.270 OA
ATOM     31  H   UNL     1       9.130  53.078  45.226  0.00  0.00    +0.155 HD
BRANCH  14  15
ATOM     15  C   UNL     1      10.910  51.240  45.654  0.00  0.00    +0.037 A 
ATOM     16  C   UNL     1      10.767  51.442  47.098  0.00  0.00    +0.013 A 
ATOM     17  C   UNL     1      11.936  51.522  47.937  0.00  0.00    +0.005 A 
ATOM     18  C   UNL     1      13.261  51.398  47.333  0.00  0.00    -0.033 A 
ATOM     28  C   UNL     1      13.374  51.193  45.898  0.00  0.00    +0.005 A 
ATOM     29  C   UNL     1      12.230  51.115  45.073  0.00  0.00    +0.013 A 
BRANCH  18  19
ATOM     19  C   UNL     1      14.564  51.492  48.148  0.00  0.00    +0.119 C 
BRANCH  19  20
ATOM     20  N   UNL     1      15.839  51.635  47.384  0.00  0.00    -0.302 NA
ATOM     21  C   UNL     1      16.908  50.648  47.861  0.00  0.00    +0.066 C 
ATOM     22  C   UNL     1      18.228  50.796  47.036  0.00  0.00    -0.064 C 
ATOM     23  N   UNL     1      18.735  52.235  47.143  0.00  0.00    +0.379 N 
ATOM     24  C   UNL     1      20.006  52.364  46.417  0.00  0.00    -0.096 C 
ATOM     25  H   UNL     1      18.937  52.443  48.220  0.00  0.00    -0.082 HD
ATOM     26  C   UNL     1      17.677  53.224  46.674  0.00  0.00    -0.064 C 
ATOM     27  C   UNL     1      16.360  53.049  47.480  0.00  0.00    +0.066 C 
ENDBRANCH  19  20
ENDBRANCH  18  19
ENDBRANCH  14  15
ENDBRANCH  12  13
TORSDOF 6
ENDMDL
MODEL 4
REMARK VINA RESULT:      -9.1     33.357     35.838
REMARK  Name = C:\Users\Docking\Desktop\test protocol\1iep_ligandH.pdb
REMARK  8 active torsions:
REMARK  status: ('A' for Active; 'I' for Inactive)
REMARK    1  A    between atoms: _5  and  _11
REMARK    2  A    between atoms: _19  and  _21
REMARK    3  A    between atoms: _22  and  _66
REMARK    4  A    between atoms: _27  and  _30
REMARK    5  A    between atoms: _32  and  _33
REMARK    6  A    between atoms: _38  and  _43
REMARK    7  A    between atoms: _43  and  _46
REMARK    8  A    between atoms: _53  and  _55
REMARK                            x       y       z     vdW  Elec       q    Type
REMARK                         _______ _______ _______ _____ _____    ______ ____
ROOT
ATOM     10  C   UNL     1     -25.986  50.499  53.266  0.00  0.00    +0.038 A 
ATOM     11  C   UNL     1     -25.477  49.307  52.688  0.00  0.00    +0.047 A 
ATOM     12  C   UNL     1     -25.914  48.000  53.154  0.00  0.00    +0.035 A 
ATOM     32  C   UNL     1     -26.872  47.943  54.208  0.00  0.00    +0.024 A 
ATOM     33  C   UNL     1     -27.398  49.145  54.807  0.00  0.00    +0.007 A 
ATOM     34  C   UNL     1     -26.969  50.437  54.353  0.00  0.00    -0.029 A 
ATOM     35  C   UNL     1     -27.563  51.691  55.037  0.00  0.00    +0.045 C 
ENDROOT
BRANCH  10   9
ATOM      4  C   UNL     1     -23.200  54.397  53.555  0.00  0.00    +0.077 A 
ATOM      5  C   UNL     1     -22.618  53.962  54.792  0.00  0.00    +0.048 A 
ATOM      6  C   UNL     1     -23.069  52.733  55.324  0.00  0.00    +0.116 A 
ATOM      7  N   UNL     1     -24.029  52.002  54.660  0.00  0.00    -0.223 NA
ATOM      8  C   UNL     1     -24.571  52.450  53.469  0.00  0.00    +0.220 A 
ATOM      9  N   UNL     1     -25.532  51.727  52.780  0.00  0.00    -0.283 N 
ATOM     36  H   UNL     1     -25.912  52.096  51.909  0.00  0.00    +0.155 HD
ATOM     37  N   UNL     1     -24.158  53.622  52.941  0.00  0.00    -0.214 NA
BRANCH   4   3
ATOM      1  C   UNL     1     -21.148  57.236  51.815  0.00  0.00    +0.020 A 
ATOM      2  C   UNL     1     -21.456  55.991  52.479  0.00  0.00    +0.013 A 
ATOM      3  C   UNL     1     -22.825  55.672  52.865  0.00  0.00    +0.019 A 
ATOM     38  C   UNL     1     -23.867  56.641  52.560  0.00  0.00    +0.120 A 
ATOM     39  N   UNL     1     -23.540  57.832  51.921  0.00  0.00    -0.263 NA
ATOM     40  C   UNL     1     -22.226  58.151  51.546  0.00  0.00    +0.111 A 
ENDBRANCH   4   3
ENDBRANCH  10   9
BRANCH  12  13
ATOM     13  N   UNL     1     -25.426  46.756  52.611  0.00  0.00    -0.281 N 
ATOM     14  C   UNL     1     -24.465  45.913  53.144  0.00  0.00    +0.248 C 
ATOM     30  O   UNL     1     -23.720  46.210  54.066  0.00  0.00    -0.270 OA
ATOM     31  H   UNL     1     -25.841  46.461  51.727  0.00  0.00    +0.155 HD
BRANCH  14  15
ATOM     15  C   UNL     1     -24.296  44.549  52.558  0.00  0.00    +0.037 A 
ATOM     16  C   UNL     1     -23.294  44.284  51.523  0.00  0.00    +0.013 A 
ATOM     17  C   UNL     1     -23.164  42.962  50.963  0.00  0.00    +0.005 A 
ATOM     18  C   UNL     1     -24.039  41.894  51.439  0.00  0.00    -0.033 A 
ATOM     28  C   UNL     1     -25.021  42.182  52.471  0.00  0.00    +0.005 A 
ATOM     29  C   UNL     1     -25.152  43.477  53.022  0.00  0.00    +0.013 A 
BRANCH  18  19
ATOM     19  C   UNL     1     -23.984  40.458  50.883  0.00  0.00    +0.119 C 
BRANCH  19  20
ATOM     20  N   UNL     1     -25.110  40.023  50.003  0.00  0.00    -0.302 NA
ATOM     21  C   UNL     1     -25.814  38.777  50.547  0.00  0.00    +0.066 C 
ATOM     22  C   UNL     1     -27.003  38.348  49.626  0.00  0.00    -0.064 C 
ATOM     23  N   UNL     1     -26.483  38.102  48.209  0.00  0.00    +0.379 N 
ATOM     24  C   UNL     1     -27.588  37.643  47.354  0.00  0.00    -0.096 C 
ATOM     25  H   UNL     1     -25.733  37.279  48.262  0.00  0.00    -0.082 HD
ATOM     26  C   UNL     1     -25.779  39.335  47.662  0.00  0.00    -0.064 C 
ATOM     27  C   UNL     1     -24.618  39.770  48.599  0.00  0.00    +0.066 C 
ENDBRANCH  19  20
ENDBRANCH  18  19
ENDBRANCH  14  15
ENDBRANCH  12  13
TORSDOF 6
ENDMDL
MODEL 5
REMARK VINA RESULT:      -9.0      9.501     14.485
REMARK  Name = C:\Users\Docking\Desktop\test protocol\1iep_ligandH.pdb
REMARK  8 active torsions:
REMARK  status: ('A' for Active; 'I' for Inactive)
REMARK    1  A    between atoms: _5  and  _11
REMARK    2  A    between atoms: _19  and  _21
REMARK    3  A    between atoms: _22  and  _66
REMARK    4  A    between atoms: _27  and  _30
REMARK    5  A    between atoms: _32  and  _33
REMARK    6  A    between atoms: _38  and  _43
REMARK    7  A    between atoms: _43  and  _46
REMARK    8  A    between atoms: _53  and  _55
REMARK                            x       y       z     vdW  Elec       q    Type
REMARK                         _______ _______ _______ _____ _____    ______ ____
ROOT
ATOM     10  C   UNL     1      -1.983  57.325  41.783  0.00  0.00    +0.038 A 
ATOM     11  C   UNL     1      -1.076  56.401  42.362  0.00  0.00    +0.047 A 
ATOM     12  C   UNL     1      -0.849  55.094  41.766  0.00  0.00    +0.035 A 
ATOM     32  C   UNL     1      -1.562  54.761  40.577  0.00  0.00    +0.024 A 
ATOM     33  C   UNL     1      -2.488  55.688  39.975  0.00  0.00    +0.007 A 
ATOM     34  C   UNL     1      -2.717  56.977  40.560  0.00  0.00    -0.029 A 
ATOM     35  C   UNL     1      -3.727  57.928  39.876  0.00  0.00    +0.045 C 
ENDROOT
BRANCH  10   9
ATOM      4  C   UNL     1      -0.671  61.867  42.608  0.00  0.00    +0.077 A 
ATOM      5  C   UNL     1       0.483  61.750  41.764  0.00  0.00    +0.048 A 
ATOM      6  C   UNL     1       0.707  60.501  41.142  0.00  0.00    +0.116 A 
ATOM      7  N   UNL     1      -0.164  59.455  41.355  0.00  0.00    -0.223 NA
ATOM      8  C   UNL     1      -1.267  59.602  42.176  0.00  0.00    +0.220 A 
ATOM      9  N   UNL     1      -2.161  58.566  42.397  0.00  0.00    -0.283 N 
ATOM     36  H   UNL     1      -2.959  58.712  43.016  0.00  0.00    +0.155 HD
ATOM     37  N   UNL     1      -1.503  60.784  42.783  0.00  0.00    -0.214 NA
BRANCH   4   3
ATOM      1  C   UNL     1      -0.739  64.815  45.179  0.00  0.00    +0.020 A 
ATOM      2  C   UNL     1      -0.339  63.595  44.517  0.00  0.00    +0.013 A 
ATOM      3  C   UNL     1      -1.045  63.123  43.333  0.00  0.00    +0.019 A 
ATOM     38  C   UNL     1      -2.161  63.916  42.839  0.00  0.00    +0.120 A 
ATOM     39  N   UNL     1      -2.525  65.086  43.498  0.00  0.00    -0.263 NA
ATOM     40  C   UNL     1      -1.854  65.549  44.640  0.00  0.00    +0.111 A 
ENDBRANCH   4   3
ENDBRANCH  10   9
BRANCH  12  13
ATOM     13  N   UNL     1       0.053  54.112  42.313  0.00  0.00    -0.281 N 
ATOM     14  C   UNL     1      -0.252  53.039  43.135  0.00  0.00    +0.248 C 
ATOM     30  O   UNL     1      -1.325  52.885  43.700  0.00  0.00    -0.270 OA
ATOM     31  H   UNL     1       1.037  54.220  42.065  0.00  0.00    +0.155 HD
BRANCH  14  15
ATOM     15  C   UNL     1       0.789  51.994  43.375  0.00  0.00    +0.037 A 
ATOM     16  C   UNL     1       0.941  51.360  44.687  0.00  0.00    +0.013 A 
ATOM     17  C   UNL     1       1.965  50.367  44.897  0.00  0.00    +0.005 A 
ATOM     18  C   UNL     1       2.844  50.000  43.789  0.00  0.00    -0.033 A 
ATOM     28  C   UNL     1       2.667  50.641  42.496  0.00  0.00    +0.005 A 
ATOM     29  C   UNL     1       1.666  51.615  42.288  0.00  0.00    +0.013 A 
BRANCH  18  19
ATOM     19  C   UNL     1       3.976  48.966  43.927  0.00  0.00    +0.119 C 
BRANCH  19  20
ATOM     20  N   UNL     1       3.590  47.523  43.917  0.00  0.00    -0.302 NA
ATOM     21  C   UNL     1       2.084  47.330  44.114  0.00  0.00    +0.066 C 
ATOM     22  C   UNL     1       1.695  45.817  44.078  0.00  0.00    -0.064 C 
ATOM     23  N   UNL     1       2.482  45.064  45.152  0.00  0.00    +0.379 N 
ATOM     24  C   UNL     1       2.076  43.652  45.159  0.00  0.00    -0.096 C 
ATOM     25  H   UNL     1       2.208  45.501  46.140  0.00  0.00    -0.082 HD
ATOM     26  C   UNL     1       3.981  45.253  44.964  0.00  0.00    -0.064 C 
ATOM     27  C   UNL     1       4.353  46.762  44.973  0.00  0.00    +0.066 C 
ENDBRANCH  19  20
ENDBRANCH  18  19
ENDBRANCH  14  15
ENDBRANCH  12  13
TORSDOF 6
ENDMDL
