MODEL 1
REMARK VINA RESULT:      -6.6      0.000      0.000
REMARK  Name = C:\Users\Docking\Desktop\test protocol\1iep_ligandH.pdb
REMARK  8 active torsions:
REMARK  status: ('A' for Active; 'I' for Inactive)
REMARK    1  A    between atoms: _5  and  _11
REMARK    2  A    between atoms: _19  and  _21
REMARK    3  A    between atoms: _22  and  _66
REMARK    4  A    between atoms: _27  and  _30
REMARK    5  A    between atoms: _32  and  _33
REMARK    6  A    between atoms: _38  and  _43
REMARK    7  A    between atoms: _43  and  _46
REMARK    8  A    between atoms: _53  and  _55
REMARK                            x       y       z     vdW  Elec       q    Type
REMARK                         _______ _______ _______ _____ _____    ______ ____
ROOT
ATOM     10  C   UNL     1      10.168  36.068  30.526  0.00  0.00    +0.038 A 
ATOM     11  C   UNL     1       8.932  36.757  30.634  0.00  0.00    +0.047 A 
ATOM     12  C   UNL     1       8.393  37.514  29.515  0.00  0.00    +0.035 A 
ATOM     32  C   UNL     1       9.137  37.547  28.300  0.00  0.00    +0.024 A 
ATOM     33  C   UNL     1      10.395  36.854  28.173  0.00  0.00    +0.007 A 
ATOM     34  C   UNL     1      10.933  36.107  29.274  0.00  0.00    -0.029 A 
ATOM     35  C   UNL     1      12.289  35.389  29.084  0.00  0.00    +0.045 C 
ENDROOT
BRANCH  10   9
ATOM      4  C   UNL     1      10.596  32.036  33.094  0.00  0.00    +0.077 A 
ATOM      5  C   UNL     1       9.791  31.291  32.169  0.00  0.00    +0.048 A 
ATOM      6  C   UNL     1       9.280  31.985  31.049  0.00  0.00    +0.116 A 
ATOM      7  N   UNL     1       9.560  33.323  30.877  0.00  0.00    -0.223 NA
ATOM      8  C   UNL     1      10.338  34.012  31.789  0.00  0.00    +0.220 A 
ATOM      9  N   UNL     1      10.638  35.356  31.631  0.00  0.00    -0.283 N 
ATOM     36  H   UNL     1      11.210  35.830  32.330  0.00  0.00    +0.155 HD
ATOM     37  N   UNL     1      10.836  33.372  32.867  0.00  0.00    -0.214 NA
BRANCH   4   3
ATOM      1  C   UNL     1      11.212  29.839  36.271  0.00  0.00    +0.020 A 
ATOM      2  C   UNL     1      10.576  30.378  35.091  0.00  0.00    +0.013 A 
ATOM      3  C   UNL     1      11.210  31.443  34.324  0.00  0.00    +0.019 A 
ATOM     38  C   UNL     1      12.497  31.944  34.781  0.00  0.00    +0.120 A 
ATOM     39  N   UNL     1      13.085  31.407  35.922  0.00  0.00    -0.263 NA
ATOM     40  C   UNL     1      12.484  30.383  36.669  0.00  0.00    +0.111 A 
ENDBRANCH   4   3
ENDBRANCH  10   9
BRANCH  12  13
ATOM     13  N   UNL     1       7.148  38.240  29.569  0.00  0.00    -0.281 N 
ATOM     14  C   UNL     1       5.895  37.812  29.163  0.00  0.00    +0.248 C 
ATOM     30  O   UNL     1       5.690  36.812  28.491  0.00  0.00    -0.270 OA
ATOM     31  H   UNL     1       7.196  39.184  29.953  0.00  0.00    +0.155 HD
BRANCH  14  15
ATOM     15  C   UNL     1       4.696  38.619  29.546  0.00  0.00    +0.037 A 
ATOM     16  C   UNL     1       3.429  37.975  29.900  0.00  0.00    +0.013 A 
ATOM     17  C   UNL     1       2.283  38.778  30.250  0.00  0.00    +0.005 A 
ATOM     18  C   UNL     1       2.402  40.234  30.249  0.00  0.00    -0.033 A 
ATOM     28  C   UNL     1       3.673  40.846  29.899  0.00  0.00    +0.005 A 
ATOM     29  C   UNL     1       4.797  40.062  29.554  0.00  0.00    +0.013 A 
BRANCH  18  19
ATOM     19  C   UNL     1       1.226  41.169  30.588  0.00  0.00    +0.119 C 
BRANCH  19  20
ATOM     20  N   UNL     1       1.215  41.788  31.947  0.00  0.00    -0.302 NA
ATOM     21  C   UNL     1       1.963  43.124  31.976  0.00  0.00    +0.066 C 
ATOM     22  C   UNL     1       1.922  43.769  33.400  0.00  0.00    -0.064 C 
ATOM     23  N   UNL     1       2.518  42.793  34.416  0.00  0.00    +0.379 N 
ATOM     24  C   UNL     1       2.535  43.419  35.746  0.00  0.00    -0.096 C 
ATOM     25  H   UNL     1       3.575  42.600  34.119  0.00  0.00    -0.082 HD
ATOM     26  C   UNL     1       1.783  41.460  34.392  0.00  0.00    -0.064 C 
ATOM     27  C   UNL     1       1.804  40.843  32.966  0.00  0.00    +0.066 C 
ENDBRANCH  19  20
ENDBRANCH  18  19
ENDBRANCH  14  15
ENDBRANCH  12  13
TORSDOF 6
ENDMDL
MODEL 2
REMARK VINA RESULT:      -6.6     19.826     25.332
REMARK  Name = C:\Users\Docking\Desktop\test protocol\1iep_ligandH.pdb
REMARK  8 active torsions:
REMARK  status: ('A' for Active; 'I' for Inactive)
REMARK    1  A    between atoms: _5  and  _11
REMARK    2  A    between atoms: _19  and  _21
REMARK    3  A    between atoms: _22  and  _66
REMARK    4  A    between atoms: _27  and  _30
REMARK    5  A    between atoms: _32  and  _33
REMARK    6  A    between atoms: _38  and  _43
REMARK    7  A    between atoms: _43  and  _46
REMARK    8  A    between atoms: _53  and  _55
REMARK                            x       y       z     vdW  Elec       q    Type
REMARK                         _______ _______ _______ _____ _____    ______ ____
ROOT
ATOM     10  C   UNL     1       9.262  52.323  51.704  0.00  0.00    +0.038 A 
ATOM     11  C   UNL     1       8.132  51.467  51.690  0.00  0.00    +0.047 A 
ATOM     12  C   UNL     1       6.862  51.906  51.133  0.00  0.00    +0.035 A 
ATOM     32  C   UNL     1       6.779  53.225  50.598  0.00  0.00    +0.024 A 
ATOM     33  C   UNL     1       7.918  54.109  50.605  0.00  0.00    +0.007 A 
ATOM     34  C   UNL     1       9.172  53.682  51.155  0.00  0.00    -0.029 A 
ATOM     35  C   UNL     1      10.358  54.675  51.142  0.00  0.00    +0.045 C 
ENDROOT
BRANCH  10   9
ATOM      4  C   UNL     1      12.356  51.843  55.342  0.00  0.00    +0.077 A 
ATOM      5  C   UNL     1      11.535  52.624  56.222  0.00  0.00    +0.048 A 
ATOM      6  C   UNL     1      10.327  53.138  55.696  0.00  0.00    +0.116 A 
ATOM      7  N   UNL     1       9.978  52.882  54.388  0.00  0.00    -0.223 NA
ATOM      8  C   UNL     1      10.793  52.126  53.567  0.00  0.00    +0.220 A 
ATOM      9  N   UNL     1      10.457  51.850  52.250  0.00  0.00    -0.283 N 
ATOM     36  H   UNL     1      11.090  51.294  51.674  0.00  0.00    +0.155 HD
ATOM     37  N   UNL     1      11.952  51.626  54.044  0.00  0.00    -0.214 NA
BRANCH   4   3
ATOM      1  C   UNL     1      15.052  49.322  56.637  0.00  0.00    +0.020 A 
ATOM      2  C   UNL     1      13.769  49.867  56.256  0.00  0.00    +0.013 A 
ATOM      3  C   UNL     1      13.659  51.229  55.751  0.00  0.00    +0.019 A 
ATOM     38  C   UNL     1      14.876  52.020  55.641  0.00  0.00    +0.120 A 
ATOM     39  N   UNL     1      16.097  51.469  56.017  0.00  0.00    -0.263 NA
ATOM     40  C   UNL     1      16.215  50.160  56.506  0.00  0.00    +0.111 A 
ENDBRANCH   4   3
ENDBRANCH  10   9
BRANCH  12  13
ATOM     13  N   UNL     1       5.678  51.084  51.099  0.00  0.00    -0.281 N 
ATOM     14  C   UNL     1       4.367  51.467  51.331  0.00  0.00    +0.248 C 
ATOM     30  O   UNL     1       4.037  52.538  51.817  0.00  0.00    -0.270 OA
ATOM     31  H   UNL     1       5.824  50.099  50.875  0.00  0.00    +0.155 HD
BRANCH  14  15
ATOM     15  C   UNL     1       3.266  50.517  50.988  0.00  0.00    +0.037 A 
ATOM     16  C   UNL     1       2.591  49.730  52.023  0.00  0.00    +0.013 A 
ATOM     17  C   UNL     1       1.543  48.808  51.663  0.00  0.00    +0.005 A 
ATOM     18  C   UNL     1       1.161  48.671  50.259  0.00  0.00    -0.033 A 
ATOM     28  C   UNL     1       1.844  49.468  49.253  0.00  0.00    +0.005 A 
ATOM     29  C   UNL     1       2.872  50.372  49.603  0.00  0.00    +0.013 A 
BRANCH  18  19
ATOM     19  C   UNL     1       0.068  47.697  49.781  0.00  0.00    +0.119 C 
BRANCH  19  20
ATOM     20  N   UNL     1       0.446  46.710  48.725  0.00  0.00    -0.302 NA
ATOM     21  C   UNL     1      -0.719  45.787  48.358  0.00  0.00    +0.066 C 
ATOM     22  C   UNL     1      -0.314  44.777  47.236  0.00  0.00    -0.064 C 
ATOM     23  N   UNL     1       0.896  43.963  47.700  0.00  0.00    +0.379 N 
ATOM     24  C   UNL     1       1.244  42.972  46.671  0.00  0.00    -0.096 C 
ATOM     25  H   UNL     1       0.597  43.407  48.619  0.00  0.00    -0.082 HD
ATOM     26  C   UNL     1       2.059  44.874  48.069  0.00  0.00    -0.064 C 
ATOM     27  C   UNL     1       1.636  45.893  49.164  0.00  0.00    +0.066 C 
ENDBRANCH  19  20
ENDBRANCH  18  19
ENDBRANCH  14  15
ENDBRANCH  12  13
TORSDOF 6
ENDMDL
MODEL 3
REMARK VINA RESULT:      -6.5     15.218     20.010
REMARK  Name = C:\Users\Docking\Desktop\test protocol\1iep_ligandH.pdb
REMARK  8 active torsions:
REMARK  status: ('A' for Active; 'I' for Inactive)
REMARK    1  A    between atoms: _5  and  _11
REMARK    2  A    between atoms: _19  and  _21
REMARK    3  A    between atoms: _22  and  _66
REMARK    4  A    between atoms: _27  and  _30
REMARK    5  A    between atoms: _32  and  _33
REMARK    6  A    between atoms: _38  and  _43
REMARK    7  A    between atoms: _43  and  _46
REMARK    8  A    between atoms: _53  and  _55
REMARK                            x       y       z     vdW  Elec       q    Type
REMARK                         _______ _______ _______ _____ _____    ______ ____
ROOT
ATOM     10  C   UNL     1       4.628  48.797  40.993  0.00  0.00    +0.038 A 
ATOM     11  C   UNL     1       5.359  49.927  41.441  0.00  0.00    +0.047 A 
ATOM     12  C   UNL     1       5.491  51.114  40.611  0.00  0.00    +0.035 A 
ATOM     32  C   UNL     1       4.863  51.117  39.331  0.00  0.00    +0.024 A 
ATOM     33  C   UNL     1       4.117  49.977  38.860  0.00  0.00    +0.007 A 
ATOM     34  C   UNL     1       3.986  48.802  39.673  0.00  0.00    -0.029 A 
ATOM     35  C   UNL     1       3.180  47.606  39.114  0.00  0.00    +0.045 C 
ENDROOT
BRANCH  10   9
ATOM      4  C   UNL     1       2.490  46.301  44.491  0.00  0.00    +0.077 A 
ATOM      5  C   UNL     1       1.492  47.314  44.684  0.00  0.00    +0.048 A 
ATOM      6  C   UNL     1       1.568  48.464  43.868  0.00  0.00    +0.116 A 
ATOM      7  N   UNL     1       2.572  48.583  42.931  0.00  0.00    -0.223 NA
ATOM      8  C   UNL     1       3.520  47.588  42.772  0.00  0.00    +0.220 A 
ATOM      9  N   UNL     1       4.533  47.683  41.831  0.00  0.00    -0.283 N 
ATOM     36  H   UNL     1       5.218  46.931  41.749  0.00  0.00    +0.155 HD
ATOM     37  N   UNL     1       3.469  46.480  43.540  0.00  0.00    -0.214 NA
BRANCH   4   3
ATOM      1  C   UNL     1       1.910  43.588  47.249  0.00  0.00    +0.020 A 
ATOM      2  C   UNL     1       1.828  44.840  46.532  0.00  0.00    +0.013 A 
ATOM      3  C   UNL     1       2.540  45.026  45.274  0.00  0.00    +0.019 A 
ATOM     38  C   UNL     1       3.333  43.917  44.765  0.00  0.00    +0.120 A 
ATOM     39  N   UNL     1       3.394  42.724  45.478  0.00  0.00    -0.263 NA
ATOM     40  C   UNL     1       2.714  42.534  46.690  0.00  0.00    +0.111 A 
ENDBRANCH   4   3
ENDBRANCH  10   9
BRANCH  12  13
ATOM     13  N   UNL     1       6.227  52.289  41.009  0.00  0.00    -0.281 N 
ATOM     14  C   UNL     1       6.027  53.081  42.128  0.00  0.00    +0.248 C 
ATOM     30  O   UNL     1       5.042  53.022  42.849  0.00  0.00    -0.270 OA
ATOM     31  H   UNL     1       6.987  52.570  40.390  0.00  0.00    +0.155 HD
BRANCH  14  15
ATOM     15  C   UNL     1       7.064  54.094  42.490  0.00  0.00    +0.037 A 
ATOM     16  C   UNL     1       8.285  54.249  41.694  0.00  0.00    +0.013 A 
ATOM     17  C   UNL     1       9.277  55.223  42.075  0.00  0.00    +0.005 A 
ATOM     18  C   UNL     1       9.052  56.050  43.258  0.00  0.00    -0.033 A 
ATOM     28  C   UNL     1       7.830  55.878  44.026  0.00  0.00    +0.005 A 
ATOM     29  C   UNL     1       6.855  54.925  43.656  0.00  0.00    +0.013 A 
BRANCH  18  19
ATOM     19  C   UNL     1      10.066  57.099  43.751  0.00  0.00    +0.119 C 
BRANCH  19  20
ATOM     20  N   UNL     1      11.224  56.606  44.555  0.00  0.00    -0.302 NA
ATOM     21  C   UNL     1      10.836  56.330  46.011  0.00  0.00    +0.066 C 
ATOM     22  C   UNL     1      12.054  55.794  46.832  0.00  0.00    -0.064 C 
ATOM     23  N   UNL     1      13.200  56.804  46.759  0.00  0.00    +0.379 N 
ATOM     24  C   UNL     1      14.325  56.330  47.578  0.00  0.00    -0.096 C 
ATOM     25  H   UNL     1      12.837  57.759  47.204  0.00  0.00    -0.082 HD
ATOM     26  C   UNL     1      13.590  57.086  45.315  0.00  0.00    -0.064 C 
ATOM     27  C   UNL     1      12.366  57.591  44.500  0.00  0.00    +0.066 C 
ENDBRANCH  19  20
ENDBRANCH  18  19
ENDBRANCH  14  15
ENDBRANCH  12  13
TORSDOF 6
ENDMDL
MODEL 4
REMARK VINA RESULT:      -6.4     18.449     24.363
REMARK  Name = C:\Users\Docking\Desktop\test protocol\1iep_ligandH.pdb
REMARK  8 active torsions:
REMARK  status: ('A' for Active; 'I' for Inactive)
REMARK    1  A    between atoms: _5  and  _11
REMARK    2  A    between atoms: _19  and  _21
REMARK    3  A    between atoms: _22  and  _66
REMARK    4  A    between atoms: _27  and  _30
REMARK    5  A    between atoms: _32  and  _33
REMARK    6  A    between atoms: _38  and  _43
REMARK    7  A    between atoms: _43  and  _46
REMARK    8  A    between atoms: _53  and  _55
REMARK                            x       y       z     vdW  Elec       q    Type
REMARK                         _______ _______ _______ _____ _____    ______ ____
ROOT
ATOM     10  C   UNL     1       2.082  47.146  48.570  0.00  0.00    +0.038 A 
ATOM     11  C   UNL     1       1.754  47.031  49.945  0.00  0.00    +0.047 A 
ATOM     12  C   UNL     1       1.054  48.098  50.643  0.00  0.00    +0.035 A 
ATOM     32  C   UNL     1       0.702  49.268  49.910  0.00  0.00    +0.024 A 
ATOM     33  C   UNL     1       1.028  49.402  48.512  0.00  0.00    +0.007 A 
ATOM     34  C   UNL     1       1.720  48.354  47.818  0.00  0.00    -0.029 A 
ATOM     35  C   UNL     1       2.051  48.555  46.321  0.00  0.00    +0.045 C 
ENDROOT
BRANCH  10   9
ATOM      4  C   UNL     1       2.141  42.927  46.282  0.00  0.00    +0.077 A 
ATOM      5  C   UNL     1       0.714  42.802  46.353  0.00  0.00    +0.048 A 
ATOM      6  C   UNL     1       0.002  43.841  46.993  0.00  0.00    +0.116 A 
ATOM      7  N   UNL     1       0.678  44.921  47.519  0.00  0.00    -0.223 NA
ATOM      8  C   UNL     1       2.055  45.010  47.434  0.00  0.00    +0.220 A 
ATOM      9  N   UNL     1       2.754  46.091  47.949  0.00  0.00    -0.283 N 
ATOM     36  H   UNL     1       3.771  46.116  47.873  0.00  0.00    +0.155 HD
ATOM     37  N   UNL     1       2.758  44.030  46.829  0.00  0.00    -0.214 NA
BRANCH   4   3
ATOM      1  C   UNL     1       5.286  41.086  44.861  0.00  0.00    +0.020 A 
ATOM      2  C   UNL     1       4.471  42.097  45.494  0.00  0.00    +0.013 A 
ATOM      3  C   UNL     1       3.032  41.913  45.634  0.00  0.00    +0.019 A 
ATOM     38  C   UNL     1       2.445  40.685  45.119  0.00  0.00    +0.120 A 
ATOM     39  N   UNL     1       3.255  39.730  44.513  0.00  0.00    -0.263 NA
ATOM     40  C   UNL     1       4.640  39.897  44.371  0.00  0.00    +0.111 A 
ENDBRANCH   4   3
ENDBRANCH  10   9
BRANCH  12  13
ATOM     13  N   UNL     1       0.702  48.040  52.040  0.00  0.00    -0.281 N 
ATOM     14  C   UNL     1       1.123  48.878  53.060  0.00  0.00    +0.248 C 
ATOM     30  O   UNL     1       2.040  49.680  52.961  0.00  0.00    -0.270 OA
ATOM     31  H   UNL     1       0.065  47.291  52.310  0.00  0.00    +0.155 HD
BRANCH  14  15
ATOM     15  C   UNL     1       0.435  48.805  54.385  0.00  0.00    +0.037 A 
ATOM     16  C   UNL     1       1.171  49.011  55.635  0.00  0.00    +0.013 A 
ATOM     17  C   UNL     1       0.486  48.918  56.901  0.00  0.00    +0.005 A 
ATOM     18  C   UNL     1      -0.944  48.620  56.921  0.00  0.00    -0.033 A 
ATOM     28  C   UNL     1      -1.650  48.426  55.665  0.00  0.00    +0.005 A 
ATOM     29  C   UNL     1      -0.982  48.515  54.424  0.00  0.00    +0.013 A 
BRANCH  18  19
ATOM     19  C   UNL     1      -1.751  48.481  58.226  0.00  0.00    +0.119 C 
BRANCH  19  20
ATOM     20  N   UNL     1      -2.066  49.736  58.971  0.00  0.00    -0.302 NA
ATOM     21  C   UNL     1      -1.666  49.645  60.446  0.00  0.00    +0.066 C 
ATOM     22  C   UNL     1      -1.982  50.974  61.205  0.00  0.00    -0.064 C 
ATOM     23  N   UNL     1      -3.472  51.294  61.068  0.00  0.00    +0.379 N 
ATOM     24  C   UNL     1      -3.784  52.513  61.829  0.00  0.00    -0.096 C 
ATOM     25  H   UNL     1      -4.042  50.453  61.526  0.00  0.00    -0.082 HD
ATOM     26  C   UNL     1      -3.879  51.384  59.604  0.00  0.00    -0.064 C 
ATOM     27  C   UNL     1      -3.533  50.069  58.852  0.00  0.00    +0.066 C 
ENDBRANCH  19  20
ENDBRANCH  18  19
ENDBRANCH  14  15
ENDBRANCH  12  13
TORSDOF 6
ENDMDL
MODEL 5
REMARK VINA RESULT:      -6.3      8.405     13.990
REMARK  Name = C:\Users\Docking\Desktop\test protocol\1iep_ligandH.pdb
REMARK  8 active torsions:
REMARK  status: ('A' for Active; 'I' for Inactive)
REMARK    1  A    between atoms: _5  and  _11
REMARK    2  A    between atoms: _19  and  _21
REMARK    3  A    between atoms: _22  and  _66
REMARK    4  A    between atoms: _27  and  _30
REMARK    5  A    between atoms: _32  and  _33
REMARK    6  A    between atoms: _38  and  _43
REMARK    7  A    between atoms: _43  and  _46
REMARK    8  A    between atoms: _53  and  _55
REMARK                            x       y       z     vdW  Elec       q    Type
REMARK                         _______ _______ _______ _____ _____    ______ ____
ROOT
ATOM     10  C   UNL     1       5.154  48.623  39.956  0.00  0.00    +0.038 A 
ATOM     11  C   UNL     1       4.441  47.724  39.122  0.00  0.00    +0.047 A 
ATOM     12  C   UNL     1       3.238  48.143  38.419  0.00  0.00    +0.035 A 
ATOM     32  C   UNL     1       2.791  49.486  38.586  0.00  0.00    +0.024 A 
ATOM     33  C   UNL     1       3.503  50.413  39.430  0.00  0.00    +0.007 A 
ATOM     34  C   UNL     1       4.689  50.005  40.128  0.00  0.00    -0.029 A 
ATOM     35  C   UNL     1       5.408  51.039  41.025  0.00  0.00    +0.045 C 
ENDROOT
BRANCH  10   9
ATOM      4  C   UNL     1       7.358  46.417  43.604  0.00  0.00    +0.077 A 
ATOM      5  C   UNL     1       6.118  46.173  44.283  0.00  0.00    +0.048 A 
ATOM      6  C   UNL     1       4.937  46.638  43.663  0.00  0.00    +0.116 A 
ATOM      7  N   UNL     1       5.002  47.296  42.454  0.00  0.00    -0.223 NA
ATOM      8  C   UNL     1       6.215  47.516  41.827  0.00  0.00    +0.220 A 
ATOM      9  N   UNL     1       6.303  48.169  40.607  0.00  0.00    -0.283 N 
ATOM     36  H   UNL     1       7.217  48.318  40.180  0.00  0.00    +0.155 HD
ATOM     37  N   UNL     1       7.357  47.083  42.399  0.00  0.00    -0.214 NA
BRANCH   4   3
ATOM      1  C   UNL     1      10.213  44.329  45.275  0.00  0.00    +0.020 A 
ATOM      2  C   UNL     1       8.905  44.700  44.785  0.00  0.00    +0.013 A 
ATOM      3  C   UNL     1       8.692  45.984  44.130  0.00  0.00    +0.019 A 
ATOM     38  C   UNL     1       9.831  46.877  43.983  0.00  0.00    +0.120 A 
ATOM     39  N   UNL     1      11.079  46.494  44.466  0.00  0.00    -0.263 NA
ATOM     40  C   UNL     1      11.296  45.261  45.100  0.00  0.00    +0.111 A 
ENDBRANCH   4   3
ENDBRANCH  10   9
BRANCH  12  13
ATOM     13  N   UNL     1       2.469  47.272  37.566  0.00  0.00    -0.281 N 
ATOM     14  C   UNL     1       2.780  46.839  36.287  0.00  0.00    +0.248 C 
ATOM     30  O   UNL     1       3.673  47.309  35.597  0.00  0.00    -0.270 OA
ATOM     31  H   UNL     1       1.587  46.933  37.951  0.00  0.00    +0.155 HD
BRANCH  14  15
ATOM     15  C   UNL     1       1.976  45.734  35.683  0.00  0.00    +0.037 A 
ATOM     16  C   UNL     1       2.282  44.329  35.963  0.00  0.00    +0.013 A 
ATOM     17  C   UNL     1       1.501  43.283  35.354  0.00  0.00    +0.005 A 
ATOM     18  C   UNL     1       0.403  43.638  34.457  0.00  0.00    -0.033 A 
ATOM     28  C   UNL     1       0.118  45.040  34.200  0.00  0.00    +0.005 A 
ATOM     29  C   UNL     1       0.882  46.068  34.795  0.00  0.00    +0.013 A 
BRANCH  18  19
ATOM     19  C   UNL     1      -0.470  42.587  33.746  0.00  0.00    +0.119 C 
BRANCH  19  20
ATOM     20  N   UNL     1       0.155  41.825  32.624  0.00  0.00    -0.302 NA
ATOM     21  C   UNL     1       0.917  40.593  33.120  0.00  0.00    +0.066 C 
ATOM     22  C   UNL     1       1.546  39.795  31.932  0.00  0.00    -0.064 C 
ATOM     23  N   UNL     1       2.469  40.718  31.133  0.00  0.00    +0.379 N 
ATOM     24  C   UNL     1       3.106  39.956  30.050  0.00  0.00    -0.096 C 
ATOM     25  H   UNL     1       3.274  41.067  31.821  0.00  0.00    -0.082 HD
ATOM     26  C   UNL     1       1.720  41.947  30.639  0.00  0.00    -0.064 C 
ATOM     27  C   UNL     1       1.074  42.716  31.825  0.00  0.00    +0.066 C 
ENDBRANCH  19  20
ENDBRANCH  18  19
ENDBRANCH  14  15
ENDBRANCH  12  13
TORSDOF 6
ENDMDL
