MODEL 1
REMARK VINA RESULT:     -10.2      0.000      0.000
REMARK  Name = C:\Users\Docking\Desktop\test protocol\1iep_ligandH.pdb
REMARK  8 active torsions:
REMARK  status: ('A' for Active; 'I' for Inactive)
REMARK    1  A    between atoms: _5  and  _11
REMARK    2  A    between atoms: _19  and  _21
REMARK    3  A    between atoms: _22  and  _66
REMARK    4  A    between atoms: _27  and  _30
REMARK    5  A    between atoms: _32  and  _33
REMARK    6  A    between atoms: _38  and  _43
REMARK    7  A    between atoms: _43  and  _46
REMARK    8  A    between atoms: _53  and  _55
REMARK                            x       y       z     vdW  Elec       q    Type
REMARK                         _______ _______ _______ _____ _____    ______ ____
ROOT
ATOM     10  C   UNL     1      34.050  25.803  87.539  0.00  0.00    +0.038 A 
ATOM     11  C   UNL     1      34.147  24.428  87.205  0.00  0.00    +0.047 A 
ATOM     12  C   UNL     1      34.725  24.000  85.940  0.00  0.00    +0.035 A 
ATOM     32  C   UNL     1      35.197  25.000  85.041  0.00  0.00    +0.024 A 
ATOM     33  C   UNL     1      35.105  26.402  85.364  0.00  0.00    +0.007 A 
ATOM     34  C   UNL     1      34.533  26.830  86.609  0.00  0.00    -0.029 A 
ATOM     35  C   UNL     1      34.454  28.347  86.900  0.00  0.00    +0.045 C 
ENDROOT
BRANCH  10   9
ATOM      4  C   UNL     1      34.154  26.047  92.332  0.00  0.00    +0.077 A 
ATOM      5  C   UNL     1      35.427  25.388  92.397  0.00  0.00    +0.048 A 
ATOM      6  C   UNL     1      36.018  24.997  91.174  0.00  0.00    +0.116 A 
ATOM      7  N   UNL     1      35.375  25.250  89.982  0.00  0.00    -0.223 NA
ATOM      8  C   UNL     1      34.147  25.885  89.955  0.00  0.00    +0.220 A 
ATOM      9  N   UNL     1      33.486  26.157  88.767  0.00  0.00    -0.283 N 
ATOM     36  H   UNL     1      32.578  26.621  88.790  0.00  0.00    +0.155 HD
ATOM     37  N   UNL     1      33.561  26.268  91.109  0.00  0.00    -0.214 NA
BRANCH   4   3
ATOM      1  C   UNL     1      33.181  27.929  95.619  0.00  0.00    +0.020 A 
ATOM      2  C   UNL     1      33.946  27.502  94.471  0.00  0.00    +0.013 A 
ATOM      3  C   UNL     1      33.404  26.523  93.537  0.00  0.00    +0.019 A 
ATOM     38  C   UNL     1      32.074  25.994  93.795  0.00  0.00    +0.120 A 
ATOM     39  N   UNL     1      31.360  26.423  94.909  0.00  0.00    -0.263 NA
ATOM     40  C   UNL     1      31.873  27.363  95.816  0.00  0.00    +0.111 A 
ENDBRANCH   4   3
ENDBRANCH  10   9
BRANCH  12  13
ATOM     13  N   UNL     1      34.843  22.619  85.543  0.00  0.00    -0.281 N 
ATOM     14  C   UNL     1      35.571  21.614  86.159  0.00  0.00    +0.248 C 
ATOM     30  O   UNL     1      36.407  21.802  87.031  0.00  0.00    -0.270 OA
ATOM     31  H   UNL     1      34.327  22.349  84.705  0.00  0.00    +0.155 HD
BRANCH  14  15
ATOM     15  C   UNL     1      35.348  20.198  85.737  0.00  0.00    +0.037 A 
ATOM     16  C   UNL     1      35.473  19.795  84.334  0.00  0.00    +0.013 A 
ATOM     17  C   UNL     1      35.236  18.425  83.952  0.00  0.00    +0.005 A 
ATOM     18  C   UNL     1      34.873  17.448  84.975  0.00  0.00    -0.033 A 
ATOM     28  C   UNL     1      34.761  17.875  86.360  0.00  0.00    +0.005 A 
ATOM     29  C   UNL     1      34.991  19.216  86.739  0.00  0.00    +0.013 A 
BRANCH  18  19
ATOM     19  C   UNL     1      34.581  15.970  84.655  0.00  0.00    +0.119 C 
BRANCH  19  20
ATOM     20  N   UNL     1      33.490  15.306  85.427  0.00  0.00    -0.302 NA
ATOM     21  C   UNL     1      33.961  14.007  86.087  0.00  0.00    +0.066 C 
ATOM     22  C   UNL     1      32.813  13.336  86.909  0.00  0.00    -0.064 C 
ATOM     23  N   UNL     1      31.618  13.075  85.991  0.00  0.00    +0.379 N 
ATOM     24  C   UNL     1      30.558  12.392  86.748  0.00  0.00    -0.096 C 
ATOM     25  H   UNL     1      31.956  12.384  85.184  0.00  0.00    -0.082 HD
ATOM     26  C   UNL     1      31.144  14.361  85.330  0.00  0.00    -0.064 C 
ATOM     27  C   UNL     1      32.300  15.034  84.539  0.00  0.00    +0.066 C 
ENDBRANCH  19  20
ENDBRANCH  18  19
ENDBRANCH  14  15
ENDBRANCH  12  13
TORSDOF 6
ENDMDL
MODEL 2
REMARK VINA RESULT:     -10.1      2.113     11.709
REMARK  Name = C:\Users\Docking\Desktop\test protocol\1iep_ligandH.pdb
REMARK  8 active torsions:
REMARK  status: ('A' for Active; 'I' for Inactive)
REMARK    1  A    between atoms: _5  and  _11
REMARK    2  A    between atoms: _19  and  _21
REMARK    3  A    between atoms: _22  and  _66
REMARK    4  A    between atoms: _27  and  _30
REMARK    5  A    between atoms: _32  and  _33
REMARK    6  A    between atoms: _38  and  _43
REMARK    7  A    between atoms: _43  and  _46
REMARK    8  A    between atoms: _53  and  _55
REMARK                            x       y       z     vdW  Elec       q    Type
REMARK                         _______ _______ _______ _____ _____    ______ ____
ROOT
ATOM     10  C   UNL     1      35.148  22.130  86.037  0.00  0.00    +0.038 A 
ATOM     11  C   UNL     1      34.879  22.708  87.303  0.00  0.00    +0.047 A 
ATOM     12  C   UNL     1      35.296  24.067  87.614  0.00  0.00    +0.035 A 
ATOM     32  C   UNL     1      35.982  24.810  86.609  0.00  0.00    +0.024 A 
ATOM     33  C   UNL     1      36.264  24.237  85.316  0.00  0.00    +0.007 A 
ATOM     34  C   UNL     1      35.858  22.896  85.005  0.00  0.00    -0.029 A 
ATOM     35  C   UNL     1      36.193  22.330  83.606  0.00  0.00    +0.045 C 
ENDROOT
BRANCH  10   9
ATOM      4  C   UNL     1      34.894  17.479  87.196  0.00  0.00    +0.077 A 
ATOM      5  C   UNL     1      35.692  17.668  88.372  0.00  0.00    +0.048 A 
ATOM      6  C   UNL     1      36.155  18.976  88.640  0.00  0.00    +0.116 A 
ATOM      7  N   UNL     1      35.836  20.010  87.787  0.00  0.00    -0.223 NA
ATOM      8  C   UNL     1      35.065  19.794  86.660  0.00  0.00    +0.220 A 
ATOM      9  N   UNL     1      34.726  20.821  85.793  0.00  0.00    -0.283 N 
ATOM     36  H   UNL     1      34.161  20.619  84.968  0.00  0.00    +0.155 HD
ATOM     37  N   UNL     1      34.613  18.554  86.382  0.00  0.00    -0.214 NA
BRANCH   4   3
ATOM      1  C   UNL     1      33.657  13.768  87.238  0.00  0.00    +0.020 A 
ATOM      2  C   UNL     1      34.211  15.024  87.690  0.00  0.00    +0.013 A 
ATOM      3  C   UNL     1      34.328  16.156  86.780  0.00  0.00    +0.019 A 
ATOM     38  C   UNL     1      33.872  15.984  85.409  0.00  0.00    +0.120 A 
ATOM     39  N   UNL     1      33.345  14.763  85.002  0.00  0.00    -0.263 NA
ATOM     40  C   UNL     1      33.228  13.666  85.868  0.00  0.00    +0.111 A 
ENDBRANCH   4   3
ENDBRANCH  10   9
BRANCH  12  13
ATOM     13  N   UNL     1      35.058  24.705  88.885  0.00  0.00    -0.281 N 
ATOM     14  C   UNL     1      34.057  25.605  89.212  0.00  0.00    +0.248 C 
ATOM     30  O   UNL     1      33.338  26.166  88.397  0.00  0.00    -0.270 OA
ATOM     31  H   UNL     1      35.705  24.463  89.635  0.00  0.00    +0.155 HD
BRANCH  14  15
ATOM     15  C   UNL     1      33.831  25.943  90.650  0.00  0.00    +0.037 A 
ATOM     16  C   UNL     1      34.908  25.823  91.637  0.00  0.00    +0.013 A 
ATOM     17  C   UNL     1      34.659  26.139  93.021  0.00  0.00    +0.005 A 
ATOM     18  C   UNL     1      33.326  26.580  93.426  0.00  0.00    -0.033 A 
ATOM     28  C   UNL     1      32.278  26.695  92.426  0.00  0.00    +0.005 A 
ATOM     29  C   UNL     1      32.518  26.386  91.068  0.00  0.00    +0.013 A 
BRANCH  18  19
ATOM     19  C   UNL     1      32.965  26.918  94.885  0.00  0.00    +0.119 C 
BRANCH  19  20
ATOM     20  N   UNL     1      31.615  27.507  95.136  0.00  0.00    -0.302 NA
ATOM     21  C   UNL     1      31.666  29.034  95.243  0.00  0.00    +0.066 C 
ATOM     22  C   UNL     1      30.243  29.635  95.484  0.00  0.00    -0.064 C 
ATOM     23  N   UNL     1      29.641  29.022  96.750  0.00  0.00    +0.379 N 
ATOM     24  C   UNL     1      28.327  29.628  97.011  0.00  0.00    -0.096 C 
ATOM     25  H   UNL     1      30.309  29.284  97.603  0.00  0.00    -0.082 HD
ATOM     26  C   UNL     1      29.589  27.504  96.652  0.00  0.00    -0.064 C 
ATOM     27  C   UNL     1      31.004  26.919  96.384  0.00  0.00    +0.066 C 
ENDBRANCH  19  20
ENDBRANCH  18  19
ENDBRANCH  14  15
ENDBRANCH  12  13
TORSDOF 6
ENDMDL
MODEL 3
REMARK VINA RESULT:     -10.0      4.123      6.441
REMARK  Name = C:\Users\Docking\Desktop\test protocol\1iep_ligandH.pdb
REMARK  8 active torsions:
REMARK  status: ('A' for Active; 'I' for Inactive)
REMARK    1  A    between atoms: _5  and  _11
REMARK    2  A    between atoms: _19  and  _21
REMARK    3  A    between atoms: _22  and  _66
REMARK    4  A    between atoms: _27  and  _30
REMARK    5  A    between atoms: _32  and  _33
REMARK    6  A    between atoms: _38  and  _43
REMARK    7  A    between atoms: _43  and  _46
REMARK    8  A    between atoms: _53  and  _55
REMARK                            x       y       z     vdW  Elec       q    Type
REMARK                         _______ _______ _______ _____ _____    ______ ____
ROOT
ATOM     10  C   UNL     1      34.890  28.271  89.424  0.00  0.00    +0.038 A 
ATOM     11  C   UNL     1      35.101  27.344  88.371  0.00  0.00    +0.047 A 
ATOM     12  C   UNL     1      34.393  26.074  88.334  0.00  0.00    +0.035 A 
ATOM     32  C   UNL     1      33.474  25.781  89.383  0.00  0.00    +0.024 A 
ATOM     33  C   UNL     1      33.248  26.711  90.462  0.00  0.00    +0.007 A 
ATOM     34  C   UNL     1      33.945  27.964  90.505  0.00  0.00    -0.029 A 
ATOM     35  C   UNL     1      33.668  28.921  91.689  0.00  0.00    +0.045 C 
ENDROOT
BRANCH  10   9
ATOM      4  C   UNL     1      35.362  32.887  88.198  0.00  0.00    +0.077 A 
ATOM      5  C   UNL     1      34.107  32.892  87.503  0.00  0.00    +0.048 A 
ATOM      6  C   UNL     1      33.374  31.685  87.479  0.00  0.00    +0.116 A 
ATOM      7  N   UNL     1      33.869  30.562  88.106  0.00  0.00    -0.223 NA
ATOM      8  C   UNL     1      35.083  30.590  88.766  0.00  0.00    +0.220 A 
ATOM      9  N   UNL     1      35.596  29.475  89.410  0.00  0.00    -0.283 N 
ATOM     36  H   UNL     1      36.500  29.535  89.880  0.00  0.00    +0.155 HD
ATOM     37  N   UNL     1      35.803  31.731  88.802  0.00  0.00    -0.214 NA
BRANCH   4   3
ATOM      1  C   UNL     1      36.657  36.576  88.317  0.00  0.00    +0.020 A 
ATOM      2  C   UNL     1      35.757  35.453  88.196  0.00  0.00    +0.013 A 
ATOM      3  C   UNL     1      36.250  34.086  88.315  0.00  0.00    +0.019 A 
ATOM     38  C   UNL     1      37.671  33.890  88.560  0.00  0.00    +0.120 A 
ATOM     39  N   UNL     1      38.515  34.991  88.671  0.00  0.00    -0.263 NA
ATOM     40  C   UNL     1      38.051  36.310  88.556  0.00  0.00    +0.111 A 
ENDBRANCH   4   3
ENDBRANCH  10   9
BRANCH  12  13
ATOM     13  N   UNL     1      34.573  25.090  87.295  0.00  0.00    -0.281 N 
ATOM     14  C   UNL     1      35.654  24.246  87.099  0.00  0.00    +0.248 C 
ATOM     30  O   UNL     1      36.731  24.360  87.665  0.00  0.00    -0.270 OA
ATOM     31  H   UNL     1      33.810  25.005  86.623  0.00  0.00    +0.155 HD
BRANCH  14  15
ATOM     15  C   UNL     1      35.525  23.124  86.121  0.00  0.00    +0.037 A 
ATOM     16  C   UNL     1      36.403  23.031  84.951  0.00  0.00    +0.013 A 
ATOM     17  C   UNL     1      36.246  21.946  84.014  0.00  0.00    +0.005 A 
ATOM     18  C   UNL     1      35.208  20.945  84.244  0.00  0.00    -0.033 A 
ATOM     28  C   UNL     1      34.355  21.058  85.416  0.00  0.00    +0.005 A 
ATOM     29  C   UNL     1      34.505  22.120  86.336  0.00  0.00    +0.013 A 
BRANCH  18  19
ATOM     19  C   UNL     1      34.956  19.766  83.286  0.00  0.00    +0.119 C 
BRANCH  19  20
ATOM     20  N   UNL     1      35.526  18.440  83.668  0.00  0.00    -0.302 NA
ATOM     21  C   UNL     1      35.834  17.573  82.445  0.00  0.00    +0.066 C 
ATOM     22  C   UNL     1      36.451  16.198  82.862  0.00  0.00    -0.064 C 
ATOM     23  N   UNL     1      35.490  15.477  83.808  0.00  0.00    +0.379 N 
ATOM     24  C   UNL     1      36.041  14.159  84.156  0.00  0.00    -0.096 C 
ATOM     25  H   UNL     1      34.535  15.310  83.257  0.00  0.00    -0.082 HD
ATOM     26  C   UNL     1      35.176  16.333  85.027  0.00  0.00    -0.064 C 
ATOM     27  C   UNL     1      34.591  17.709  84.600  0.00  0.00    +0.066 C 
ENDBRANCH  19  20
ENDBRANCH  18  19
ENDBRANCH  14  15
ENDBRANCH  12  13
TORSDOF 6
ENDMDL
MODEL 4
REMARK VINA RESULT:      -9.9      4.237     13.281
REMARK  Name = C:\Users\Docking\Desktop\test protocol\1iep_ligandH.pdb
REMARK  8 active torsions:
REMARK  status: ('A' for Active; 'I' for Inactive)
REMARK    1  A    between atoms: _5  and  _11
REMARK    2  A    between atoms: _19  and  _21
REMARK    3  A    between atoms: _22  and  _66
REMARK    4  A    between atoms: _27  and  _30
REMARK    5  A    between atoms: _32  and  _33
REMARK    6  A    between atoms: _38  and  _43
REMARK    7  A    between atoms: _43  and  _46
REMARK    8  A    between atoms: _53  and  _55
REMARK                            x       y       z     vdW  Elec       q    Type
REMARK                         _______ _______ _______ _____ _____    ______ ____
ROOT
ATOM     10  C   UNL     1      37.170  21.583  88.432  0.00  0.00    +0.038 A 
ATOM     11  C   UNL     1      36.985  22.968  88.192  0.00  0.00    +0.047 A 
ATOM     12  C   UNL     1      37.013  23.931  89.282  0.00  0.00    +0.035 A 
ATOM     32  C   UNL     1      37.235  23.448  90.604  0.00  0.00    +0.024 A 
ATOM     33  C   UNL     1      37.424  22.043  90.867  0.00  0.00    +0.007 A 
ATOM     34  C   UNL     1      37.395  21.088  89.796  0.00  0.00    -0.029 A 
ATOM     35  C   UNL     1      37.597  19.594  90.136  0.00  0.00    +0.045 C 
ENDROOT
BRANCH  10   9
ATOM      4  C   UNL     1      34.858  19.360  84.861  0.00  0.00    +0.077 A 
ATOM      5  C   UNL     1      33.612  19.985  85.200  0.00  0.00    +0.048 A 
ATOM      6  C   UNL     1      33.607  20.866  86.304  0.00  0.00    +0.116 A 
ATOM      7  N   UNL     1      34.768  21.098  87.010  0.00  0.00    -0.223 NA
ATOM      8  C   UNL     1      35.952  20.478  86.658  0.00  0.00    +0.220 A 
ATOM      9  N   UNL     1      37.133  20.702  87.348  0.00  0.00    -0.283 N 
ATOM     36  H   UNL     1      37.985  20.220  87.062  0.00  0.00    +0.155 HD
ATOM     37  N   UNL     1      35.983  19.631  85.608  0.00  0.00    -0.214 NA
BRANCH   4   3
ATOM      1  C   UNL     1      35.135  17.863  81.258  0.00  0.00    +0.020 A 
ATOM      2  C   UNL     1      34.968  18.824  82.324  0.00  0.00    +0.013 A 
ATOM      3  C   UNL     1      35.025  18.406  83.719  0.00  0.00    +0.019 A 
ATOM     38  C   UNL     1      35.256  16.998  84.004  0.00  0.00    +0.120 A 
ATOM     39  N   UNL     1      35.412  16.096  82.957  0.00  0.00    -0.263 NA
ATOM     40  C   UNL     1      35.357  16.486  81.610  0.00  0.00    +0.111 A 
ENDBRANCH   4   3
ENDBRANCH  10   9
BRANCH  12  13
ATOM     13  N   UNL     1      36.824  25.349  89.100  0.00  0.00    -0.281 N 
ATOM     14  C   UNL     1      35.688  26.007  88.658  0.00  0.00    +0.248 C 
ATOM     30  O   UNL     1      34.725  25.455  88.146  0.00  0.00    -0.270 OA
ATOM     31  H   UNL     1      37.625  25.940  89.324  0.00  0.00    +0.155 HD
BRANCH  14  15
ATOM     15  C   UNL     1      35.616  27.494  88.791  0.00  0.00    +0.037 A 
ATOM     16  C   UNL     1      36.248  28.187  89.916  0.00  0.00    +0.013 A 
ATOM     17  C   UNL     1      36.149  29.621  90.029  0.00  0.00    +0.005 A 
ATOM     18  C   UNL     1      35.416  30.371  89.012  0.00  0.00    -0.033 A 
ATOM     28  C   UNL     1      34.803  29.658  87.904  0.00  0.00    +0.005 A 
ATOM     29  C   UNL     1      34.897  28.253  87.790  0.00  0.00    +0.013 A 
BRANCH  18  19
ATOM     19  C   UNL     1      35.242  31.900  89.064  0.00  0.00    +0.119 C 
BRANCH  19  20
ATOM     20  N   UNL     1      36.312  32.688  89.746  0.00  0.00    -0.302 NA
ATOM     21  C   UNL     1      35.777  33.998  90.332  0.00  0.00    +0.066 C 
ATOM     22  C   UNL     1      36.905  34.798  91.061  0.00  0.00    -0.064 C 
ATOM     23  N   UNL     1      38.049  35.069  90.081  0.00  0.00    +0.379 N 
ATOM     24  C   UNL     1      39.085  35.871  90.748  0.00  0.00    -0.096 C 
ATOM     25  H   UNL     1      37.638  35.677  89.242  0.00  0.00    -0.082 HD
ATOM     26  C   UNL     1      38.585  33.772  89.493  0.00  0.00    -0.064 C 
ATOM     27  C   UNL     1      37.450  32.970  88.796  0.00  0.00    +0.066 C 
ENDBRANCH  19  20
ENDBRANCH  18  19
ENDBRANCH  14  15
ENDBRANCH  12  13
TORSDOF 6
ENDMDL
MODEL 5
REMARK VINA RESULT:      -9.9      2.031      2.984
REMARK  Name = C:\Users\Docking\Desktop\test protocol\1iep_ligandH.pdb
REMARK  8 active torsions:
REMARK  status: ('A' for Active; 'I' for Inactive)
REMARK    1  A    between atoms: _5  and  _11
REMARK    2  A    between atoms: _19  and  _21
REMARK    3  A    between atoms: _22  and  _66
REMARK    4  A    between atoms: _27  and  _30
REMARK    5  A    between atoms: _32  and  _33
REMARK    6  A    between atoms: _38  and  _43
REMARK    7  A    between atoms: _43  and  _46
REMARK    8  A    between atoms: _53  and  _55
REMARK                            x       y       z     vdW  Elec       q    Type
REMARK                         _______ _______ _______ _____ _____    ______ ____
ROOT
ATOM     10  C   UNL     1      33.763  26.711  89.860  0.00  0.00    +0.038 A 
ATOM     11  C   UNL     1      33.620  25.448  89.231  0.00  0.00    +0.047 A 
ATOM     12  C   UNL     1      34.684  24.894  88.407  0.00  0.00    +0.035 A 
ATOM     32  C   UNL     1      35.880  25.652  88.248  0.00  0.00    +0.024 A 
ATOM     33  C   UNL     1      36.041  26.938  88.880  0.00  0.00    +0.007 A 
ATOM     34  C   UNL     1      34.995  27.491  89.691  0.00  0.00    -0.029 A 
ATOM     35  C   UNL     1      35.220  28.877  90.339  0.00  0.00    +0.045 C 
ENDROOT
BRANCH  10   9
ATOM      4  C   UNL     1      31.507  27.250  94.062  0.00  0.00    +0.077 A 
ATOM      5  C   UNL     1      32.496  26.478  94.759  0.00  0.00    +0.048 A 
ATOM      6  C   UNL     1      33.565  25.955  93.998  0.00  0.00    +0.116 A 
ATOM      7  N   UNL     1      33.631  26.191  92.642  0.00  0.00    -0.223 NA
ATOM      8  C   UNL     1      32.660  26.938  92.001  0.00  0.00    +0.220 A 
ATOM      9  N   UNL     1      32.710  27.195  90.640  0.00  0.00    -0.283 N 
ATOM     36  H   UNL     1      31.970  27.745  90.203  0.00  0.00    +0.155 HD
ATOM     37  N   UNL     1      31.628  27.448  92.705  0.00  0.00    -0.214 NA
BRANCH   4   3
ATOM      1  C   UNL     1      28.678  28.081  96.633  0.00  0.00    +0.020 A 
ATOM      2  C   UNL     1      29.829  27.446  96.033  0.00  0.00    +0.013 A 
ATOM      3  C   UNL     1      30.319  27.872  94.728  0.00  0.00    +0.019 A 
ATOM     38  C   UNL     1      29.617  28.952  94.052  0.00  0.00    +0.120 A 
ATOM     39  N   UNL     1      28.510  29.544  94.653  0.00  0.00    -0.263 NA
ATOM     40  C   UNL     1      28.029  29.141  95.907  0.00  0.00    +0.111 A 
ENDBRANCH   4   3
ENDBRANCH  10   9
BRANCH  12  13
ATOM     13  N   UNL     1      34.593  23.620  87.737  0.00  0.00    -0.281 N 
ATOM     14  C   UNL     1      34.654  23.368  86.376  0.00  0.00    +0.248 C 
ATOM     30  O   UNL     1      34.582  24.227  85.510  0.00  0.00    -0.270 OA
ATOM     31  H   UNL     1      34.469  22.806  88.339  0.00  0.00    +0.155 HD
BRANCH  14  15
ATOM     15  C   UNL     1      34.802  21.956  85.910  0.00  0.00    +0.037 A 
ATOM     16  C   UNL     1      36.012  21.508  85.214  0.00  0.00    +0.013 A 
ATOM     17  C   UNL     1      36.122  20.145  84.759  0.00  0.00    +0.005 A 
ATOM     18  C   UNL     1      35.019  19.218  85.001  0.00  0.00    -0.033 A 
ATOM     28  C   UNL     1      33.833  19.687  85.698  0.00  0.00    +0.005 A 
ATOM     29  C   UNL     1      33.721  21.023  86.145  0.00  0.00    +0.013 A 
BRANCH  18  19
ATOM     19  C   UNL     1      35.041  17.751  84.533  0.00  0.00    +0.119 C 
BRANCH  19  20
ATOM     20  N   UNL     1      34.272  16.762  85.345  0.00  0.00    -0.302 NA
ATOM     21  C   UNL     1      35.035  16.333  86.601  0.00  0.00    +0.066 C 
ATOM     22  C   UNL     1      34.206  15.315  87.451  0.00  0.00    -0.064 C 
ATOM     23  N   UNL     1      33.856  14.101  86.589  0.00  0.00    +0.379 N 
ATOM     24  C   UNL     1      33.127  13.116  87.401  0.00  0.00    -0.096 C 
ATOM     25  H   UNL     1      34.813  13.630  86.264  0.00  0.00    -0.082 HD
ATOM     26  C   UNL     1      33.099  14.519  85.336  0.00  0.00    -0.064 C 
ATOM     27  C   UNL     1      33.919  15.553  84.514  0.00  0.00    +0.066 C 
ENDBRANCH  19  20
ENDBRANCH  18  19
ENDBRANCH  14  15
ENDBRANCH  12  13
TORSDOF 6
ENDMDL
