MODEL 1
REMARK VINA RESULT:      -8.4      0.000      0.000
REMARK  Name = C:\Users\Docking\Desktop\test protocol\1iep_ligandH.pdb
REMARK  8 active torsions:
REMARK  status: ('A' for Active; 'I' for Inactive)
REMARK    1  A    between atoms: _5  and  _11
REMARK    2  A    between atoms: _19  and  _21
REMARK    3  A    between atoms: _22  and  _66
REMARK    4  A    between atoms: _27  and  _30
REMARK    5  A    between atoms: _32  and  _33
REMARK    6  A    between atoms: _38  and  _43
REMARK    7  A    between atoms: _43  and  _46
REMARK    8  A    between atoms: _53  and  _55
REMARK                            x       y       z     vdW  Elec       q    Type
REMARK                         _______ _______ _______ _____ _____    ______ ____
ROOT
ATOM     10  C   UNL     1      29.149  -0.571  36.271  0.00  0.00    +0.038 A 
ATOM     11  C   UNL     1      28.870  -0.531  37.661  0.00  0.00    +0.047 A 
ATOM     12  C   UNL     1      28.826   0.731  38.383  0.00  0.00    +0.035 A 
ATOM     32  C   UNL     1      29.069   1.934  37.658  0.00  0.00    +0.024 A 
ATOM     33  C   UNL     1      29.355   1.911  36.245  0.00  0.00    +0.007 A 
ATOM     34  C   UNL     1      29.402   0.670  35.527  0.00  0.00    -0.029 A 
ATOM     35  C   UNL     1      29.720   0.705  34.014  0.00  0.00    +0.045 C 
ENDROOT
BRANCH  10   9
ATOM      4  C   UNL     1      27.053  -4.096  33.777  0.00  0.00    +0.077 A 
ATOM      5  C   UNL     1      25.785  -3.424  33.780  0.00  0.00    +0.048 A 
ATOM      6  C   UNL     1      25.713  -2.177  34.441  0.00  0.00    +0.116 A 
ATOM      7  N   UNL     1      26.831  -1.650  35.049  0.00  0.00    -0.223 NA
ATOM      8  C   UNL     1      28.038  -2.325  35.029  0.00  0.00    +0.220 A 
ATOM      9  N   UNL     1      29.178  -1.810  35.627  0.00  0.00    -0.283 N 
ATOM     36  H   UNL     1      30.048  -2.342  35.596  0.00  0.00    +0.155 HD
ATOM     37  N   UNL     1      28.133  -3.518  34.406  0.00  0.00    -0.214 NA
BRANCH   4   3
ATOM      1  C   UNL     1      26.512  -7.453  31.844  0.00  0.00    +0.020 A 
ATOM      2  C   UNL     1      26.231  -6.180  32.466  0.00  0.00    +0.013 A 
ATOM      3  C   UNL     1      27.289  -5.419  33.118  0.00  0.00    +0.019 A 
ATOM     38  C   UNL     1      28.632  -5.979  33.123  0.00  0.00    +0.120 A 
ATOM     39  N   UNL     1      28.873  -7.209  32.517  0.00  0.00    -0.263 NA
ATOM     40  C   UNL     1      27.862  -7.950  31.888  0.00  0.00    +0.111 A 
ENDBRANCH   4   3
ENDBRANCH  10   9
BRANCH  12  13
ATOM     13  N   UNL     1      28.556   0.833  39.796  0.00  0.00    -0.281 N 
ATOM     14  C   UNL     1      29.396   0.511  40.849  0.00  0.00    +0.248 C 
ATOM     30  O   UNL     1      30.437  -0.120  40.735  0.00  0.00    -0.270 OA
ATOM     31  H   UNL     1      27.633   1.186  40.050  0.00  0.00    +0.155 HD
BRANCH  14  15
ATOM     15  C   UNL     1      29.018   0.937  42.231  0.00  0.00    +0.037 A 
ATOM     16  C   UNL     1      27.646   1.334  42.555  0.00  0.00    +0.013 A 
ATOM     17  C   UNL     1      27.312   1.758  43.892  0.00  0.00    +0.005 A 
ATOM     18  C   UNL     1      28.354   1.785  44.915  0.00  0.00    -0.033 A 
ATOM     28  C   UNL     1      29.706   1.381  44.568  0.00  0.00    +0.005 A 
ATOM     29  C   UNL     1      30.037   0.966  43.258  0.00  0.00    +0.013 A 
BRANCH  18  19
ATOM     19  C   UNL     1      28.093   2.244  46.362  0.00  0.00    +0.119 C 
BRANCH  19  20
ATOM     20  N   UNL     1      29.025   3.259  46.937  0.00  0.00    -0.302 NA
ATOM     21  C   UNL     1      29.974   2.647  47.972  0.00  0.00    +0.066 C 
ATOM     22  C   UNL     1      30.957   3.718  48.546  0.00  0.00    -0.064 C 
ATOM     23  N   UNL     1      30.154   4.867  49.160  0.00  0.00    +0.379 N 
ATOM     24  C   UNL     1      31.075   5.847  49.752  0.00  0.00    -0.096 C 
ATOM     25  H   UNL     1      29.535   4.443  49.984  0.00  0.00    -0.082 HD
ATOM     26  C   UNL     1      29.207   5.479  48.138  0.00  0.00    -0.064 C 
ATOM     27  C   UNL     1      28.253   4.400  47.552  0.00  0.00    +0.066 C 
ENDBRANCH  19  20
ENDBRANCH  18  19
ENDBRANCH  14  15
ENDBRANCH  12  13
TORSDOF 6
ENDMDL
MODEL 2
REMARK VINA RESULT:      -8.3      1.518      2.226
REMARK  Name = C:\Users\Docking\Desktop\test protocol\1iep_ligandH.pdb
REMARK  8 active torsions:
REMARK  status: ('A' for Active; 'I' for Inactive)
REMARK    1  A    between atoms: _5  and  _11
REMARK    2  A    between atoms: _19  and  _21
REMARK    3  A    between atoms: _22  and  _66
REMARK    4  A    between atoms: _27  and  _30
REMARK    5  A    between atoms: _32  and  _33
REMARK    6  A    between atoms: _38  and  _43
REMARK    7  A    between atoms: _43  and  _46
REMARK    8  A    between atoms: _53  and  _55
REMARK                            x       y       z     vdW  Elec       q    Type
REMARK                         _______ _______ _______ _____ _____    ______ ____
ROOT
ATOM     10  C   UNL     1      29.276  -0.684  36.115  0.00  0.00    +0.038 A 
ATOM     11  C   UNL     1      29.083  -0.643  37.519  0.00  0.00    +0.047 A 
ATOM     12  C   UNL     1      29.048   0.621  38.238  0.00  0.00    +0.035 A 
ATOM     32  C   UNL     1      29.211   1.826  37.493  0.00  0.00    +0.024 A 
ATOM     33  C   UNL     1      29.409   1.802  36.065  0.00  0.00    +0.007 A 
ATOM     34  C   UNL     1      29.447   0.558  35.352  0.00  0.00    -0.029 A 
ATOM     35  C   UNL     1      29.668   0.593  33.822  0.00  0.00    +0.045 C 
ENDROOT
BRANCH  10   9
ATOM      4  C   UNL     1      27.153  -4.235  33.681  0.00  0.00    +0.077 A 
ATOM      5  C   UNL     1      25.881  -3.572  33.707  0.00  0.00    +0.048 A 
ATOM      6  C   UNL     1      25.814  -2.322  34.363  0.00  0.00    +0.116 A 
ATOM      7  N   UNL     1      26.941  -1.785  34.946  0.00  0.00    -0.223 NA
ATOM      8  C   UNL     1      28.152  -2.451  34.904  0.00  0.00    +0.220 A 
ATOM      9  N   UNL     1      29.300  -1.926  35.476  0.00  0.00    -0.283 N 
ATOM     36  H   UNL     1      30.173  -2.452  35.430  0.00  0.00    +0.155 HD
ATOM     37  N   UNL     1      28.242  -3.647  34.284  0.00  0.00    -0.214 NA
BRANCH   4   3
ATOM      1  C   UNL     1      28.737  -7.651  32.622  0.00  0.00    +0.020 A 
ATOM      2  C   UNL     1      28.562  -6.378  33.283  0.00  0.00    +0.013 A 
ATOM      3  C   UNL     1      27.385  -5.559  33.023  0.00  0.00    +0.019 A 
ATOM     38  C   UNL     1      26.395  -6.061  32.081  0.00  0.00    +0.120 A 
ATOM     39  N   UNL     1      26.592  -7.290  31.458  0.00  0.00    -0.263 NA
ATOM     40  C   UNL     1      27.722  -8.086  31.699  0.00  0.00    +0.111 A 
ENDBRANCH   4   3
ENDBRANCH  10   9
BRANCH  12  13
ATOM     13  N   UNL     1      28.864   0.724  39.664  0.00  0.00    -0.281 N 
ATOM     14  C   UNL     1      29.764   0.398  40.665  0.00  0.00    +0.248 C 
ATOM     30  O   UNL     1      30.794  -0.237  40.489  0.00  0.00    -0.270 OA
ATOM     31  H   UNL     1      27.960   1.081  39.973  0.00  0.00    +0.155 HD
BRANCH  14  15
ATOM     15  C   UNL     1      29.472   0.826  42.067  0.00  0.00    +0.037 A 
ATOM     16  C   UNL     1      28.096   1.017  42.532  0.00  0.00    +0.013 A 
ATOM     17  C   UNL     1      27.843   1.448  43.884  0.00  0.00    +0.005 A 
ATOM     18  C   UNL     1      28.970   1.688  44.782  0.00  0.00    -0.033 A 
ATOM     28  C   UNL     1      30.324   1.486  44.296  0.00  0.00    +0.005 A 
ATOM     29  C   UNL     1      30.577   1.066  42.971  0.00  0.00    +0.013 A 
BRANCH  18  19
ATOM     19  C   UNL     1      28.794   2.169  46.234  0.00  0.00    +0.119 C 
BRANCH  19  20
ATOM     20  N   UNL     1      27.410   2.514  46.678  0.00  0.00    -0.302 NA
ATOM     21  C   UNL     1      27.291   3.980  47.104  0.00  0.00    +0.066 C 
ATOM     22  C   UNL     1      25.832   4.328  47.544  0.00  0.00    -0.064 C 
ATOM     23  N   UNL     1      25.408   3.397  48.681  0.00  0.00    +0.379 N 
ATOM     24  C   UNL     1      24.058   3.761  49.136  0.00  0.00    -0.096 C 
ATOM     25  H   UNL     1      26.108   3.564  49.533  0.00  0.00    -0.082 HD
ATOM     26  C   UNL     1      25.526   1.938  48.267  0.00  0.00    -0.064 C 
ATOM     27  C   UNL     1      26.973   1.609  47.804  0.00  0.00    +0.066 C 
ENDBRANCH  19  20
ENDBRANCH  18  19
ENDBRANCH  14  15
ENDBRANCH  12  13
TORSDOF 6
ENDMDL
MODEL 3
REMARK VINA RESULT:      -8.0     67.358     71.050
REMARK  Name = C:\Users\Docking\Desktop\test protocol\1iep_ligandH.pdb
REMARK  8 active torsions:
REMARK  status: ('A' for Active; 'I' for Inactive)
REMARK    1  A    between atoms: _5  and  _11
REMARK    2  A    between atoms: _19  and  _21
REMARK    3  A    between atoms: _22  and  _66
REMARK    4  A    between atoms: _27  and  _30
REMARK    5  A    between atoms: _32  and  _33
REMARK    6  A    between atoms: _38  and  _43
REMARK    7  A    between atoms: _43  and  _46
REMARK    8  A    between atoms: _53  and  _55
REMARK                            x       y       z     vdW  Elec       q    Type
REMARK                         _______ _______ _______ _____ _____    ______ ____
ROOT
ATOM     10  C   UNL     1     -28.062   0.169   2.038  0.00  0.00    +0.038 A 
ATOM     11  C   UNL     1     -28.055   0.362   0.633  0.00  0.00    +0.047 A 
ATOM     12  C   UNL     1     -28.170   1.693   0.057  0.00  0.00    +0.035 A 
ATOM     32  C   UNL     1     -28.287   2.805   0.941  0.00  0.00    +0.024 A 
ATOM     33  C   UNL     1     -28.297   2.626   2.372  0.00  0.00    +0.007 A 
ATOM     34  C   UNL     1     -28.186   1.315   2.946  0.00  0.00    -0.029 A 
ATOM     35  C   UNL     1     -28.209   1.182   4.487  0.00  0.00    +0.045 C 
ENDROOT
BRANCH  10   9
ATOM      4  C   UNL     1     -29.961  -4.028   3.387  0.00  0.00    +0.077 A 
ATOM      5  C   UNL     1     -31.294  -3.585   3.099  0.00  0.00    +0.048 A 
ATOM      6  C   UNL     1     -31.449  -2.267   2.611  0.00  0.00    +0.116 A 
ATOM      7  N   UNL     1     -30.345  -1.463   2.430  0.00  0.00    -0.223 NA
ATOM      8  C   UNL     1     -29.073  -1.921   2.720  0.00  0.00    +0.220 A 
ATOM      9  N   UNL     1     -27.948  -1.131   2.537  0.00  0.00    -0.283 N 
ATOM     36  H   UNL     1     -27.028  -1.503   2.770  0.00  0.00    +0.155 HD
ATOM     37  N   UNL     1     -28.899  -3.174   3.188  0.00  0.00    -0.214 NA
BRANCH   4   3
ATOM      1  C   UNL     1     -29.945  -7.305   5.523  0.00  0.00    +0.020 A 
ATOM      2  C   UNL     1     -30.297  -5.981   5.064  0.00  0.00    +0.013 A 
ATOM      3  C   UNL     1     -29.635  -5.394   3.906  0.00  0.00    +0.019 A 
ATOM     38  C   UNL     1     -28.613  -6.179   3.229  0.00  0.00    +0.120 A 
ATOM     39  N   UNL     1     -28.294  -7.451   3.695  0.00  0.00    -0.263 NA
ATOM     40  C   UNL     1     -28.924  -8.026   4.809  0.00  0.00    +0.111 A 
ENDBRANCH   4   3
ENDBRANCH  10   9
BRANCH  12  13
ATOM     13  N   UNL     1     -28.177   1.951  -1.362  0.00  0.00    -0.281 N 
ATOM     14  C   UNL     1     -29.259   2.278  -2.162  0.00  0.00    +0.248 C 
ATOM     30  O   UNL     1     -30.427   2.190  -1.815  0.00  0.00    -0.270 OA
ATOM     31  H   UNL     1     -27.275   1.883  -1.833  0.00  0.00    +0.155 HD
BRANCH  14  15
ATOM     15  C   UNL     1     -29.007   2.760  -3.555  0.00  0.00    +0.037 A 
ATOM     16  C   UNL     1     -28.169   3.934  -3.813  0.00  0.00    +0.013 A 
ATOM     17  C   UNL     1     -27.957   4.388  -5.164  0.00  0.00    +0.005 A 
ATOM     18  C   UNL     1     -28.582   3.665  -6.269  0.00  0.00    -0.033 A 
ATOM     28  C   UNL     1     -29.404   2.501  -5.985  0.00  0.00    +0.005 A 
ATOM     29  C   UNL     1     -29.616   2.054  -4.662  0.00  0.00    +0.013 A 
BRANCH  18  19
ATOM     19  C   UNL     1     -28.427   4.091  -7.741  0.00  0.00    +0.119 C 
BRANCH  19  20
ATOM     20  N   UNL     1     -27.591   5.296  -8.020  0.00  0.00    -0.302 NA
ATOM     21  C   UNL     1     -28.324   6.313  -8.900  0.00  0.00    +0.066 C 
ATOM     22  C   UNL     1     -27.443   7.578  -9.164  0.00  0.00    -0.064 C 
ATOM     23  N   UNL     1     -26.124   7.151  -9.811  0.00  0.00    +0.379 N 
ATOM     24  C   UNL     1     -25.318   8.343 -10.113  0.00  0.00    -0.096 C 
ATOM     25  H   UNL     1     -26.368   6.654 -10.778  0.00  0.00    -0.082 HD
ATOM     26  C   UNL     1     -25.391   6.139  -8.943  0.00  0.00    -0.064 C 
ATOM     27  C   UNL     1     -26.285   4.899  -8.664  0.00  0.00    +0.066 C 
ENDBRANCH  19  20
ENDBRANCH  18  19
ENDBRANCH  14  15
ENDBRANCH  12  13
TORSDOF 6
ENDMDL
MODEL 4
REMARK VINA RESULT:      -8.0      4.789      6.946
REMARK  Name = C:\Users\Docking\Desktop\test protocol\1iep_ligandH.pdb
REMARK  8 active torsions:
REMARK  status: ('A' for Active; 'I' for Inactive)
REMARK    1  A    between atoms: _5  and  _11
REMARK    2  A    between atoms: _19  and  _21
REMARK    3  A    between atoms: _22  and  _66
REMARK    4  A    between atoms: _27  and  _30
REMARK    5  A    between atoms: _32  and  _33
REMARK    6  A    between atoms: _38  and  _43
REMARK    7  A    between atoms: _43  and  _46
REMARK    8  A    between atoms: _53  and  _55
REMARK                            x       y       z     vdW  Elec       q    Type
REMARK                         _______ _______ _______ _____ _____    ______ ____
ROOT
ATOM     10  C   UNL     1      29.907  -0.011  41.910  0.00  0.00    +0.038 A 
ATOM     11  C   UNL     1      28.757   0.361  42.652  0.00  0.00    +0.047 A 
ATOM     12  C   UNL     1      28.853   1.268  43.785  0.00  0.00    +0.035 A 
ATOM     32  C   UNL     1      30.137   1.779  44.134  0.00  0.00    +0.024 A 
ATOM     33  C   UNL     1      31.317   1.411  43.392  0.00  0.00    +0.007 A 
ATOM     34  C   UNL     1      31.229   0.515  42.275  0.00  0.00    -0.029 A 
ATOM     35  C   UNL     1      32.528   0.149  41.520  0.00  0.00    +0.045 C 
ENDROOT
BRANCH  10   9
ATOM      4  C   UNL     1      29.399  -0.897  37.221  0.00  0.00    +0.077 A 
ATOM      5  C   UNL     1      29.406   0.500  36.896  0.00  0.00    +0.048 A 
ATOM      6  C   UNL     1      29.535   1.414  37.965  0.00  0.00    +0.116 A 
ATOM      7  N   UNL     1      29.649   0.954  39.259  0.00  0.00    -0.223 NA
ATOM      8  C   UNL     1      29.637  -0.400  39.538  0.00  0.00    +0.220 A 
ATOM      9  N   UNL     1      29.757  -0.885  40.831  0.00  0.00    -0.283 N 
ATOM     36  H   UNL     1      29.737  -1.891  40.996  0.00  0.00    +0.155 HD
ATOM     37  N   UNL     1      29.513  -1.293  38.535  0.00  0.00    -0.214 NA
BRANCH   4   3
ATOM      1  C   UNL     1      28.103  -3.123  34.277  0.00  0.00    +0.020 A 
ATOM      2  C   UNL     1      28.177  -2.051  35.242  0.00  0.00    +0.013 A 
ATOM      3  C   UNL     1      29.273  -1.986  36.201  0.00  0.00    +0.019 A 
ATOM     38  C   UNL     1      30.286  -3.030  36.155  0.00  0.00    +0.120 A 
ATOM     39  N   UNL     1      30.187  -4.052  35.216  0.00  0.00    -0.263 NA
ATOM     40  C   UNL     1      29.136  -4.125  34.289  0.00  0.00    +0.111 A 
ENDBRANCH   4   3
ENDBRANCH  10   9
BRANCH  12  13
ATOM     13  N   UNL     1      27.721   1.675  44.580  0.00  0.00    -0.281 N 
ATOM     14  C   UNL     1      26.641   2.450  44.189  0.00  0.00    +0.248 C 
ATOM     30  O   UNL     1      26.590   3.091  43.151  0.00  0.00    -0.270 OA
ATOM     31  H   UNL     1      27.715   1.354  45.548  0.00  0.00    +0.155 HD
BRANCH  14  15
ATOM     15  C   UNL     1      25.451   2.535  45.090  0.00  0.00    +0.037 A 
ATOM     16  C   UNL     1      24.091   2.604  44.548  0.00  0.00    +0.013 A 
ATOM     17  C   UNL     1      22.962   2.704  45.438  0.00  0.00    +0.005 A 
ATOM     18  C   UNL     1      23.188   2.733  46.881  0.00  0.00    -0.033 A 
ATOM     28  C   UNL     1      24.547   2.657  47.392  0.00  0.00    +0.005 A 
ATOM     29  C   UNL     1      25.656   2.561  46.522  0.00  0.00    +0.013 A 
BRANCH  18  19
ATOM     19  C   UNL     1      22.044   2.858  47.905  0.00  0.00    +0.119 C 
BRANCH  19  20
ATOM     20  N   UNL     1      20.787   3.522  47.447  0.00  0.00    -0.302 NA
ATOM     21  C   UNL     1      20.767   5.014  47.793  0.00  0.00    +0.066 C 
ATOM     22  C   UNL     1      19.455   5.697  47.287  0.00  0.00    -0.064 C 
ATOM     23  N   UNL     1      18.245   4.984  47.894  0.00  0.00    +0.379 N 
ATOM     24  C   UNL     1      17.012   5.661  47.466  0.00  0.00    -0.096 C 
ATOM     25  H   UNL     1      18.317   5.080  49.002  0.00  0.00    -0.082 HD
ATOM     26  C   UNL     1      18.259   3.500  47.557  0.00  0.00    -0.064 C 
ATOM     27  C   UNL     1      19.580   2.836  48.038  0.00  0.00    +0.066 C 
ENDBRANCH  19  20
ENDBRANCH  18  19
ENDBRANCH  14  15
ENDBRANCH  12  13
TORSDOF 6
ENDMDL
MODEL 5
REMARK VINA RESULT:      -7.9     52.319     56.461
REMARK  Name = C:\Users\Docking\Desktop\test protocol\1iep_ligandH.pdb
REMARK  8 active torsions:
REMARK  status: ('A' for Active; 'I' for Inactive)
REMARK    1  A    between atoms: _5  and  _11
REMARK    2  A    between atoms: _19  and  _21
REMARK    3  A    between atoms: _22  and  _66
REMARK    4  A    between atoms: _27  and  _30
REMARK    5  A    between atoms: _32  and  _33
REMARK    6  A    between atoms: _38  and  _43
REMARK    7  A    between atoms: _43  and  _46
REMARK    8  A    between atoms: _53  and  _55
REMARK                            x       y       z     vdW  Elec       q    Type
REMARK                         _______ _______ _______ _____ _____    ______ ____
ROOT
ATOM     10  C   UNL     1      -9.513 -13.611   4.657  0.00  0.00    +0.038 A 
ATOM     11  C   UNL     1     -10.388 -14.694   4.929  0.00  0.00    +0.047 A 
ATOM     12  C   UNL     1      -9.924 -15.877   5.637  0.00  0.00    +0.035 A 
ATOM     32  C   UNL     1      -8.563 -15.923   6.056  0.00  0.00    +0.024 A 
ATOM     33  C   UNL     1      -7.659 -14.832   5.787  0.00  0.00    +0.007 A 
ATOM     34  C   UNL     1      -8.110 -13.664   5.087  0.00  0.00    -0.029 A 
ATOM     35  C   UNL     1      -7.096 -12.527   4.820  0.00  0.00    +0.045 C 
ENDROOT
BRANCH  10   9
ATOM      4  C   UNL     1     -10.619 -11.274   0.614  0.00  0.00    +0.077 A 
ATOM      5  C   UNL     1     -10.138 -12.347  -0.208  0.00  0.00    +0.048 A 
ATOM      6  C   UNL     1      -9.608 -13.480   0.449  0.00  0.00    +0.116 A 
ATOM      7  N   UNL     1      -9.566 -13.525   1.826  0.00  0.00    -0.223 NA
ATOM      8  C   UNL     1     -10.036 -12.472   2.589  0.00  0.00    +0.220 A 
ATOM      9  N   UNL     1     -10.012 -12.500   3.974  0.00  0.00    -0.283 N 
ATOM     36  H   UNL     1     -10.361 -11.700   4.501  0.00  0.00    +0.155 HD
ATOM     37  N   UNL     1     -10.547 -11.378   1.985  0.00  0.00    -0.214 NA
BRANCH   4   3
ATOM      1  C   UNL     1     -13.050  -8.716  -1.074  0.00  0.00    +0.020 A 
ATOM      2  C   UNL     1     -12.524  -9.961  -0.563  0.00  0.00    +0.013 A 
ATOM      3  C   UNL     1     -11.211 -10.012   0.068  0.00  0.00    +0.019 A 
ATOM     38  C   UNL     1     -10.451  -8.775   0.168  0.00  0.00    +0.120 A 
ATOM     39  N   UNL     1     -10.983  -7.591  -0.334  0.00  0.00    -0.263 NA
ATOM     40  C   UNL     1     -12.244  -7.531  -0.945  0.00  0.00    +0.111 A 
ENDBRANCH   4   3
ENDBRANCH  10   9
BRANCH  12  13
ATOM     13  N   UNL     1     -10.765 -17.010   5.934  0.00  0.00    -0.281 N 
ATOM     14  C   UNL     1     -11.136 -18.041   5.086  0.00  0.00    +0.248 C 
ATOM     30  O   UNL     1     -10.974 -18.032   3.875  0.00  0.00    -0.270 OA
ATOM     31  H   UNL     1     -11.131 -17.059   6.885  0.00  0.00    +0.155 HD
BRANCH  14  15
ATOM     15  C   UNL     1     -11.796 -19.250   5.666  0.00  0.00    +0.037 A 
ATOM     16  C   UNL     1     -12.638 -20.123   4.844  0.00  0.00    +0.013 A 
ATOM     17  C   UNL     1     -13.277 -21.274   5.432  0.00  0.00    +0.005 A 
ATOM     18  C   UNL     1     -13.074 -21.559   6.851  0.00  0.00    -0.033 A 
ATOM     28  C   UNL     1     -12.229 -20.679   7.641  0.00  0.00    +0.005 A 
ATOM     29  C   UNL     1     -11.602 -19.550   7.069  0.00  0.00    +0.013 A 
BRANCH  18  19
ATOM     19  C   UNL     1     -13.733 -22.753   7.567  0.00  0.00    +0.119 C 
BRANCH  19  20
ATOM     20  N   UNL     1     -15.134 -22.571   8.051  0.00  0.00    -0.302 NA
ATOM     21  C   UNL     1     -15.600 -21.117   7.929  0.00  0.00    +0.066 C 
ATOM     22  C   UNL     1     -17.075 -20.950   8.419  0.00  0.00    -0.064 C 
ATOM     23  N   UNL     1     -17.188 -21.436   9.865  0.00  0.00    +0.379 N 
ATOM     24  C   UNL     1     -18.561 -21.225  10.347  0.00  0.00    -0.096 C 
ATOM     25  H   UNL     1     -16.511 -20.806  10.487  0.00  0.00    -0.082 HD
ATOM     26  C   UNL     1     -16.725 -22.880   9.995  0.00  0.00    -0.064 C 
ATOM     27  C   UNL     1     -15.268 -23.041   9.478  0.00  0.00    +0.066 C 
ENDBRANCH  19  20
ENDBRANCH  18  19
ENDBRANCH  14  15
ENDBRANCH  12  13
TORSDOF 6
ENDMDL
