MODEL 1
REMARK VINA RESULT:      -7.9      0.000      0.000
REMARK  Name = C:\Users\Docking\Desktop\test protocol\1iep_ligandH.pdb
REMARK  8 active torsions:
REMARK  status: ('A' for Active; 'I' for Inactive)
REMARK    1  A    between atoms: _5  and  _11
REMARK    2  A    between atoms: _19  and  _21
REMARK    3  A    between atoms: _22  and  _66
REMARK    4  A    between atoms: _27  and  _30
REMARK    5  A    between atoms: _32  and  _33
REMARK    6  A    between atoms: _38  and  _43
REMARK    7  A    between atoms: _43  and  _46
REMARK    8  A    between atoms: _53  and  _55
REMARK                            x       y       z     vdW  Elec       q    Type
REMARK                         _______ _______ _______ _____ _____    ______ ____
ROOT
ATOM     10  C   UNL     1      76.532  10.962 120.718  0.00  0.00    +0.038 A 
ATOM     11  C   UNL     1      75.791  11.182 121.907  0.00  0.00    +0.047 A 
ATOM     12  C   UNL     1      74.944  10.142 122.470  0.00  0.00    +0.035 A 
ATOM     32  C   UNL     1      74.878   8.887 121.797  0.00  0.00    +0.024 A 
ATOM     33  C   UNL     1      75.623   8.646 120.587  0.00  0.00    +0.007 A 
ATOM     34  C   UNL     1      76.458   9.670 120.025  0.00  0.00    -0.029 A 
ATOM     35  C   UNL     1      77.229   9.358 118.722  0.00  0.00    +0.045 C 
ENDROOT
BRANCH  10   9
ATOM      4  C   UNL     1      80.697  13.329 120.427  0.00  0.00    +0.077 A 
ATOM      5  C   UNL     1      81.331  12.447 121.363  0.00  0.00    +0.048 A 
ATOM      6  C   UNL     1      80.549  11.401 121.903  0.00  0.00    +0.116 A 
ATOM      7  N   UNL     1      79.231  11.257 121.525  0.00  0.00    -0.223 NA
ATOM      8  C   UNL     1      78.650  12.126 120.621  0.00  0.00    +0.220 A 
ATOM      9  N   UNL     1      77.328  11.996 120.221  0.00  0.00    -0.283 N 
ATOM     36  H   UNL     1      76.934  12.662 119.557  0.00  0.00    +0.155 HD
ATOM     37  N   UNL     1      79.375  13.134 120.093  0.00  0.00    -0.214 NA
BRANCH   4   3
ATOM      1  C   UNL     1      81.430  16.799 118.776  0.00  0.00    +0.020 A 
ATOM      2  C   UNL     1      80.712  15.718 119.411  0.00  0.00    +0.013 A 
ATOM      3  C   UNL     1      81.392  14.479 119.768  0.00  0.00    +0.019 A 
ATOM     38  C   UNL     1      82.812  14.366 119.467  0.00  0.00    +0.120 A 
ATOM     39  N   UNL     1      83.477  15.423 118.854  0.00  0.00    -0.263 NA
ATOM     40  C   UNL     1      82.832  16.619 118.504  0.00  0.00    +0.111 A 
ENDBRANCH   4   3
ENDBRANCH  10   9
BRANCH  12  13
ATOM     13  N   UNL     1      74.163  10.311 123.670  0.00  0.00    -0.281 N 
ATOM     14  C   UNL     1      73.195  11.268 123.929  0.00  0.00    +0.248 C 
ATOM     30  O   UNL     1      73.004  12.260 123.242  0.00  0.00    -0.270 OA
ATOM     31  H   UNL     1      74.346   9.645 124.421  0.00  0.00    +0.155 HD
BRANCH  14  15
ATOM     15  C   UNL     1      72.322  11.105 125.131  0.00  0.00    +0.037 A 
ATOM     16  C   UNL     1      72.143  12.197 126.092  0.00  0.00    +0.013 A 
ATOM     17  C   UNL     1      71.309  12.008 127.253  0.00  0.00    +0.005 A 
ATOM     18  C   UNL     1      70.647  10.722 127.458  0.00  0.00    -0.033 A 
ATOM     28  C   UNL     1      70.839   9.658 126.486  0.00  0.00    +0.005 A 
ATOM     29  C   UNL     1      71.656   9.839 125.348  0.00  0.00    +0.013 A 
BRANCH  18  19
ATOM     19  C   UNL     1      69.757  10.425 128.679  0.00  0.00    +0.119 C 
BRANCH  19  20
ATOM     20  N   UNL     1      68.998   9.138 128.675  0.00  0.00    -0.302 NA
ATOM     21  C   UNL     1      67.598   9.299 128.075  0.00  0.00    +0.066 C 
ATOM     22  C   UNL     1      66.827   7.939 128.058  0.00  0.00    -0.064 C 
ATOM     23  N   UNL     1      66.746   7.384 129.482  0.00  0.00    +0.379 N 
ATOM     24  C   UNL     1      65.971   6.135 129.478  0.00  0.00    -0.096 C 
ATOM     25  H   UNL     1      66.190   8.125 130.102  0.00  0.00    -0.082 HD
ATOM     26  C   UNL     1      68.133   7.224 130.087  0.00  0.00    -0.064 C 
ATOM     27  C   UNL     1      68.902   8.575 130.072  0.00  0.00    +0.066 C 
ENDBRANCH  19  20
ENDBRANCH  18  19
ENDBRANCH  14  15
ENDBRANCH  12  13
TORSDOF 6
ENDMDL
MODEL 2
REMARK VINA RESULT:      -7.8      1.650      2.347
REMARK  Name = C:\Users\Docking\Desktop\test protocol\1iep_ligandH.pdb
REMARK  8 active torsions:
REMARK  status: ('A' for Active; 'I' for Inactive)
REMARK    1  A    between atoms: _5  and  _11
REMARK    2  A    between atoms: _19  and  _21
REMARK    3  A    between atoms: _22  and  _66
REMARK    4  A    between atoms: _27  and  _30
REMARK    5  A    between atoms: _32  and  _33
REMARK    6  A    between atoms: _38  and  _43
REMARK    7  A    between atoms: _43  and  _46
REMARK    8  A    between atoms: _53  and  _55
REMARK                            x       y       z     vdW  Elec       q    Type
REMARK                         _______ _______ _______ _____ _____    ______ ____
ROOT
ATOM     10  C   UNL     1      77.922  10.550 120.142  0.00  0.00    +0.038 A 
ATOM     11  C   UNL     1      76.947  10.667 121.165  0.00  0.00    +0.047 A 
ATOM     12  C   UNL     1      75.703   9.914 121.109  0.00  0.00    +0.035 A 
ATOM     32  C   UNL     1      75.488   9.047 119.998  0.00  0.00    +0.024 A 
ATOM     33  C   UNL     1      76.468   8.917 118.949  0.00  0.00    +0.007 A 
ATOM     34  C   UNL     1      77.695   9.659 118.997  0.00  0.00    -0.029 A 
ATOM     35  C   UNL     1      78.708   9.485 117.841  0.00  0.00    +0.045 C 
ENDROOT
BRANCH  10   9
ATOM      4  C   UNL     1      80.412  14.619 119.615  0.00  0.00    +0.077 A 
ATOM      5  C   UNL     1      79.283  15.308 119.060  0.00  0.00    +0.048 A 
ATOM      6  C   UNL     1      78.082  14.577 118.921  0.00  0.00    +0.116 A 
ATOM      7  N   UNL     1      78.026  13.256 119.310  0.00  0.00    -0.223 NA
ATOM      8  C   UNL     1      79.134  12.622 119.840  0.00  0.00    +0.220 A 
ATOM      9  N   UNL     1      79.098  11.296 120.246  0.00  0.00    -0.283 N 
ATOM     36  H   UNL     1      79.939  10.862 120.625  0.00  0.00    +0.155 HD
ATOM     37  N   UNL     1      80.293  13.297 119.982  0.00  0.00    -0.214 NA
BRANCH   4   3
ATOM      1  C   UNL     1      83.615  16.101 121.303  0.00  0.00    +0.020 A 
ATOM      2  C   UNL     1      82.318  15.481 121.152  0.00  0.00    +0.013 A 
ATOM      3  C   UNL     1      81.750  15.256 119.828  0.00  0.00    +0.019 A 
ATOM     38  C   UNL     1      82.526  15.672 118.670  0.00  0.00    +0.120 A 
ATOM     39  N   UNL     1      83.771  16.267 118.846  0.00  0.00    -0.263 NA
ATOM     40  C   UNL     1      84.327  16.491 120.114  0.00  0.00    +0.111 A 
ENDBRANCH   4   3
ENDBRANCH  10   9
BRANCH  12  13
ATOM     13  N   UNL     1      74.673   9.998 122.114  0.00  0.00    -0.281 N 
ATOM     14  C   UNL     1      74.730   9.571 123.430  0.00  0.00    +0.248 C 
ATOM     30  O   UNL     1      75.607   8.853 123.887  0.00  0.00    -0.270 OA
ATOM     31  H   UNL     1      73.795  10.425 121.819  0.00  0.00    +0.155 HD
BRANCH  14  15
ATOM     15  C   UNL     1      73.648   9.989 124.373  0.00  0.00    +0.037 A 
ATOM     16  C   UNL     1      73.151  11.367 124.396  0.00  0.00    +0.013 A 
ATOM     17  C   UNL     1      72.118  11.748 125.327  0.00  0.00    +0.005 A 
ATOM     18  C   UNL     1      71.574  10.748 126.242  0.00  0.00    -0.033 A 
ATOM     28  C   UNL     1      72.082   9.387 126.194  0.00  0.00    +0.005 A 
ATOM     29  C   UNL     1      73.095   9.010 125.284  0.00  0.00    +0.013 A 
BRANCH  18  19
ATOM     19  C   UNL     1      70.486  11.071 127.283  0.00  0.00    +0.119 C 
BRANCH  19  20
ATOM     20  N   UNL     1      70.196  10.031 128.314  0.00  0.00    -0.302 NA
ATOM     21  C   UNL     1      68.752   9.529 128.235  0.00  0.00    +0.066 C 
ATOM     22  C   UNL     1      68.473   8.425 129.306  0.00  0.00    -0.064 C 
ATOM     23  N   UNL     1      68.777   8.981 130.699  0.00  0.00    +0.379 N 
ATOM     24  C   UNL     1      68.461   7.965 131.713  0.00  0.00    -0.096 C 
ATOM     25  H   UNL     1      68.103   9.852 130.870  0.00  0.00    -0.082 HD
ATOM     26  C   UNL     1      70.211   9.485 130.785  0.00  0.00    -0.064 C 
ATOM     27  C   UNL     1      70.486  10.560 129.697  0.00  0.00    +0.066 C 
ENDBRANCH  19  20
ENDBRANCH  18  19
ENDBRANCH  14  15
ENDBRANCH  12  13
TORSDOF 6
ENDMDL
MODEL 3
REMARK VINA RESULT:      -7.5      1.160      1.463
REMARK  Name = C:\Users\Docking\Desktop\test protocol\1iep_ligandH.pdb
REMARK  8 active torsions:
REMARK  status: ('A' for Active; 'I' for Inactive)
REMARK    1  A    between atoms: _5  and  _11
REMARK    2  A    between atoms: _19  and  _21
REMARK    3  A    between atoms: _22  and  _66
REMARK    4  A    between atoms: _27  and  _30
REMARK    5  A    between atoms: _32  and  _33
REMARK    6  A    between atoms: _38  and  _43
REMARK    7  A    between atoms: _43  and  _46
REMARK    8  A    between atoms: _53  and  _55
REMARK                            x       y       z     vdW  Elec       q    Type
REMARK                         _______ _______ _______ _____ _____    ______ ____
ROOT
ATOM     10  C   UNL     1      76.462  10.843 120.722  0.00  0.00    +0.038 A 
ATOM     11  C   UNL     1      75.750  11.102 121.921  0.00  0.00    +0.047 A 
ATOM     12  C   UNL     1      74.923  10.079 122.541  0.00  0.00    +0.035 A 
ATOM     32  C   UNL     1      74.847   8.801 121.915  0.00  0.00    +0.024 A 
ATOM     33  C   UNL     1      75.563   8.520 120.696  0.00  0.00    +0.007 A 
ATOM     34  C   UNL     1      76.378   9.527 120.078  0.00  0.00    -0.029 A 
ATOM     35  C   UNL     1      77.118   9.172 118.767  0.00  0.00    +0.045 C 
ENDROOT
BRANCH  10   9
ATOM      4  C   UNL     1      80.576  13.284 120.324  0.00  0.00    +0.077 A 
ATOM      5  C   UNL     1      81.219  12.477 121.321  0.00  0.00    +0.048 A 
ATOM      6  C   UNL     1      80.455  11.449 121.917  0.00  0.00    +0.116 A 
ATOM      7  N   UNL     1      79.145  11.251 121.536  0.00  0.00    -0.223 NA
ATOM      8  C   UNL     1      78.554  12.048 120.573  0.00  0.00    +0.220 A 
ATOM      9  N   UNL     1      77.241  11.862 120.169  0.00  0.00    -0.283 N 
ATOM     36  H   UNL     1      76.839  12.476 119.461  0.00  0.00    +0.155 HD
ATOM     37  N   UNL     1      79.263  13.038 119.990  0.00  0.00    -0.214 NA
BRANCH   4   3
ATOM      1  C   UNL     1      81.392  16.801 118.821  0.00  0.00    +0.020 A 
ATOM      2  C   UNL     1      80.698  15.753 119.531  0.00  0.00    +0.013 A 
ATOM      3  C   UNL     1      81.253  14.407 119.601  0.00  0.00    +0.019 A 
ATOM     38  C   UNL     1      82.522  14.154 118.937  0.00  0.00    +0.120 A 
ATOM     39  N   UNL     1      83.167  15.183 118.259  0.00  0.00    -0.263 NA
ATOM     40  C   UNL     1      82.642  16.482 118.183  0.00  0.00    +0.111 A 
ENDBRANCH   4   3
ENDBRANCH  10   9
BRANCH  12  13
ATOM     13  N   UNL     1      74.171  10.287 123.754  0.00  0.00    -0.281 N 
ATOM     14  C   UNL     1      73.190  11.234 123.996  0.00  0.00    +0.248 C 
ATOM     30  O   UNL     1      72.958  12.189 123.270  0.00  0.00    -0.270 OA
ATOM     31  H   UNL     1      74.389   9.660 124.529  0.00  0.00    +0.155 HD
BRANCH  14  15
ATOM     15  C   UNL     1      72.354  11.109 125.228  0.00  0.00    +0.037 A 
ATOM     16  C   UNL     1      71.999  12.284 126.028  0.00  0.00    +0.013 A 
ATOM     17  C   UNL     1      71.206  12.134 127.222  0.00  0.00    +0.005 A 
ATOM     18  C   UNL     1      70.761  10.802 127.623  0.00  0.00    -0.033 A 
ATOM     28  C   UNL     1      71.123   9.653 126.809  0.00  0.00    +0.005 A 
ATOM     29  C   UNL     1      71.901   9.797 125.639  0.00  0.00    +0.013 A 
BRANCH  18  19
ATOM     19  C   UNL     1      69.929  10.545 128.894  0.00  0.00    +0.119 C 
BRANCH  19  20
ATOM     20  N   UNL     1      70.256   9.325 129.690  0.00  0.00    -0.302 NA
ATOM     21  C   UNL     1      69.258   8.190 129.439  0.00  0.00    +0.066 C 
ATOM     22  C   UNL     1      69.628   6.914 130.262  0.00  0.00    -0.064 C 
ATOM     23  N   UNL     1      69.682   7.268 131.750  0.00  0.00    +0.379 N 
ATOM     24  C   UNL     1      69.973   6.058 132.532  0.00  0.00    -0.096 C 
ATOM     25  H   UNL     1      68.670   7.629 132.048  0.00  0.00    -0.082 HD
ATOM     26  C   UNL     1      70.670   8.397 132.008  0.00  0.00    -0.064 C 
ATOM     27  C   UNL     1      70.310   9.650 131.163  0.00  0.00    +0.066 C 
ENDBRANCH  19  20
ENDBRANCH  18  19
ENDBRANCH  14  15
ENDBRANCH  12  13
TORSDOF 6
ENDMDL
MODEL 4
REMARK VINA RESULT:      -7.2      7.518      9.664
REMARK  Name = C:\Users\Docking\Desktop\test protocol\1iep_ligandH.pdb
REMARK  8 active torsions:
REMARK  status: ('A' for Active; 'I' for Inactive)
REMARK    1  A    between atoms: _5  and  _11
REMARK    2  A    between atoms: _19  and  _21
REMARK    3  A    between atoms: _22  and  _66
REMARK    4  A    between atoms: _27  and  _30
REMARK    5  A    between atoms: _32  and  _33
REMARK    6  A    between atoms: _38  and  _43
REMARK    7  A    between atoms: _43  and  _46
REMARK    8  A    between atoms: _53  and  _55
REMARK                            x       y       z     vdW  Elec       q    Type
REMARK                         _______ _______ _______ _____ _____    ______ ____
ROOT
ATOM     10  C   UNL     1      74.247  13.611 128.972  0.00  0.00    +0.038 A 
ATOM     11  C   UNL     1      72.995  12.980 128.761  0.00  0.00    +0.047 A 
ATOM     12  C   UNL     1      72.887  11.532 128.673  0.00  0.00    +0.035 A 
ATOM     32  C   UNL     1      74.075  10.757 128.808  0.00  0.00    +0.024 A 
ATOM     33  C   UNL     1      75.357  11.382 129.022  0.00  0.00    +0.007 A 
ATOM     34  C   UNL     1      75.470  12.810 129.107  0.00  0.00    -0.029 A 
ATOM     35  C   UNL     1      76.871  13.426 129.331  0.00  0.00    +0.045 C 
ENDROOT
BRANCH  10   9
ATOM      4  C   UNL     1      74.059  17.723 131.440  0.00  0.00    +0.077 A 
ATOM      5  C   UNL     1      73.823  17.038 132.679  0.00  0.00    +0.048 A 
ATOM      6  C   UNL     1      73.750  15.628 132.636  0.00  0.00    +0.116 A 
ATOM      7  N   UNL     1      73.903  14.963 131.439  0.00  0.00    -0.223 NA
ATOM      8  C   UNL     1      74.128  15.654 130.263  0.00  0.00    +0.220 A 
ATOM      9  N   UNL     1      74.293  15.005 129.049  0.00  0.00    -0.283 N 
ATOM     36  H   UNL     1      74.450  15.551 128.202  0.00  0.00    +0.155 HD
ATOM     37  N   UNL     1      74.200  17.001 130.277  0.00  0.00    -0.214 NA
BRANCH   4   3
ATOM      1  C   UNL     1      75.133  21.444 131.991  0.00  0.00    +0.020 A 
ATOM      2  C   UNL     1      75.068  20.009 132.144  0.00  0.00    +0.013 A 
ATOM      3  C   UNL     1      74.165  19.212 131.323  0.00  0.00    +0.019 A 
ATOM     38  C   UNL     1      73.335  19.904 130.348  0.00  0.00    +0.120 A 
ATOM     39  N   UNL     1      73.418  21.287 130.224  0.00  0.00    -0.263 NA
ATOM     40  C   UNL     1      74.282  22.064 131.010  0.00  0.00    +0.111 A 
ENDBRANCH   4   3
ENDBRANCH  10   9
BRANCH  12  13
ATOM     13  N   UNL     1      71.644  10.836 128.452  0.00  0.00    -0.281 N 
ATOM     14  C   UNL     1      70.845  10.859 127.321  0.00  0.00    +0.248 C 
ATOM     30  O   UNL     1      70.971  11.654 126.401  0.00  0.00    -0.270 OA
ATOM     31  H   UNL     1      71.313  10.256 129.223  0.00  0.00    +0.155 HD
BRANCH  14  15
ATOM     15  C   UNL     1      69.737   9.863 127.199  0.00  0.00    +0.037 A 
ATOM     16  C   UNL     1      68.518   9.980 128.005  0.00  0.00    +0.013 A 
ATOM     17  C   UNL     1      67.472   8.996 127.880  0.00  0.00    +0.005 A 
ATOM     18  C   UNL     1      67.640   7.887 126.945  0.00  0.00    -0.033 A 
ATOM     28  C   UNL     1      68.856   7.798 126.154  0.00  0.00    +0.005 A 
ATOM     29  C   UNL     1      69.884   8.760 126.274  0.00  0.00    +0.013 A 
BRANCH  18  19
ATOM     19  C   UNL     1      66.584   6.780 126.762  0.00  0.00    +0.119 C 
BRANCH  19  20
ATOM     20  N   UNL     1      65.278   7.174 126.154  0.00  0.00    -0.302 NA
ATOM     21  C   UNL     1      64.124   7.072 127.156  0.00  0.00    +0.066 C 
ATOM     22  C   UNL     1      62.769   7.509 126.510  0.00  0.00    -0.064 C 
ATOM     23  N   UNL     1      62.494   6.647 125.277  0.00  0.00    +0.379 N 
ATOM     24  C   UNL     1      61.193   7.017 124.701  0.00  0.00    -0.096 C 
ATOM     25  H   UNL     1      62.426   5.587 125.614  0.00  0.00    -0.082 HD
ATOM     26  C   UNL     1      63.637   6.741 124.277  0.00  0.00    -0.064 C 
ATOM     27  C   UNL     1      64.984   6.332 124.937  0.00  0.00    +0.066 C 
ENDBRANCH  19  20
ENDBRANCH  18  19
ENDBRANCH  14  15
ENDBRANCH  12  13
TORSDOF 6
ENDMDL
MODEL 5
REMARK VINA RESULT:      -7.2      5.586     11.486
REMARK  Name = C:\Users\Docking\Desktop\test protocol\1iep_ligandH.pdb
REMARK  8 active torsions:
REMARK  status: ('A' for Active; 'I' for Inactive)
REMARK    1  A    between atoms: _5  and  _11
REMARK    2  A    between atoms: _19  and  _21
REMARK    3  A    between atoms: _22  and  _66
REMARK    4  A    between atoms: _27  and  _30
REMARK    5  A    between atoms: _32  and  _33
REMARK    6  A    between atoms: _38  and  _43
REMARK    7  A    between atoms: _43  and  _46
REMARK    8  A    between atoms: _53  and  _55
REMARK                            x       y       z     vdW  Elec       q    Type
REMARK                         _______ _______ _______ _____ _____    ______ ____
ROOT
ATOM     10  C   UNL     1      83.727  18.887 116.500  0.00  0.00    +0.038 A 
ATOM     11  C   UNL     1      82.860  17.821 116.853  0.00  0.00    +0.047 A 
ATOM     12  C   UNL     1      83.123  16.993 118.019  0.00  0.00    +0.035 A 
ATOM     32  C   UNL     1      84.277  17.279 118.805  0.00  0.00    +0.024 A 
ATOM     33  C   UNL     1      85.169  18.358 118.460  0.00  0.00    +0.007 A 
ATOM     34  C   UNL     1      84.916  19.177 117.309  0.00  0.00    -0.029 A 
ATOM     35  C   UNL     1      85.910  20.316 116.983  0.00  0.00    +0.045 C 
ENDROOT
BRANCH  10   9
ATOM      4  C   UNL     1      84.255  19.957 111.851  0.00  0.00    +0.077 A 
ATOM      5  C   UNL     1      85.233  18.925 111.664  0.00  0.00    +0.048 A 
ATOM      6  C   UNL     1      85.578  18.145 112.791  0.00  0.00    +0.116 A 
ATOM      7  N   UNL     1      84.982  18.389 114.009  0.00  0.00    -0.223 NA
ATOM      8  C   UNL     1      84.043  19.393 114.156  0.00  0.00    +0.220 A 
ATOM      9  N   UNL     1      83.426  19.651 115.370  0.00  0.00    -0.283 N 
ATOM     36  H   UNL     1      82.744  20.406 115.439  0.00  0.00    +0.155 HD
ATOM     37  N   UNL     1      83.698  20.153 113.095  0.00  0.00    -0.214 NA
BRANCH   4   3
ATOM      1  C   UNL     1      83.768  23.066 109.527  0.00  0.00    +0.020 A 
ATOM      2  C   UNL     1      84.254  22.233 110.603  0.00  0.00    +0.013 A 
ATOM      3  C   UNL     1      83.784  20.862 110.755  0.00  0.00    +0.019 A 
ATOM     38  C   UNL     1      82.815  20.360 109.793  0.00  0.00    +0.120 A 
ATOM     39  N   UNL     1      82.363  21.185 108.768  0.00  0.00    -0.263 NA
ATOM     40  C   UNL     1      82.807  22.507 108.613  0.00  0.00    +0.111 A 
ENDBRANCH   4   3
ENDBRANCH  10   9
BRANCH  12  13
ATOM     13  N   UNL     1      82.284  15.892 118.423  0.00  0.00    -0.281 N 
ATOM     14  C   UNL     1      81.271  15.895 119.367  0.00  0.00    +0.248 C 
ATOM     30  O   UNL     1      81.073  16.798 120.166  0.00  0.00    -0.270 OA
ATOM     31  H   UNL     1      82.458  15.002 117.955  0.00  0.00    +0.155 HD
BRANCH  14  15
ATOM     15  C   UNL     1      80.352  14.718 119.445  0.00  0.00    +0.037 A 
ATOM     16  C   UNL     1      78.969  14.801 118.968  0.00  0.00    +0.013 A 
ATOM     17  C   UNL     1      78.099  13.656 119.071  0.00  0.00    +0.005 A 
ATOM     18  C   UNL     1      78.612  12.417 119.652  0.00  0.00    -0.033 A 
ATOM     28  C   UNL     1      79.989  12.361 120.112  0.00  0.00    +0.005 A 
ATOM     29  C   UNL     1      80.844  13.482 120.014  0.00  0.00    +0.013 A 
BRANCH  18  19
ATOM     19  C   UNL     1      77.748  11.153 119.820  0.00  0.00    +0.119 C 
BRANCH  19  20
ATOM     20  N   UNL     1      77.030  10.983 121.118  0.00  0.00    -0.302 NA
ATOM     21  C   UNL     1      77.266   9.599 121.729  0.00  0.00    +0.066 C 
ATOM     22  C   UNL     1      76.526   9.447 123.097  0.00  0.00    -0.064 C 
ATOM     23  N   UNL     1      75.031   9.701 122.896  0.00  0.00    +0.379 N 
ATOM     24  C   UNL     1      74.323   9.502 124.169  0.00  0.00    -0.096 C 
ATOM     25  H   UNL     1      74.652   8.939 122.175  0.00  0.00    -0.082 HD
ATOM     26  C   UNL     1      74.787  11.074 122.286  0.00  0.00    -0.064 C 
ATOM     27  C   UNL     1      75.551  11.226 120.941  0.00  0.00    +0.066 C 
ENDBRANCH  19  20
ENDBRANCH  18  19
ENDBRANCH  14  15
ENDBRANCH  12  13
TORSDOF 6
ENDMDL
