MODEL 1
REMARK VINA RESULT:      -8.1      0.000      0.000
REMARK  Name = C:\Users\Docking\Desktop\test protocol\1iep_ligandH.pdb
REMARK  8 active torsions:
REMARK  status: ('A' for Active; 'I' for Inactive)
REMARK    1  A    between atoms: _5  and  _11
REMARK    2  A    between atoms: _19  and  _21
REMARK    3  A    between atoms: _22  and  _66
REMARK    4  A    between atoms: _27  and  _30
REMARK    5  A    between atoms: _32  and  _33
REMARK    6  A    between atoms: _38  and  _43
REMARK    7  A    between atoms: _43  and  _46
REMARK    8  A    between atoms: _53  and  _55
REMARK                            x       y       z     vdW  Elec       q    Type
REMARK                         _______ _______ _______ _____ _____    ______ ____
ROOT
ATOM     10  C   UNL     1      69.530  45.851 -16.692  0.00  0.00    +0.038 A 
ATOM     11  C   UNL     1      69.024  44.961 -17.674  0.00  0.00    +0.047 A 
ATOM     12  C   UNL     1      68.802  45.399 -19.043  0.00  0.00    +0.035 A 
ATOM     32  C   UNL     1      69.109  46.750 -19.379  0.00  0.00    +0.024 A 
ATOM     33  C   UNL     1      69.624  47.668 -18.393  0.00  0.00    +0.007 A 
ATOM     34  C   UNL     1      69.842  47.242 -17.040  0.00  0.00    -0.029 A 
ATOM     35  C   UNL     1      70.389  48.271 -16.023  0.00  0.00    +0.045 C 
ENDROOT
BRANCH  10   9
ATOM      4  C   UNL     1      72.279  43.958 -13.243  0.00  0.00    +0.077 A 
ATOM      5  C   UNL     1      73.418  43.881 -14.111  0.00  0.00    +0.048 A 
ATOM      6  C   UNL     1      73.253  44.332 -15.440  0.00  0.00    +0.116 A 
ATOM      7  N   UNL     1      72.035  44.822 -15.858  0.00  0.00    -0.223 NA
ATOM      8  C   UNL     1      70.956  44.881 -14.995  0.00  0.00    +0.220 A 
ATOM      9  N   UNL     1      69.723  45.377 -15.392  0.00  0.00    -0.283 N 
ATOM     36  H   UNL     1      68.950  45.397 -14.728  0.00  0.00    +0.155 HD
ATOM     37  N   UNL     1      71.087  44.455 -13.722  0.00  0.00    -0.214 NA
BRANCH   4   3
ATOM      1  C   UNL     1      71.379  42.210  -9.861  0.00  0.00    +0.020 A 
ATOM      2  C   UNL     1      71.317  42.599 -11.251  0.00  0.00    +0.013 A 
ATOM      3  C   UNL     1      72.296  43.523 -11.810  0.00  0.00    +0.019 A 
ATOM     38  C   UNL     1      73.333  44.038 -10.930  0.00  0.00    +0.120 A 
ATOM     39  N   UNL     1      73.367  43.647  -9.595  0.00  0.00    -0.263 NA
ATOM     40  C   UNL     1      72.429  42.760  -9.045  0.00  0.00    +0.111 A 
ENDBRANCH   4   3
ENDBRANCH  10   9
BRANCH  12  13
ATOM     13  N   UNL     1      68.283  44.543 -20.081  0.00  0.00    -0.281 N 
ATOM     14  C   UNL     1      67.465  44.893 -21.143  0.00  0.00    +0.248 C 
ATOM     30  O   UNL     1      66.879  45.960 -21.242  0.00  0.00    -0.270 OA
ATOM     31  H   UNL     1      68.550  43.560 -20.026  0.00  0.00    +0.155 HD
BRANCH  14  15
ATOM     15  C   UNL     1      67.257  43.908 -22.248  0.00  0.00    +0.037 A 
ATOM     16  C   UNL     1      66.777  42.551 -21.977  0.00  0.00    +0.013 A 
ATOM     17  C   UNL     1      66.601  41.616 -23.059  0.00  0.00    +0.005 A 
ATOM     18  C   UNL     1      66.904  42.036 -24.425  0.00  0.00    -0.033 A 
ATOM     28  C   UNL     1      67.373  43.391 -24.667  0.00  0.00    +0.005 A 
ATOM     29  C   UNL     1      67.548  44.310 -23.608  0.00  0.00    +0.013 A 
BRANCH  18  19
ATOM     19  C   UNL     1      66.766  41.099 -25.639  0.00  0.00    +0.119 C 
BRANCH  19  20
ATOM     20  N   UNL     1      67.194  39.679 -25.459  0.00  0.00    -0.302 NA
ATOM     21  C   UNL     1      68.654  39.572 -25.009  0.00  0.00    +0.066 C 
ATOM     22  C   UNL     1      69.078  38.082 -24.804  0.00  0.00    -0.064 C 
ATOM     23  N   UNL     1      68.855  37.307 -26.104  0.00  0.00    +0.379 N 
ATOM     24  C   UNL     1      69.307  35.919 -25.932  0.00  0.00    -0.096 C 
ATOM     25  H   UNL     1      69.491  37.776 -26.890  0.00  0.00    -0.082 HD
ATOM     26  C   UNL     1      67.406  37.410 -26.560  0.00  0.00    -0.064 C 
ATOM     27  C   UNL     1      66.986  38.897 -26.733  0.00  0.00    +0.066 C 
ENDBRANCH  19  20
ENDBRANCH  18  19
ENDBRANCH  14  15
ENDBRANCH  12  13
TORSDOF 6
ENDMDL
MODEL 2
REMARK VINA RESULT:      -7.8     29.440     32.765
REMARK  Name = C:\Users\Docking\Desktop\test protocol\1iep_ligandH.pdb
REMARK  8 active torsions:
REMARK  status: ('A' for Active; 'I' for Inactive)
REMARK    1  A    between atoms: _5  and  _11
REMARK    2  A    between atoms: _19  and  _21
REMARK    3  A    between atoms: _22  and  _66
REMARK    4  A    between atoms: _27  and  _30
REMARK    5  A    between atoms: _32  and  _33
REMARK    6  A    between atoms: _38  and  _43
REMARK    7  A    between atoms: _43  and  _46
REMARK    8  A    between atoms: _53  and  _55
REMARK                            x       y       z     vdW  Elec       q    Type
REMARK                         _______ _______ _______ _____ _____    ______ ____
ROOT
ATOM     10  C   UNL     1      43.107  33.651  -2.069  0.00  0.00    +0.038 A 
ATOM     11  C   UNL     1      44.445  33.818  -1.628  0.00  0.00    +0.047 A 
ATOM     12  C   UNL     1      45.467  32.829  -1.934  0.00  0.00    +0.035 A 
ATOM     32  C   UNL     1      45.092  31.684  -2.694  0.00  0.00    +0.024 A 
ATOM     33  C   UNL     1      43.737  31.498  -3.150  0.00  0.00    +0.007 A 
ATOM     34  C   UNL     1      42.724  32.468  -2.849  0.00  0.00    -0.029 A 
ATOM     35  C   UNL     1      41.286  32.214  -3.358  0.00  0.00    +0.045 C 
ENDROOT
BRANCH  10   9
ATOM      4  C   UNL     1      40.509  36.144   1.105  0.00  0.00    +0.077 A 
ATOM      5  C   UNL     1      41.052  35.412   2.213  0.00  0.00    +0.048 A 
ATOM      6  C   UNL     1      41.992  34.397   1.923  0.00  0.00    +0.116 A 
ATOM      7  N   UNL     1      42.355  34.143   0.618  0.00  0.00    -0.223 NA
ATOM      8  C   UNL     1      41.810  34.866  -0.427  0.00  0.00    +0.220 A 
ATOM      9  N   UNL     1      42.166  34.632  -1.747  0.00  0.00    -0.283 N 
ATOM     36  H   UNL     1      41.737  35.182  -2.490  0.00  0.00    +0.155 HD
ATOM     37  N   UNL     1      40.910  35.839  -0.176  0.00  0.00    -0.214 NA
BRANCH   4   3
ATOM      1  C   UNL     1      37.455  38.515   0.516  0.00  0.00    +0.020 A 
ATOM      2  C   UNL     1      38.394  37.433   0.330  0.00  0.00    +0.013 A 
ATOM      3  C   UNL     1      39.509  37.248   1.251  0.00  0.00    +0.019 A 
ATOM     38  C   UNL     1      39.645  38.182   2.358  0.00  0.00    +0.120 A 
ATOM     39  N   UNL     1      38.727  39.216   2.511  0.00  0.00    -0.263 NA
ATOM     40  C   UNL     1      37.651  39.405   1.630  0.00  0.00    +0.111 A 
ENDBRANCH   4   3
ENDBRANCH  10   9
BRANCH  12  13
ATOM     13  N   UNL     1      46.839  32.941  -1.506  0.00  0.00    -0.281 N 
ATOM     14  C   UNL     1      47.485  32.216  -0.518  0.00  0.00    +0.248 C 
ATOM     30  O   UNL     1      46.918  31.504   0.299  0.00  0.00    -0.270 OA
ATOM     31  H   UNL     1      47.403  33.639  -1.990  0.00  0.00    +0.155 HD
BRANCH  14  15
ATOM     15  C   UNL     1      48.973  32.305  -0.412  0.00  0.00    +0.037 A 
ATOM     16  C   UNL     1      49.615  33.256   0.499  0.00  0.00    +0.013 A 
ATOM     17  C   UNL     1      51.052  33.333   0.569  0.00  0.00    +0.005 A 
ATOM     18  C   UNL     1      51.859  32.454  -0.275  0.00  0.00    -0.033 A 
ATOM     28  C   UNL     1      51.196  31.516  -1.166  0.00  0.00    +0.005 A 
ATOM     29  C   UNL     1      49.787  31.439  -1.238  0.00  0.00    +0.013 A 
BRANCH  18  19
ATOM     19  C   UNL     1      53.398  32.483  -0.282  0.00  0.00    +0.119 C 
BRANCH  19  20
ATOM     20  N   UNL     1      54.106  31.171  -0.376  0.00  0.00    -0.302 NA
ATOM     21  C   UNL     1      55.112  30.978   0.763  0.00  0.00    +0.066 C 
ATOM     22  C   UNL     1      55.827  29.592   0.661  0.00  0.00    -0.064 C 
ATOM     23  N   UNL     1      56.519  29.476  -0.698  0.00  0.00    +0.379 N 
ATOM     24  C   UNL     1      57.241  28.197  -0.774  0.00  0.00    -0.096 C 
ATOM     25  H   UNL     1      57.273  30.294  -0.765  0.00  0.00    -0.082 HD
ATOM     26  C   UNL     1      55.526  29.669  -1.836  0.00  0.00    -0.064 C 
ATOM     27  C   UNL     1      54.800  31.038  -1.709  0.00  0.00    +0.066 C 
ENDBRANCH  19  20
ENDBRANCH  18  19
ENDBRANCH  14  15
ENDBRANCH  12  13
TORSDOF 6
ENDMDL
MODEL 3
REMARK VINA RESULT:      -7.7      1.594      2.180
REMARK  Name = C:\Users\Docking\Desktop\test protocol\1iep_ligandH.pdb
REMARK  8 active torsions:
REMARK  status: ('A' for Active; 'I' for Inactive)
REMARK    1  A    between atoms: _5  and  _11
REMARK    2  A    between atoms: _19  and  _21
REMARK    3  A    between atoms: _22  and  _66
REMARK    4  A    between atoms: _27  and  _30
REMARK    5  A    between atoms: _32  and  _33
REMARK    6  A    between atoms: _38  and  _43
REMARK    7  A    between atoms: _43  and  _46
REMARK    8  A    between atoms: _53  and  _55
REMARK                            x       y       z     vdW  Elec       q    Type
REMARK                         _______ _______ _______ _____ _____    ______ ____
ROOT
ATOM     10  C   UNL     1      69.653  45.708 -16.359  0.00  0.00    +0.038 A 
ATOM     11  C   UNL     1      69.221  44.868 -17.417  0.00  0.00    +0.047 A 
ATOM     12  C   UNL     1      69.005  45.394 -18.755  0.00  0.00    +0.035 A 
ATOM     32  C   UNL     1      69.241  46.781 -18.982  0.00  0.00    +0.024 A 
ATOM     33  C   UNL     1      69.679  47.650 -17.918  0.00  0.00    +0.007 A 
ATOM     34  C   UNL     1      69.892  47.137 -16.595  0.00  0.00    -0.029 A 
ATOM     35  C   UNL     1      70.356  48.115 -15.491  0.00  0.00    +0.045 C 
ENDROOT
BRANCH  10   9
ATOM      4  C   UNL     1      72.406  43.620 -13.028  0.00  0.00    +0.077 A 
ATOM      5  C   UNL     1      73.552  43.617 -13.891  0.00  0.00    +0.048 A 
ATOM      6  C   UNL     1      73.389  44.156 -15.187  0.00  0.00    +0.116 A 
ATOM      7  N   UNL     1      72.167  44.657 -15.580  0.00  0.00    -0.223 NA
ATOM      8  C   UNL     1      71.082  44.643 -14.723  0.00  0.00    +0.220 A 
ATOM      9  N   UNL     1      69.845  45.149 -15.093  0.00  0.00    -0.283 N 
ATOM     36  H   UNL     1      69.068  45.113 -14.435  0.00  0.00    +0.155 HD
ATOM     37  N   UNL     1      71.211  44.133 -13.480  0.00  0.00    -0.214 NA
BRANCH   4   3
ATOM      1  C   UNL     1      71.278  42.209  -9.558  0.00  0.00    +0.020 A 
ATOM      2  C   UNL     1      71.209  42.718 -10.908  0.00  0.00    +0.013 A 
ATOM      3  C   UNL     1      72.421  43.088 -11.628  0.00  0.00    +0.019 A 
ATOM     38  C   UNL     1      73.698  42.929 -10.948  0.00  0.00    +0.120 A 
ATOM     39  N   UNL     1      73.733  42.438  -9.646  0.00  0.00    -0.263 NA
ATOM     40  C   UNL     1      72.573  42.080  -8.943  0.00  0.00    +0.111 A 
ENDBRANCH   4   3
ENDBRANCH  10   9
BRANCH  12  13
ATOM     13  N   UNL     1      68.558  44.591 -19.867  0.00  0.00    -0.281 N 
ATOM     14  C   UNL     1      67.762  44.978 -20.932  0.00  0.00    +0.248 C 
ATOM     30  O   UNL     1      67.133  46.025 -20.980  0.00  0.00    -0.270 OA
ATOM     31  H   UNL     1      68.867  43.619 -19.869  0.00  0.00    +0.155 HD
BRANCH  14  15
ATOM     15  C   UNL     1      67.635  44.065 -22.108  0.00  0.00    +0.037 A 
ATOM     16  C   UNL     1      66.945  42.777 -21.999  0.00  0.00    +0.013 A 
ATOM     17  C   UNL     1      66.851  41.907 -23.145  0.00  0.00    +0.005 A 
ATOM     18  C   UNL     1      67.448  42.324 -24.411  0.00  0.00    -0.033 A 
ATOM     28  C   UNL     1      68.122  43.609 -24.493  0.00  0.00    +0.005 A 
ATOM     29  C   UNL     1      68.217  44.464 -23.372  0.00  0.00    +0.013 A 
BRANCH  18  19
ATOM     19  C   UNL     1      67.415  41.451 -25.679  0.00  0.00    +0.119 C 
BRANCH  19  20
ATOM     20  N   UNL     1      66.074  41.134 -26.256  0.00  0.00    -0.302 NA
ATOM     21  C   UNL     1      65.695  39.664 -26.054  0.00  0.00    +0.066 C 
ATOM     22  C   UNL     1      64.280  39.355 -26.643  0.00  0.00    -0.064 C 
ATOM     23  N   UNL     1      64.258  39.721 -28.128  0.00  0.00    +0.379 N 
ATOM     24  C   UNL     1      62.947  39.378 -28.698  0.00  0.00    -0.096 C 
ATOM     25  H   UNL     1      65.025  39.096 -28.642  0.00  0.00    -0.082 HD
ATOM     26  C   UNL     1      64.636  41.180 -28.338  0.00  0.00    -0.064 C 
ATOM     27  C   UNL     1      66.031  41.484 -27.723  0.00  0.00    +0.066 C 
ENDBRANCH  19  20
ENDBRANCH  18  19
ENDBRANCH  14  15
ENDBRANCH  12  13
TORSDOF 6
ENDMDL
MODEL 4
REMARK VINA RESULT:      -7.6     17.852     20.801
REMARK  Name = C:\Users\Docking\Desktop\test protocol\1iep_ligandH.pdb
REMARK  8 active torsions:
REMARK  status: ('A' for Active; 'I' for Inactive)
REMARK    1  A    between atoms: _5  and  _11
REMARK    2  A    between atoms: _19  and  _21
REMARK    3  A    between atoms: _22  and  _66
REMARK    4  A    between atoms: _27  and  _30
REMARK    5  A    between atoms: _32  and  _33
REMARK    6  A    between atoms: _38  and  _43
REMARK    7  A    between atoms: _43  and  _46
REMARK    8  A    between atoms: _53  and  _55
REMARK                            x       y       z     vdW  Elec       q    Type
REMARK                         _______ _______ _______ _____ _____    ______ ____
ROOT
ATOM     10  C   UNL     1      63.018  40.773  -0.597  0.00  0.00    +0.038 A 
ATOM     11  C   UNL     1      62.987  42.172  -0.822  0.00  0.00    +0.047 A 
ATOM     12  C   UNL     1      61.983  43.014  -0.191  0.00  0.00    +0.035 A 
ATOM     32  C   UNL     1      61.026  42.397   0.667  0.00  0.00    +0.024 A 
ATOM     33  C   UNL     1      61.042  40.976   0.906  0.00  0.00    +0.007 A 
ATOM     34  C   UNL     1      62.029  40.140   0.284  0.00  0.00    -0.029 A 
ATOM     35  C   UNL     1      61.994  38.621   0.572  0.00  0.00    +0.045 C 
ENDROOT
BRANCH  10   9
ATOM      4  C   UNL     1      67.382  38.779  -0.740  0.00  0.00    +0.077 A 
ATOM      5  C   UNL     1      67.736  39.321   0.541  0.00  0.00    +0.048 A 
ATOM      6  C   UNL     1      66.769  40.113   1.200  0.00  0.00    +0.116 A 
ATOM      7  N   UNL     1      65.543  40.340   0.613  0.00  0.00    -0.223 NA
ATOM      8  C   UNL     1      65.234  39.804  -0.623  0.00  0.00    +0.220 A 
ATOM      9  N   UNL     1      64.004  40.012  -1.228  0.00  0.00    -0.283 N 
ATOM     36  H   UNL     1      63.818  39.605  -2.145  0.00  0.00    +0.155 HD
ATOM     37  N   UNL     1      66.141  39.045  -1.274  0.00  0.00    -0.214 NA
BRANCH   4   3
ATOM      1  C   UNL     1      68.989  35.706  -2.549  0.00  0.00    +0.020 A 
ATOM      2  C   UNL     1      68.078  36.491  -1.749  0.00  0.00    +0.013 A 
ATOM      3  C   UNL     1      68.294  37.920  -1.558  0.00  0.00    +0.019 A 
ATOM     38  C   UNL     1      69.451  38.529  -2.197  0.00  0.00    +0.120 A 
ATOM     39  N   UNL     1      70.313  37.748  -2.961  0.00  0.00    -0.263 NA
ATOM     40  C   UNL     1      70.115  36.372  -3.150  0.00  0.00    +0.111 A 
ENDBRANCH   4   3
ENDBRANCH  10   9
BRANCH  12  13
ATOM     13  N   UNL     1      61.897  44.440  -0.389  0.00  0.00    -0.281 N 
ATOM     14  C   UNL     1      62.740  45.421   0.107  0.00  0.00    +0.248 C 
ATOM     30  O   UNL     1      63.578  45.237   0.977  0.00  0.00    -0.270 OA
ATOM     31  H   UNL     1      61.120  44.766  -0.964  0.00  0.00    +0.155 HD
BRANCH  14  15
ATOM     15  C   UNL     1      62.627  46.811  -0.431  0.00  0.00    +0.037 A 
ATOM     16  C   UNL     1      61.438  47.245  -1.169  0.00  0.00    +0.013 A 
ATOM     17  C   UNL     1      61.361  48.586  -1.692  0.00  0.00    +0.005 A 
ATOM     18  C   UNL     1      62.478  49.503  -1.478  0.00  0.00    -0.033 A 
ATOM     28  C   UNL     1      63.643  49.048  -0.738  0.00  0.00    +0.005 A 
ATOM     29  C   UNL     1      63.722  47.734  -0.225  0.00  0.00    +0.013 A 
BRANCH  18  19
ATOM     19  C   UNL     1      62.491  50.945  -2.019  0.00  0.00    +0.119 C 
BRANCH  19  20
ATOM     20  N   UNL     1      61.471  51.298  -3.052  0.00  0.00    -0.302 NA
ATOM     21  C   UNL     1      62.116  51.794  -4.349  0.00  0.00    +0.066 C 
ATOM     22  C   UNL     1      61.036  52.137  -5.426  0.00  0.00    -0.064 C 
ATOM     23  N   UNL     1      60.073  53.185  -4.864  0.00  0.00    +0.379 N 
ATOM     24  C   UNL     1      59.091  53.552  -5.894  0.00  0.00    -0.096 C 
ATOM     25  H   UNL     1      60.668  54.096  -4.623  0.00  0.00    -0.082 HD
ATOM     26  C   UNL     1      59.430  52.700  -3.572  0.00  0.00    -0.064 C 
ATOM     27  C   UNL     1      60.513  52.334  -2.519  0.00  0.00    +0.066 C 
ENDBRANCH  19  20
ENDBRANCH  18  19
ENDBRANCH  14  15
ENDBRANCH  12  13
TORSDOF 6
ENDMDL
MODEL 5
REMARK VINA RESULT:      -7.5     29.839     33.254
REMARK  Name = C:\Users\Docking\Desktop\test protocol\1iep_ligandH.pdb
REMARK  8 active torsions:
REMARK  status: ('A' for Active; 'I' for Inactive)
REMARK    1  A    between atoms: _5  and  _11
REMARK    2  A    between atoms: _19  and  _21
REMARK    3  A    between atoms: _22  and  _66
REMARK    4  A    between atoms: _27  and  _30
REMARK    5  A    between atoms: _32  and  _33
REMARK    6  A    between atoms: _38  and  _43
REMARK    7  A    between atoms: _43  and  _46
REMARK    8  A    between atoms: _53  and  _55
REMARK                            x       y       z     vdW  Elec       q    Type
REMARK                         _______ _______ _______ _____ _____    ______ ____
ROOT
ATOM     10  C   UNL     1      46.820  31.790  -2.430  0.00  0.00    +0.038 A 
ATOM     11  C   UNL     1      46.096  32.816  -1.770  0.00  0.00    +0.047 A 
ATOM     12  C   UNL     1      44.642  32.809  -1.736  0.00  0.00    +0.035 A 
ATOM     32  C   UNL     1      43.956  31.739  -2.382  0.00  0.00    +0.024 A 
ATOM     33  C   UNL     1      44.676  30.689  -3.058  0.00  0.00    +0.007 A 
ATOM     34  C   UNL     1      46.110  30.692  -3.097  0.00  0.00    -0.029 A 
ATOM     35  C   UNL     1      46.829  29.544  -3.843  0.00  0.00    +0.045 C 
ENDROOT
BRANCH  10   9
ATOM      4  C   UNL     1      51.091  30.982  -0.395  0.00  0.00    +0.077 A 
ATOM      5  C   UNL     1      50.491  30.424   0.782  0.00  0.00    +0.048 A 
ATOM      6  C   UNL     1      49.080  30.370   0.828  0.00  0.00    +0.116 A 
ATOM      7  N   UNL     1      48.334  30.841  -0.231  0.00  0.00    -0.223 NA
ATOM      8  C   UNL     1      48.945  31.374  -1.351  0.00  0.00    +0.220 A 
ATOM      9  N   UNL     1      48.215  31.847  -2.431  0.00  0.00    -0.283 N 
ATOM     36  H   UNL     1      48.703  32.240  -3.236  0.00  0.00    +0.155 HD
ATOM     37  N   UNL     1      50.291  31.439  -1.419  0.00  0.00    -0.214 NA
BRANCH   4   3
ATOM      1  C   UNL     1      54.913  31.513   0.247  0.00  0.00    +0.020 A 
ATOM      2  C   UNL     1      53.493  31.406   0.493  0.00  0.00    +0.013 A 
ATOM      3  C   UNL     1      52.570  31.104  -0.594  0.00  0.00    +0.019 A 
ATOM     38  C   UNL     1      53.120  30.915  -1.928  0.00  0.00    +0.120 A 
ATOM     39  N   UNL     1      54.492  31.026  -2.134  0.00  0.00    -0.263 NA
ATOM     40  C   UNL     1      55.389  31.317  -1.096  0.00  0.00    +0.111 A 
ENDBRANCH   4   3
ENDBRANCH  10   9
BRANCH  12  13
ATOM     13  N   UNL     1      43.854  33.828  -1.088  0.00  0.00    -0.281 N 
ATOM     14  C   UNL     1      42.853  34.610  -1.641  0.00  0.00    +0.248 C 
ATOM     30  O   UNL     1      42.630  34.701  -2.839  0.00  0.00    -0.270 OA
ATOM     31  H   UNL     1      44.058  33.992  -0.102  0.00  0.00    +0.155 HD
BRANCH  14  15
ATOM     15  C   UNL     1      41.985  35.420  -0.733  0.00  0.00    +0.037 A 
ATOM     16  C   UNL     1      41.670  34.964   0.623  0.00  0.00    +0.013 A 
ATOM     17  C   UNL     1      40.816  35.756   1.473  0.00  0.00    +0.005 A 
ATOM     18  C   UNL     1      40.271  37.014   0.967  0.00  0.00    -0.033 A 
ATOM     28  C   UNL     1      40.603  37.445  -0.381  0.00  0.00    +0.005 A 
ATOM     29  C   UNL     1      41.440  36.671  -1.216  0.00  0.00    +0.013 A 
BRANCH  18  19
ATOM     19  C   UNL     1      39.334  37.913   1.796  0.00  0.00    +0.119 C 
BRANCH  19  20
ATOM     20  N   UNL     1      39.907  38.557   3.016  0.00  0.00    -0.302 NA
ATOM     21  C   UNL     1      39.004  39.669   3.555  0.00  0.00    +0.066 C 
ATOM     22  C   UNL     1      39.607  40.317   4.844  0.00  0.00    -0.064 C 
ATOM     23  N   UNL     1      41.005  40.856   4.534  0.00  0.00    +0.379 N 
ATOM     24  C   UNL     1      41.551  41.517   5.728  0.00  0.00    -0.096 C 
ATOM     25  H   UNL     1      40.900  41.629   3.738  0.00  0.00    -0.082 HD
ATOM     26  C   UNL     1      41.908  39.757   3.994  0.00  0.00    -0.064 C 
ATOM     27  C   UNL     1      41.286  39.100   2.731  0.00  0.00    +0.066 C 
ENDBRANCH  19  20
ENDBRANCH  18  19
ENDBRANCH  14  15
ENDBRANCH  12  13
TORSDOF 6
ENDMDL
