MODEL 1
REMARK VINA RESULT:     -10.3      0.000      0.000
REMARK  Name = C:\Users\Docking\Desktop\test protocol\1iep_ligandH.pdb
REMARK  8 active torsions:
REMARK  status: ('A' for Active; 'I' for Inactive)
REMARK    1  A    between atoms: _5  and  _11
REMARK    2  A    between atoms: _19  and  _21
REMARK    3  A    between atoms: _22  and  _66
REMARK    4  A    between atoms: _27  and  _30
REMARK    5  A    between atoms: _32  and  _33
REMARK    6  A    between atoms: _38  and  _43
REMARK    7  A    between atoms: _43  and  _46
REMARK    8  A    between atoms: _53  and  _55
REMARK                            x       y       z     vdW  Elec       q    Type
REMARK                         _______ _______ _______ _____ _____    ______ ____
ROOT
ATOM     10  C   UNL     1      14.541   5.633  36.902  0.00  0.00    +0.038 A 
ATOM     11  C   UNL     1      13.591   6.654  36.645  0.00  0.00    +0.047 A 
ATOM     12  C   UNL     1      13.340   7.125  35.291  0.00  0.00    +0.035 A 
ATOM     32  C   UNL     1      14.074   6.532  34.223  0.00  0.00    +0.024 A 
ATOM     33  C   UNL     1      15.044   5.494  34.467  0.00  0.00    +0.007 A 
ATOM     34  C   UNL     1      15.297   5.027  35.800  0.00  0.00    -0.029 A 
ATOM     35  C   UNL     1      16.354   3.916  36.004  0.00  0.00    +0.045 C 
ENDROOT
BRANCH  10   9
ATOM      4  C   UNL     1      16.900   5.801  41.079  0.00  0.00    +0.077 A 
ATOM      5  C   UNL     1      17.828   6.776  40.583  0.00  0.00    +0.048 A 
ATOM      6  C   UNL     1      17.669   7.203  39.246  0.00  0.00    +0.116 A 
ATOM      7  N   UNL     1      16.652   6.687  38.471  0.00  0.00    -0.223 NA
ATOM      8  C   UNL     1      15.775   5.747  38.980  0.00  0.00    +0.220 A 
ATOM      9  N   UNL     1      14.741   5.220  38.221  0.00  0.00    -0.283 N 
ATOM     36  H   UNL     1      14.120   4.523  38.631  0.00  0.00    +0.155 HD
ATOM     37  N   UNL     1      15.908   5.322  40.253  0.00  0.00    -0.214 NA
BRANCH   4   3
ATOM      1  C   UNL     1      16.603   5.459  44.964  0.00  0.00    +0.020 A 
ATOM      2  C   UNL     1      16.549   6.035  43.640  0.00  0.00    +0.013 A 
ATOM      3  C   UNL     1      16.937   5.254  42.472  0.00  0.00    +0.019 A 
ATOM     38  C   UNL     1      17.376   3.883  42.679  0.00  0.00    +0.120 A 
ATOM     39  N   UNL     1      17.418   3.355  43.966  0.00  0.00    -0.263 NA
ATOM     40  C   UNL     1      17.050   4.097  45.098  0.00  0.00    +0.111 A 
ENDBRANCH   4   3
ENDBRANCH  10   9
BRANCH  12  13
ATOM     13  N   UNL     1      12.394   8.164  34.970  0.00  0.00    -0.281 N 
ATOM     14  C   UNL     1      12.625   9.526  34.871  0.00  0.00    +0.248 C 
ATOM     30  O   UNL     1      13.642  10.084  35.256  0.00  0.00    -0.270 OA
ATOM     31  H   UNL     1      11.437   7.858  34.793  0.00  0.00    +0.155 HD
BRANCH  14  15
ATOM     15  C   UNL     1      11.568  10.397  34.271  0.00  0.00    +0.037 A 
ATOM     16  C   UNL     1      10.831  11.367  35.084  0.00  0.00    +0.013 A 
ATOM     17  C   UNL     1       9.804  12.182  34.484  0.00  0.00    +0.005 A 
ATOM     18  C   UNL     1       9.511  12.031  33.061  0.00  0.00    -0.033 A 
ATOM     28  C   UNL     1      10.262  11.065  32.277  0.00  0.00    +0.005 A 
ATOM     29  C   UNL     1      11.268  10.264  32.862  0.00  0.00    +0.013 A 
BRANCH  18  19
ATOM     19  C   UNL     1       8.419  12.844  32.342  0.00  0.00    +0.119 C 
BRANCH  19  20
ATOM     20  N   UNL     1       7.256  12.088  31.789  0.00  0.00    -0.302 NA
ATOM     21  C   UNL     1       6.952  10.826  32.602  0.00  0.00    +0.066 C 
ATOM     22  C   UNL     1       5.719  10.059  32.023  0.00  0.00    -0.064 C 
ATOM     23  N   UNL     1       5.982   9.708  30.557  0.00  0.00    +0.379 N 
ATOM     24  C   UNL     1       4.849   8.936  30.026  0.00  0.00    -0.096 C 
ATOM     25  H   UNL     1       6.884   9.053  30.523  0.00  0.00    -0.082 HD
ATOM     26  C   UNL     1       6.288  10.957  29.742  0.00  0.00    -0.064 C 
ATOM     27  C   UNL     1       7.496  11.728  30.343  0.00  0.00    +0.066 C 
ENDBRANCH  19  20
ENDBRANCH  18  19
ENDBRANCH  14  15
ENDBRANCH  12  13
TORSDOF 6
ENDMDL
MODEL 2
REMARK VINA RESULT:      -9.8      3.215      4.771
REMARK  Name = C:\Users\Docking\Desktop\test protocol\1iep_ligandH.pdb
REMARK  8 active torsions:
REMARK  status: ('A' for Active; 'I' for Inactive)
REMARK    1  A    between atoms: _5  and  _11
REMARK    2  A    between atoms: _19  and  _21
REMARK    3  A    between atoms: _22  and  _66
REMARK    4  A    between atoms: _27  and  _30
REMARK    5  A    between atoms: _32  and  _33
REMARK    6  A    between atoms: _38  and  _43
REMARK    7  A    between atoms: _43  and  _46
REMARK    8  A    between atoms: _53  and  _55
REMARK                            x       y       z     vdW  Elec       q    Type
REMARK                         _______ _______ _______ _____ _____    ______ ____
ROOT
ATOM     10  C   UNL     1      14.603   5.971  36.731  0.00  0.00    +0.038 A 
ATOM     11  C   UNL     1      13.963   7.224  36.548  0.00  0.00    +0.047 A 
ATOM     12  C   UNL     1      13.743   7.769  35.218  0.00  0.00    +0.035 A 
ATOM     32  C   UNL     1      14.185   7.011  34.095  0.00  0.00    +0.024 A 
ATOM     33  C   UNL     1      14.838   5.736  34.262  0.00  0.00    +0.007 A 
ATOM     34  C   UNL     1      15.060   5.194  35.572  0.00  0.00    -0.029 A 
ATOM     35  C   UNL     1      15.771   3.826  35.693  0.00  0.00    +0.045 C 
ENDROOT
BRANCH  10   9
ATOM      4  C   UNL     1      16.998   5.839  40.888  0.00  0.00    +0.077 A 
ATOM      5  C   UNL     1      17.977   6.777  40.422  0.00  0.00    +0.048 A 
ATOM      6  C   UNL     1      17.833   7.265  39.104  0.00  0.00    +0.116 A 
ATOM      7  N   UNL     1      16.783   6.839  38.319  0.00  0.00    -0.223 NA
ATOM      8  C   UNL     1      15.857   5.931  38.799  0.00  0.00    +0.220 A 
ATOM      9  N   UNL     1      14.788   5.495  38.031  0.00  0.00    -0.283 N 
ATOM     36  H   UNL     1      14.131   4.819  38.419  0.00  0.00    +0.155 HD
ATOM     37  N   UNL     1      15.973   5.450  40.054  0.00  0.00    -0.214 NA
BRANCH   4   3
ATOM      1  C   UNL     1      16.691   5.356  44.758  0.00  0.00    +0.020 A 
ATOM      2  C   UNL     1      16.661   5.986  43.458  0.00  0.00    +0.013 A 
ATOM      3  C   UNL     1      17.012   5.236  42.259  0.00  0.00    +0.019 A 
ATOM     38  C   UNL     1      17.392   3.839  42.410  0.00  0.00    +0.120 A 
ATOM     39  N   UNL     1      17.414   3.260  43.675  0.00  0.00    -0.263 NA
ATOM     40  C   UNL     1      17.079   3.972  44.837  0.00  0.00    +0.111 A 
ENDBRANCH   4   3
ENDBRANCH  10   9
BRANCH  12  13
ATOM     13  N   UNL     1      13.107   9.039  34.971  0.00  0.00    -0.281 N 
ATOM     14  C   UNL     1      11.838   9.445  35.351  0.00  0.00    +0.248 C 
ATOM     30  O   UNL     1      10.973   8.695  35.780  0.00  0.00    -0.270 OA
ATOM     31  H   UNL     1      13.658   9.723  34.452  0.00  0.00    +0.155 HD
BRANCH  14  15
ATOM     15  C   UNL     1      11.472  10.888  35.224  0.00  0.00    +0.037 A 
ATOM     16  C   UNL     1      11.685  11.826  36.330  0.00  0.00    +0.013 A 
ATOM     17  C   UNL     1      11.308  13.210  36.187  0.00  0.00    +0.005 A 
ATOM     18  C   UNL     1      10.715  13.665  34.932  0.00  0.00    -0.033 A 
ATOM     28  C   UNL     1      10.519  12.714  33.850  0.00  0.00    +0.005 A 
ATOM     29  C   UNL     1      10.887  11.357  33.986  0.00  0.00    +0.013 A 
BRANCH  18  19
ATOM     19  C   UNL     1      10.263  15.118  34.698  0.00  0.00    +0.119 C 
BRANCH  19  20
ATOM     20  N   UNL     1      11.018  16.192  35.410  0.00  0.00    -0.302 NA
ATOM     21  C   UNL     1      10.129  17.391  35.751  0.00  0.00    +0.066 C 
ATOM     22  C   UNL     1      10.931  18.495  36.515  0.00  0.00    -0.064 C 
ATOM     23  N   UNL     1      12.127  18.931  35.668  0.00  0.00    +0.379 N 
ATOM     24  C   UNL     1      12.849  20.010  36.357  0.00  0.00    -0.096 C 
ATOM     25  H   UNL     1      11.730  19.347  34.712  0.00  0.00    -0.082 HD
ATOM     26  C   UNL     1      13.015  17.745  35.321  0.00  0.00    -0.064 C 
ATOM     27  C   UNL     1      12.202  16.641  34.589  0.00  0.00    +0.066 C 
ENDBRANCH  19  20
ENDBRANCH  18  19
ENDBRANCH  14  15
ENDBRANCH  12  13
TORSDOF 6
ENDMDL
MODEL 3
REMARK VINA RESULT:      -9.7      8.387     12.783
REMARK  Name = C:\Users\Docking\Desktop\test protocol\1iep_ligandH.pdb
REMARK  8 active torsions:
REMARK  status: ('A' for Active; 'I' for Inactive)
REMARK    1  A    between atoms: _5  and  _11
REMARK    2  A    between atoms: _19  and  _21
REMARK    3  A    between atoms: _22  and  _66
REMARK    4  A    between atoms: _27  and  _30
REMARK    5  A    between atoms: _32  and  _33
REMARK    6  A    between atoms: _38  and  _43
REMARK    7  A    between atoms: _43  and  _46
REMARK    8  A    between atoms: _53  and  _55
REMARK                            x       y       z     vdW  Elec       q    Type
REMARK                         _______ _______ _______ _____ _____    ______ ____
ROOT
ATOM     10  C   UNL     1       6.037  10.229  35.860  0.00  0.00    +0.038 A 
ATOM     11  C   UNL     1       6.402  10.365  37.224  0.00  0.00    +0.047 A 
ATOM     12  C   UNL     1       5.688  11.274  38.107  0.00  0.00    +0.035 A 
ATOM     32  C   UNL     1       4.605  12.028  37.568  0.00  0.00    +0.024 A 
ATOM     33  C   UNL     1       4.222  11.903  36.183  0.00  0.00    +0.007 A 
ATOM     34  C   UNL     1       4.924  11.009  35.307  0.00  0.00    -0.029 A 
ATOM     35  C   UNL     1       4.473  10.921  33.830  0.00  0.00    +0.045 C 
ENDROOT
BRANCH  10   9
ATOM      4  C   UNL     1       9.546   9.237  32.739  0.00  0.00    +0.077 A 
ATOM      5  C   UNL     1       9.964  10.608  32.682  0.00  0.00    +0.048 A 
ATOM      6  C   UNL     1       9.245  11.539  33.466  0.00  0.00    +0.116 A 
ATOM      7  N   UNL     1       8.189  11.118  34.244  0.00  0.00    -0.223 NA
ATOM      8  C   UNL     1       7.811   9.788  34.275  0.00  0.00    +0.220 A 
ATOM      9  N   UNL     1       6.757   9.341  35.057  0.00  0.00    -0.283 N 
ATOM     36  H   UNL     1       6.505   8.353  35.047  0.00  0.00    +0.155 HD
ATOM     37  N   UNL     1       8.481   8.880  33.535  0.00  0.00    -0.214 NA
BRANCH   4   3
ATOM      1  C   UNL     1      12.077   6.483  31.593  0.00  0.00    +0.020 A 
ATOM      2  C   UNL     1      11.480   7.545  32.370  0.00  0.00    +0.013 A 
ATOM      3  C   UNL     1      10.209   8.136  31.971  0.00  0.00    +0.019 A 
ATOM     38  C   UNL     1       9.562   7.624  30.772  0.00  0.00    +0.120 A 
ATOM     39  N   UNL     1      10.161   6.602  30.043  0.00  0.00    -0.263 NA
ATOM     40  C   UNL     1      11.385   6.027  30.417  0.00  0.00    +0.111 A 
ENDBRANCH   4   3
ENDBRANCH  10   9
BRANCH  12  13
ATOM     13  N   UNL     1       6.018  11.459  39.498  0.00  0.00    -0.281 N 
ATOM     14  C   UNL     1       6.972  12.304  40.041  0.00  0.00    +0.248 C 
ATOM     30  O   UNL     1       7.839  12.874  39.395  0.00  0.00    -0.270 OA
ATOM     31  H   UNL     1       5.483  10.901  40.163  0.00  0.00    +0.155 HD
BRANCH  14  15
ATOM     15  C   UNL     1       6.973  12.537  41.518  0.00  0.00    +0.037 A 
ATOM     16  C   UNL     1       8.222  12.557  42.283  0.00  0.00    +0.013 A 
ATOM     17  C   UNL     1       8.194  12.768  43.709  0.00  0.00    +0.005 A 
ATOM     18  C   UNL     1       6.910  12.962  44.378  0.00  0.00    -0.033 A 
ATOM     28  C   UNL     1       5.686  12.942  43.594  0.00  0.00    +0.005 A 
ATOM     29  C   UNL     1       5.710  12.735  42.196  0.00  0.00    +0.013 A 
BRANCH  18  19
ATOM     19  C   UNL     1       6.783  13.172  45.899  0.00  0.00    +0.119 C 
BRANCH  19  20
ATOM     20  N   UNL     1       5.428  12.994  46.503  0.00  0.00    -0.302 NA
ATOM     21  C   UNL     1       5.107  14.089  47.524  0.00  0.00    +0.066 C 
ATOM     22  C   UNL     1       3.678  13.900  48.130  0.00  0.00    -0.064 C 
ATOM     23  N   UNL     1       3.577  12.515  48.770  0.00  0.00    +0.379 N 
ATOM     24  C   UNL     1       2.254  12.357  49.391  0.00  0.00    -0.096 C 
ATOM     25  H   UNL     1       4.340  12.462  49.582  0.00  0.00    -0.082 HD
ATOM     26  C   UNL     1       3.898  11.421  47.762  0.00  0.00    -0.064 C 
ATOM     27  C   UNL     1       5.308  11.634  47.145  0.00  0.00    +0.066 C 
ENDBRANCH  19  20
ENDBRANCH  18  19
ENDBRANCH  14  15
ENDBRANCH  12  13
TORSDOF 6
ENDMDL
MODEL 4
REMARK VINA RESULT:      -9.6     18.319     20.259
REMARK  Name = C:\Users\Docking\Desktop\test protocol\1iep_ligandH.pdb
REMARK  8 active torsions:
REMARK  status: ('A' for Active; 'I' for Inactive)
REMARK    1  A    between atoms: _5  and  _11
REMARK    2  A    between atoms: _19  and  _21
REMARK    3  A    between atoms: _22  and  _66
REMARK    4  A    between atoms: _27  and  _30
REMARK    5  A    between atoms: _32  and  _33
REMARK    6  A    between atoms: _38  and  _43
REMARK    7  A    between atoms: _43  and  _46
REMARK    8  A    between atoms: _53  and  _55
REMARK                            x       y       z     vdW  Elec       q    Type
REMARK                         _______ _______ _______ _____ _____    ______ ____
ROOT
ATOM     10  C   UNL     1      -1.744  -5.820  42.675  0.00  0.00    +0.038 A 
ATOM     11  C   UNL     1      -2.367  -5.082  41.637  0.00  0.00    +0.047 A 
ATOM     12  C   UNL     1      -3.697  -5.429  41.161  0.00  0.00    +0.035 A 
ATOM     32  C   UNL     1      -4.365  -6.532  41.767  0.00  0.00    +0.024 A 
ATOM     33  C   UNL     1      -3.746  -7.294  42.824  0.00  0.00    +0.007 A 
ATOM     34  C   UNL     1      -2.433  -6.958  43.295  0.00  0.00    -0.029 A 
ATOM     35  C   UNL     1      -1.815  -7.813  44.426  0.00  0.00    +0.045 C 
ENDROOT
BRANCH  10   9
ATOM      4  C   UNL     1       3.028  -6.340  42.695  0.00  0.00    +0.077 A 
ATOM      5  C   UNL     1       2.967  -7.475  41.820  0.00  0.00    +0.048 A 
ATOM      6  C   UNL     1       1.688  -7.898  41.394  0.00  0.00    +0.116 A 
ATOM      7  N   UNL     1       0.561  -7.227  41.816  0.00  0.00    -0.223 NA
ATOM      8  C   UNL     1       0.655  -6.137  42.662  0.00  0.00    +0.220 A 
ATOM      9  N   UNL     1      -0.465  -5.443  43.093  0.00  0.00    -0.283 N 
ATOM     36  H   UNL     1      -0.355  -4.648  43.722  0.00  0.00    +0.155 HD
ATOM     37  N   UNL     1       1.864  -5.715  43.085  0.00  0.00    -0.214 NA
BRANCH   4   3
ATOM      1  C   UNL     1       5.774  -3.845  43.933  0.00  0.00    +0.020 A 
ATOM      2  C   UNL     1       4.521  -4.342  43.413  0.00  0.00    +0.013 A 
ATOM      3  C   UNL     1       4.306  -5.771  43.229  0.00  0.00    +0.019 A 
ATOM     38  C   UNL     1       5.387  -6.679  43.585  0.00  0.00    +0.120 A 
ATOM     39  N   UNL     1       6.583  -6.171  44.082  0.00  0.00    -0.263 NA
ATOM     40  C   UNL     1       6.802  -4.797  44.262  0.00  0.00    +0.111 A 
ENDBRANCH   4   3
ENDBRANCH  10   9
BRANCH  12  13
ATOM     13  N   UNL     1      -4.377  -4.722  40.104  0.00  0.00    -0.281 N 
ATOM     14  C   UNL     1      -5.000  -5.253  38.987  0.00  0.00    +0.248 C 
ATOM     30  O   UNL     1      -4.882  -6.411  38.615  0.00  0.00    -0.270 OA
ATOM     31  H   UNL     1      -4.401  -3.705  40.190  0.00  0.00    +0.155 HD
BRANCH  14  15
ATOM     15  C   UNL     1      -5.868  -4.367  38.154  0.00  0.00    +0.037 A 
ATOM     16  C   UNL     1      -6.754  -4.919  37.126  0.00  0.00    +0.013 A 
ATOM     17  C   UNL     1      -7.569  -4.040  36.325  0.00  0.00    +0.005 A 
ATOM     18  C   UNL     1      -7.503  -2.598  36.551  0.00  0.00    -0.033 A 
ATOM     28  C   UNL     1      -6.620  -2.077  37.582  0.00  0.00    +0.005 A 
ATOM     29  C   UNL     1      -5.819  -2.936  38.368  0.00  0.00    +0.013 A 
BRANCH  18  19
ATOM     19  C   UNL     1      -8.321  -1.584  35.729  0.00  0.00    +0.119 C 
BRANCH  19  20
ATOM     20  N   UNL     1      -7.799  -1.219  34.379  0.00  0.00    -0.302 NA
ATOM     21  C   UNL     1      -6.314  -0.848  34.417  0.00  0.00    +0.066 C 
ATOM     22  C   UNL     1      -5.779  -0.491  32.992  0.00  0.00    -0.064 C 
ATOM     23  N   UNL     1      -6.609   0.655  32.412  0.00  0.00    +0.379 N 
ATOM     24  C   UNL     1      -6.072   1.032  31.096  0.00  0.00    -0.096 C 
ATOM     25  H   UNL     1      -6.493   1.533  33.089  0.00  0.00    -0.082 HD
ATOM     26  C   UNL     1      -8.087   0.296  32.372  0.00  0.00    -0.064 C 
ATOM     27  C   UNL     1      -8.601  -0.086  33.788  0.00  0.00    +0.066 C 
ENDBRANCH  19  20
ENDBRANCH  18  19
ENDBRANCH  14  15
ENDBRANCH  12  13
TORSDOF 6
ENDMDL
MODEL 5
REMARK VINA RESULT:      -9.4      8.249     12.493
REMARK  Name = C:\Users\Docking\Desktop\test protocol\1iep_ligandH.pdb
REMARK  8 active torsions:
REMARK  status: ('A' for Active; 'I' for Inactive)
REMARK    1  A    between atoms: _5  and  _11
REMARK    2  A    between atoms: _19  and  _21
REMARK    3  A    between atoms: _22  and  _66
REMARK    4  A    between atoms: _27  and  _30
REMARK    5  A    between atoms: _32  and  _33
REMARK    6  A    between atoms: _38  and  _43
REMARK    7  A    between atoms: _43  and  _46
REMARK    8  A    between atoms: _53  and  _55
REMARK                            x       y       z     vdW  Elec       q    Type
REMARK                         _______ _______ _______ _____ _____    ______ ____
ROOT
ATOM     10  C   UNL     1       6.260  10.207  36.197  0.00  0.00    +0.038 A 
ATOM     11  C   UNL     1       6.599  10.347  37.567  0.00  0.00    +0.047 A 
ATOM     12  C   UNL     1       5.851  11.238  38.440  0.00  0.00    +0.035 A 
ATOM     32  C   UNL     1       4.761  11.969  37.884  0.00  0.00    +0.024 A 
ATOM     33  C   UNL     1       4.403  11.839  36.494  0.00  0.00    +0.007 A 
ATOM     34  C   UNL     1       5.139  10.964  35.627  0.00  0.00    -0.029 A 
ATOM     35  C   UNL     1       4.715  10.869  34.143  0.00  0.00    +0.045 C 
ENDROOT
BRANCH  10   9
ATOM      4  C   UNL     1       9.945   9.266  33.268  0.00  0.00    +0.077 A 
ATOM      5  C   UNL     1      10.393  10.629  33.298  0.00  0.00    +0.048 A 
ATOM      6  C   UNL     1       9.644  11.541  34.074  0.00  0.00    +0.116 A 
ATOM      7  N   UNL     1       8.530  11.113  34.764  0.00  0.00    -0.223 NA
ATOM      8  C   UNL     1       8.124   9.792  34.712  0.00  0.00    +0.220 A 
ATOM      9  N   UNL     1       7.013   9.337  35.404  0.00  0.00    -0.283 N 
ATOM     36  H   UNL     1       6.741   8.357  35.334  0.00  0.00    +0.155 HD
ATOM     37  N   UNL     1       8.822   8.901  33.977  0.00  0.00    -0.214 NA
BRANCH   4   3
ATOM      1  C   UNL     1      12.617   6.706  32.001  0.00  0.00    +0.020 A 
ATOM      2  C   UNL     1      11.999   7.757  32.776  0.00  0.00    +0.013 A 
ATOM      3  C   UNL     1      10.633   8.183  32.497  0.00  0.00    +0.019 A 
ATOM     38  C   UNL     1       9.915   7.519  31.420  0.00  0.00    +0.120 A 
ATOM     39  N   UNL     1      10.536   6.510  30.690  0.00  0.00    -0.263 NA
ATOM     40  C   UNL     1      11.851   6.094  30.948  0.00  0.00    +0.111 A 
ENDBRANCH   4   3
ENDBRANCH  10   9
BRANCH  12  13
ATOM     13  N   UNL     1       6.154  11.428  39.836  0.00  0.00    -0.281 N 
ATOM     14  C   UNL     1       7.076  12.296  40.398  0.00  0.00    +0.248 C 
ATOM     30  O   UNL     1       7.937  12.892  39.767  0.00  0.00    -0.270 OA
ATOM     31  H   UNL     1       5.624  10.852  40.491  0.00  0.00    +0.155 HD
BRANCH  14  15
ATOM     15  C   UNL     1       7.048  12.524  41.874  0.00  0.00    +0.037 A 
ATOM     16  C   UNL     1       5.781  12.633  42.602  0.00  0.00    +0.013 A 
ATOM     17  C   UNL     1       5.782  12.870  44.024  0.00  0.00    +0.005 A 
ATOM     18  C   UNL     1       7.055  12.998  44.728  0.00  0.00    -0.033 A 
ATOM     28  C   UNL     1       8.297  12.880  43.982  0.00  0.00    +0.005 A 
ATOM     29  C   UNL     1       8.301  12.649  42.588  0.00  0.00    +0.013 A 
BRANCH  18  19
ATOM     19  C   UNL     1       7.151  13.273  46.240  0.00  0.00    +0.119 C 
BRANCH  19  20
ATOM     20  N   UNL     1       6.563  14.551  46.742  0.00  0.00    -0.302 NA
ATOM     21  C   UNL     1       5.124  14.368  47.233  0.00  0.00    +0.066 C 
ATOM     22  C   UNL     1       4.533  15.709  47.775  0.00  0.00    -0.064 C 
ATOM     23  N   UNL     1       4.599  16.773  46.677  0.00  0.00    +0.379 N 
ATOM     24  C   UNL     1       3.991  18.020  47.164  0.00  0.00    -0.096 C 
ATOM     25  H   UNL     1       3.988  16.411  45.818  0.00  0.00    -0.082 HD
ATOM     26  C   UNL     1       6.026  16.960  46.181  0.00  0.00    -0.064 C 
ATOM     27  C   UNL     1       6.615  15.614  45.673  0.00  0.00    +0.066 C 
ENDBRANCH  19  20
ENDBRANCH  18  19
ENDBRANCH  14  15
ENDBRANCH  12  13
TORSDOF 6
ENDMDL
