MODEL 1
REMARK VINA RESULT:     -10.6      0.000      0.000
REMARK  Name = C:\Users\Docking\Desktop\test protocol\1iep_ligandH.pdb
REMARK  8 active torsions:
REMARK  status: ('A' for Active; 'I' for Inactive)
REMARK    1  A    between atoms: _5  and  _11
REMARK    2  A    between atoms: _19  and  _21
REMARK    3  A    between atoms: _22  and  _66
REMARK    4  A    between atoms: _27  and  _30
REMARK    5  A    between atoms: _32  and  _33
REMARK    6  A    between atoms: _38  and  _43
REMARK    7  A    between atoms: _43  and  _46
REMARK    8  A    between atoms: _53  and  _55
REMARK                            x       y       z     vdW  Elec       q    Type
REMARK                         _______ _______ _______ _____ _____    ______ ____
ROOT
ATOM     10  C   UNL     1       7.869  10.043  31.509  0.00  0.00    +0.038 A 
ATOM     11  C   UNL     1       6.584   9.471  31.689  0.00  0.00    +0.047 A 
ATOM     12  C   UNL     1       5.488   9.781  30.783  0.00  0.00    +0.035 A 
ATOM     32  C   UNL     1       5.738  10.675  29.702  0.00  0.00    +0.024 A 
ATOM     33  C   UNL     1       7.039  11.266  29.504  0.00  0.00    +0.007 A 
ATOM     34  C   UNL     1       8.122  10.967  30.396  0.00  0.00    -0.029 A 
ATOM     35  C   UNL     1       9.493  11.634  30.140  0.00  0.00    +0.045 C 
ENDROOT
BRANCH  10   9
ATOM      4  C   UNL     1      11.534   7.287  32.926  0.00  0.00    +0.077 A 
ATOM      5  C   UNL     1      11.398   6.420  31.791  0.00  0.00    +0.048 A 
ATOM      6  C   UNL     1      10.368   6.714  30.870  0.00  0.00    +0.116 A 
ATOM      7  N   UNL     1       9.541   7.797  31.078  0.00  0.00    -0.223 NA
ATOM      8  C   UNL     1       9.699   8.612  32.184  0.00  0.00    +0.220 A 
ATOM      9  N   UNL     1       8.884   9.711  32.408  0.00  0.00    -0.283 N 
ATOM     36  H   UNL     1       9.028  10.283  33.240  0.00  0.00    +0.155 HD
ATOM     37  N   UNL     1      10.674   8.352  33.079  0.00  0.00    -0.214 NA
BRANCH   4   3
ATOM      1  C   UNL     1      13.354   7.141  36.385  0.00  0.00    +0.020 A 
ATOM      2  C   UNL     1      12.312   7.327  35.402  0.00  0.00    +0.013 A 
ATOM      3  C   UNL     1      12.577   7.110  33.985  0.00  0.00    +0.019 A 
ATOM     38  C   UNL     1      13.918   6.701  33.594  0.00  0.00    +0.120 A 
ATOM     39  N   UNL     1      14.902   6.531  34.562  0.00  0.00    -0.263 NA
ATOM     40  C   UNL     1      14.659   6.739  35.928  0.00  0.00    +0.111 A 
ENDBRANCH   4   3
ENDBRANCH  10   9
BRANCH  12  13
ATOM     13  N   UNL     1       4.160   9.237  30.921  0.00  0.00    -0.281 N 
ATOM     14  C   UNL     1       3.567   8.237  30.167  0.00  0.00    +0.248 C 
ATOM     30  O   UNL     1       4.017   7.804  29.117  0.00  0.00    -0.270 OA
ATOM     31  H   UNL     1       3.588   9.637  31.664  0.00  0.00    +0.155 HD
BRANCH  14  15
ATOM     15  C   UNL     1       2.281   7.642  30.642  0.00  0.00    +0.037 A 
ATOM     16  C   UNL     1       1.664   6.510  29.945  0.00  0.00    +0.013 A 
ATOM     17  C   UNL     1       0.414   5.966  30.414  0.00  0.00    +0.005 A 
ATOM     18  C   UNL     1      -0.227   6.553  31.588  0.00  0.00    -0.033 A 
ATOM     28  C   UNL     1       0.409   7.672  32.263  0.00  0.00    +0.005 A 
ATOM     29  C   UNL     1       1.634   8.209  31.806  0.00  0.00    +0.013 A 
BRANCH  18  19
ATOM     19  C   UNL     1      -1.572   6.051  32.146  0.00  0.00    +0.119 C 
BRANCH  19  20
ATOM     20  N   UNL     1      -2.576   5.550  31.161  0.00  0.00    -0.302 NA
ATOM     21  C   UNL     1      -2.831   6.558  30.037  0.00  0.00    +0.066 C 
ATOM     22  C   UNL     1      -3.867   6.008  29.003  0.00  0.00    -0.064 C 
ATOM     23  N   UNL     1      -5.170   5.662  29.726  0.00  0.00    +0.379 N 
ATOM     24  C   UNL     1      -6.166   5.200  28.749  0.00  0.00    -0.096 C 
ATOM     25  H   UNL     1      -5.559   6.599  30.189  0.00  0.00    -0.082 HD
ATOM     26  C   UNL     1      -4.925   4.662  30.847  0.00  0.00    -0.064 C 
ATOM     27  C   UNL     1      -3.872   5.206  31.853  0.00  0.00    +0.066 C 
ENDBRANCH  19  20
ENDBRANCH  18  19
ENDBRANCH  14  15
ENDBRANCH  12  13
TORSDOF 6
ENDMDL
MODEL 2
REMARK VINA RESULT:     -10.0     10.082     15.953
REMARK  Name = C:\Users\Docking\Desktop\test protocol\1iep_ligandH.pdb
REMARK  8 active torsions:
REMARK  status: ('A' for Active; 'I' for Inactive)
REMARK    1  A    between atoms: _5  and  _11
REMARK    2  A    between atoms: _19  and  _21
REMARK    3  A    between atoms: _22  and  _66
REMARK    4  A    between atoms: _27  and  _30
REMARK    5  A    between atoms: _32  and  _33
REMARK    6  A    between atoms: _38  and  _43
REMARK    7  A    between atoms: _43  and  _46
REMARK    8  A    between atoms: _53  and  _55
REMARK                            x       y       z     vdW  Elec       q    Type
REMARK                         _______ _______ _______ _____ _____    ______ ____
ROOT
ATOM     10  C   UNL     1      13.377   9.274  35.297  0.00  0.00    +0.038 A 
ATOM     11  C   UNL     1      13.977   8.705  36.449  0.00  0.00    +0.047 A 
ATOM     12  C   UNL     1      14.227   7.275  36.540  0.00  0.00    +0.035 A 
ATOM     32  C   UNL     1      13.855   6.453  35.436  0.00  0.00    +0.024 A 
ATOM     33  C   UNL     1      13.243   7.014  34.258  0.00  0.00    +0.007 A 
ATOM     34  C   UNL     1      12.991   8.424  34.164  0.00  0.00    -0.029 A 
ATOM     35  C   UNL     1      12.326   8.969  32.878  0.00  0.00    +0.045 C 
ENDROOT
BRANCH  10   9
ATOM      4  C   UNL     1      10.819  13.184  36.394  0.00  0.00    +0.077 A 
ATOM      5  C   UNL     1       9.816  12.411  37.069  0.00  0.00    +0.048 A 
ATOM      6  C   UNL     1       9.992  11.009  37.104  0.00  0.00    +0.116 A 
ATOM      7  N   UNL     1      11.093  10.435  36.507  0.00  0.00    -0.223 NA
ATOM      8  C   UNL     1      12.041  11.209  35.864  0.00  0.00    +0.220 A 
ATOM      9  N   UNL     1      13.160  10.653  35.263  0.00  0.00    -0.283 N 
ATOM     36  H   UNL     1      13.832  11.258  34.792  0.00  0.00    +0.155 HD
ATOM     37  N   UNL     1      11.895  12.549  35.815  0.00  0.00    -0.214 NA
BRANCH   4   3
ATOM      1  C   UNL     1      11.069  17.003  37.203  0.00  0.00    +0.020 A 
ATOM      2  C   UNL     1      11.127  15.569  37.371  0.00  0.00    +0.013 A 
ATOM      3  C   UNL     1      10.776  14.676  36.275  0.00  0.00    +0.019 A 
ATOM     38  C   UNL     1      10.367  15.270  35.011  0.00  0.00    +0.120 A 
ATOM     39  N   UNL     1      10.318  16.654  34.879  0.00  0.00    -0.263 NA
ATOM     40  C   UNL     1      10.653  17.524  35.928  0.00  0.00    +0.111 A 
ENDBRANCH   4   3
ENDBRANCH  10   9
BRANCH  12  13
ATOM     13  N   UNL     1      14.826   6.640  37.688  0.00  0.00    -0.281 N 
ATOM     14  C   UNL     1      16.171   6.551  38.006  0.00  0.00    +0.248 C 
ATOM     30  O   UNL     1      17.083   6.819  37.237  0.00  0.00    -0.270 OA
ATOM     31  H   UNL     1      14.180   6.204  38.345  0.00  0.00    +0.155 HD
BRANCH  14  15
ATOM     15  C   UNL     1      16.561   6.081  39.370  0.00  0.00    +0.037 A 
ATOM     16  C   UNL     1      15.920   4.915  39.984  0.00  0.00    +0.013 A 
ATOM     17  C   UNL     1      16.303   4.493  41.308  0.00  0.00    +0.005 A 
ATOM     18  C   UNL     1      17.333   5.238  42.027  0.00  0.00    -0.033 A 
ATOM     28  C   UNL     1      17.956   6.388  41.393  0.00  0.00    +0.005 A 
ATOM     29  C   UNL     1      17.583   6.805  40.095  0.00  0.00    +0.013 A 
BRANCH  18  19
ATOM     19  C   UNL     1      17.789   4.872  43.452  0.00  0.00    +0.119 C 
BRANCH  19  20
ATOM     20  N   UNL     1      17.027   3.800  44.160  0.00  0.00    -0.302 NA
ATOM     21  C   UNL     1      16.800   4.136  45.636  0.00  0.00    +0.066 C 
ATOM     22  C   UNL     1      15.981   3.015  46.356  0.00  0.00    -0.064 C 
ATOM     23  N   UNL     1      16.713   1.680  46.211  0.00  0.00    +0.379 N 
ATOM     24  C   UNL     1      15.976   0.635  46.936  0.00  0.00    -0.096 C 
ATOM     25  H   UNL     1      17.712   1.787  46.695  0.00  0.00    -0.082 HD
ATOM     26  C   UNL     1      16.945   1.339  44.745  0.00  0.00    -0.064 C 
ATOM     27  C   UNL     1      17.734   2.473  44.033  0.00  0.00    +0.066 C 
ENDBRANCH  19  20
ENDBRANCH  18  19
ENDBRANCH  14  15
ENDBRANCH  12  13
TORSDOF 6
ENDMDL
MODEL 3
REMARK VINA RESULT:      -9.9      7.733     11.860
REMARK  Name = C:\Users\Docking\Desktop\test protocol\1iep_ligandH.pdb
REMARK  8 active torsions:
REMARK  status: ('A' for Active; 'I' for Inactive)
REMARK    1  A    between atoms: _5  and  _11
REMARK    2  A    between atoms: _19  and  _21
REMARK    3  A    between atoms: _22  and  _66
REMARK    4  A    between atoms: _27  and  _30
REMARK    5  A    between atoms: _32  and  _33
REMARK    6  A    between atoms: _38  and  _43
REMARK    7  A    between atoms: _43  and  _46
REMARK    8  A    between atoms: _53  and  _55
REMARK                            x       y       z     vdW  Elec       q    Type
REMARK                         _______ _______ _______ _____ _____    ______ ____
ROOT
ATOM     10  C   UNL     1       6.480  11.283  33.076  0.00  0.00    +0.038 A 
ATOM     11  C   UNL     1       6.547  11.116  34.483  0.00  0.00    +0.047 A 
ATOM     12  C   UNL     1       5.656  11.846  35.371  0.00  0.00    +0.035 A 
ATOM     32  C   UNL     1       4.706  12.737  34.792  0.00  0.00    +0.024 A 
ATOM     33  C   UNL     1       4.624  12.920  33.364  0.00  0.00    +0.007 A 
ATOM     34  C   UNL     1       5.503  12.204  32.484  0.00  0.00    -0.029 A 
ATOM     35  C   UNL     1       5.375  12.444  30.961  0.00  0.00    +0.045 C 
ENDROOT
BRANCH  10   9
ATOM      4  C   UNL     1       7.426   7.805  29.907  0.00  0.00    +0.077 A 
ATOM      5  C   UNL     1       6.055   7.381  29.874  0.00  0.00    +0.048 A 
ATOM      6  C   UNL     1       5.140   8.080  30.693  0.00  0.00    +0.116 A 
ATOM      7  N   UNL     1       5.574   9.124  31.482  0.00  0.00    -0.223 NA
ATOM      8  C   UNL     1       6.903   9.506  31.491  0.00  0.00    +0.220 A 
ATOM      9  N   UNL     1       7.360  10.557  32.271  0.00  0.00    -0.283 N 
ATOM     36  H   UNL     1       8.349  10.803  32.255  0.00  0.00    +0.155 HD
ATOM     37  N   UNL     1       7.797   8.853  30.719  0.00  0.00    -0.214 NA
BRANCH   4   3
ATOM      1  C   UNL     1       9.469   6.306  26.927  0.00  0.00    +0.020 A 
ATOM      2  C   UNL     1       8.391   6.924  27.664  0.00  0.00    +0.013 A 
ATOM      3  C   UNL     1       8.511   7.168  29.096  0.00  0.00    +0.019 A 
ATOM     38  C   UNL     1       9.745   6.772  29.757  0.00  0.00    +0.120 A 
ATOM     39  N   UNL     1      10.766   6.177  29.022  0.00  0.00    -0.263 NA
ATOM     40  C   UNL     1      10.661   5.937  27.644  0.00  0.00    +0.111 A 
ENDBRANCH   4   3
ENDBRANCH  10   9
BRANCH  12  13
ATOM     13  N   UNL     1       5.684  11.723  36.808  0.00  0.00    -0.281 N 
ATOM     14  C   UNL     1       6.785  11.775  37.646  0.00  0.00    +0.248 C 
ATOM     30  O   UNL     1       7.946  11.722  37.266  0.00  0.00    -0.270 OA
ATOM     31  H   UNL     1       4.781  11.580  37.262  0.00  0.00    +0.155 HD
BRANCH  14  15
ATOM     15  C   UNL     1       6.566  11.888  39.120  0.00  0.00    +0.037 A 
ATOM     16  C   UNL     1       5.235  11.713  39.706  0.00  0.00    +0.013 A 
ATOM     17  C   UNL     1       5.048  11.845  41.130  0.00  0.00    +0.005 A 
ATOM     18  C   UNL     1       6.198  12.151  41.977  0.00  0.00    -0.033 A 
ATOM     28  C   UNL     1       7.508  12.315  41.370  0.00  0.00    +0.005 A 
ATOM     29  C   UNL     1       7.695  12.188  39.975  0.00  0.00    +0.013 A 
BRANCH  18  19
ATOM     19  C   UNL     1       6.088  12.330  43.503  0.00  0.00    +0.119 C 
BRANCH  19  20
ATOM     20  N   UNL     1       6.884  13.432  44.122  0.00  0.00    -0.302 NA
ATOM     21  C   UNL     1       8.086  12.901  44.907  0.00  0.00    +0.066 C 
ATOM     22  C   UNL     1       8.921  14.068  45.529  0.00  0.00    -0.064 C 
ATOM     23  N   UNL     1       8.017  14.915  46.427  0.00  0.00    +0.379 N 
ATOM     24  C   UNL     1       8.812  15.978  47.059  0.00  0.00    -0.096 C 
ATOM     25  H   UNL     1       7.632  14.254  47.238  0.00  0.00    -0.082 HD
ATOM     26  C   UNL     1       6.818  15.445  45.655  0.00  0.00    -0.064 C 
ATOM     27  C   UNL     1       6.012  14.278  45.017  0.00  0.00    +0.066 C 
ENDBRANCH  19  20
ENDBRANCH  18  19
ENDBRANCH  14  15
ENDBRANCH  12  13
TORSDOF 6
ENDMDL
MODEL 4
REMARK VINA RESULT:      -9.8      7.082     15.718
REMARK  Name = C:\Users\Docking\Desktop\test protocol\1iep_ligandH.pdb
REMARK  8 active torsions:
REMARK  status: ('A' for Active; 'I' for Inactive)
REMARK    1  A    between atoms: _5  and  _11
REMARK    2  A    between atoms: _19  and  _21
REMARK    3  A    between atoms: _22  and  _66
REMARK    4  A    between atoms: _27  and  _30
REMARK    5  A    between atoms: _32  and  _33
REMARK    6  A    between atoms: _38  and  _43
REMARK    7  A    between atoms: _43  and  _46
REMARK    8  A    between atoms: _53  and  _55
REMARK                            x       y       z     vdW  Elec       q    Type
REMARK                         _______ _______ _______ _____ _____    ______ ____
ROOT
ATOM     10  C   UNL     1       9.770  10.583  34.310  0.00  0.00    +0.038 A 
ATOM     11  C   UNL     1      10.912  11.417  34.421  0.00  0.00    +0.047 A 
ATOM     12  C   UNL     1      11.392  11.868  35.718  0.00  0.00    +0.035 A 
ATOM     32  C   UNL     1      10.685  11.449  36.882  0.00  0.00    +0.024 A 
ATOM     33  C   UNL     1       9.522  10.602  36.788  0.00  0.00    +0.007 A 
ATOM     34  C   UNL     1       9.043  10.156  35.511  0.00  0.00    -0.029 A 
ATOM     35  C   UNL     1       7.787   9.254  35.469  0.00  0.00    +0.045 C 
ENDROOT
BRANCH  10   9
ATOM      4  C   UNL     1       9.715   7.455  30.669  0.00  0.00    +0.077 A 
ATOM      5  C   UNL     1      10.613   6.563  31.345  0.00  0.00    +0.048 A 
ATOM      6  C   UNL     1      11.071   6.949  32.624  0.00  0.00    +0.116 A 
ATOM      7  N   UNL     1      10.656   8.141  33.177  0.00  0.00    -0.223 NA
ATOM      8  C   UNL     1       9.791   8.979  32.498  0.00  0.00    +0.220 A 
ATOM      9  N   UNL     1       9.354  10.179  33.039  0.00  0.00    -0.283 N 
ATOM     36  H   UNL     1       8.722  10.773  32.503  0.00  0.00    +0.155 HD
ATOM     37  N   UNL     1       9.340   8.634  31.275  0.00  0.00    -0.214 NA
BRANCH   4   3
ATOM      1  C   UNL     1       9.275   6.248  26.975  0.00  0.00    +0.020 A 
ATOM      2  C   UNL     1       9.875   6.483  28.268  0.00  0.00    +0.013 A 
ATOM      3  C   UNL     1       9.142   7.186  29.313  0.00  0.00    +0.019 A 
ATOM     38  C   UNL     1       7.792   7.640  29.015  0.00  0.00    +0.120 A 
ATOM     39  N   UNL     1       7.240   7.401  27.761  0.00  0.00    -0.263 NA
ATOM     40  C   UNL     1       7.937   6.727  26.746  0.00  0.00    +0.111 A 
ENDBRANCH   4   3
ENDBRANCH  10   9
BRANCH  12  13
ATOM     13  N   UNL     1      12.540  12.722  35.892  0.00  0.00    -0.281 N 
ATOM     14  C   UNL     1      13.871  12.419  35.652  0.00  0.00    +0.248 C 
ATOM     30  O   UNL     1      14.298  11.292  35.453  0.00  0.00    -0.270 OA
ATOM     31  H   UNL     1      12.350  13.664  36.233  0.00  0.00    +0.155 HD
BRANCH  14  15
ATOM     15  C   UNL     1      14.874  13.527  35.646  0.00  0.00    +0.037 A 
ATOM     16  C   UNL     1      15.646  13.847  34.443  0.00  0.00    +0.013 A 
ATOM     17  C   UNL     1      16.620  14.910  34.470  0.00  0.00    +0.005 A 
ATOM     18  C   UNL     1      16.825  15.662  35.706  0.00  0.00    -0.033 A 
ATOM     28  C   UNL     1      16.041  15.327  36.883  0.00  0.00    +0.005 A 
ATOM     29  C   UNL     1      15.087  14.285  36.861  0.00  0.00    +0.013 A 
BRANCH  18  19
ATOM     19  C   UNL     1      17.857  16.798  35.831  0.00  0.00    +0.119 C 
BRANCH  19  20
ATOM     20  N   UNL     1      19.223  16.431  36.311  0.00  0.00    -0.302 NA
ATOM     21  C   UNL     1      20.161  17.640  36.354  0.00  0.00    +0.066 C 
ATOM     22  C   UNL     1      21.579  17.243  36.879  0.00  0.00    -0.064 C 
ATOM     23  N   UNL     1      22.158  16.140  35.991  0.00  0.00    +0.379 N 
ATOM     24  C   UNL     1      23.515  15.804  36.447  0.00  0.00    -0.096 C 
ATOM     25  H   UNL     1      22.239  16.547  34.956  0.00  0.00    -0.082 HD
ATOM     26  C   UNL     1      21.230  14.934  35.940  0.00  0.00    -0.064 C 
ATOM     27  C   UNL     1      19.815  15.346  35.445  0.00  0.00    +0.066 C 
ENDBRANCH  19  20
ENDBRANCH  18  19
ENDBRANCH  14  15
ENDBRANCH  12  13
TORSDOF 6
ENDMDL
MODEL 5
REMARK VINA RESULT:      -9.7     13.876     17.305
REMARK  Name = C:\Users\Docking\Desktop\test protocol\1iep_ligandH.pdb
REMARK  8 active torsions:
REMARK  status: ('A' for Active; 'I' for Inactive)
REMARK    1  A    between atoms: _5  and  _11
REMARK    2  A    between atoms: _19  and  _21
REMARK    3  A    between atoms: _22  and  _66
REMARK    4  A    between atoms: _27  and  _30
REMARK    5  A    between atoms: _32  and  _33
REMARK    6  A    between atoms: _38  and  _43
REMARK    7  A    between atoms: _43  and  _46
REMARK    8  A    between atoms: _53  and  _55
REMARK                            x       y       z     vdW  Elec       q    Type
REMARK                         _______ _______ _______ _____ _____    ______ ____
ROOT
ATOM     10  C   UNL     1      -1.820  -5.708  42.667  0.00  0.00    +0.038 A 
ATOM     11  C   UNL     1      -2.448  -4.954  41.642  0.00  0.00    +0.047 A 
ATOM     12  C   UNL     1      -3.797  -5.265  41.197  0.00  0.00    +0.035 A 
ATOM     32  C   UNL     1      -4.480  -6.351  41.819  0.00  0.00    +0.024 A 
ATOM     33  C   UNL     1      -3.857  -7.128  42.861  0.00  0.00    +0.007 A 
ATOM     34  C   UNL     1      -2.525  -6.827  43.303  0.00  0.00    -0.029 A 
ATOM     35  C   UNL     1      -1.905  -7.699  44.419  0.00  0.00    +0.045 C 
ENDROOT
BRANCH  10   9
ATOM      4  C   UNL     1       2.925  -6.428  42.677  0.00  0.00    +0.077 A 
ATOM      5  C   UNL     1       2.808  -7.603  41.862  0.00  0.00    +0.048 A 
ATOM      6  C   UNL     1       1.508  -7.992  41.467  0.00  0.00    +0.116 A 
ATOM      7  N   UNL     1       0.414  -7.254  41.863  0.00  0.00    -0.223 NA
ATOM      8  C   UNL     1       0.562  -6.127  42.651  0.00  0.00    +0.220 A 
ATOM      9  N   UNL     1      -0.523  -5.365  43.055  0.00  0.00    -0.283 N 
ATOM     36  H   UNL     1      -0.373  -4.545  43.642  0.00  0.00    +0.155 HD
ATOM     37  N   UNL     1       1.793  -5.735  43.043  0.00  0.00    -0.214 NA
BRANCH   4   3
ATOM      1  C   UNL     1       5.761  -3.995  43.831  0.00  0.00    +0.020 A 
ATOM      2  C   UNL     1       4.483  -4.464  43.350  0.00  0.00    +0.013 A 
ATOM      3  C   UNL     1       4.231  -5.888  43.172  0.00  0.00    +0.019 A 
ATOM     38  C   UNL     1       5.302  -6.819  43.493  0.00  0.00    +0.120 A 
ATOM     39  N   UNL     1       6.524  -6.338  43.953  0.00  0.00    -0.263 NA
ATOM     40  C   UNL     1       6.778  -4.969  44.127  0.00  0.00    +0.111 A 
ENDBRANCH   4   3
ENDBRANCH  10   9
BRANCH  12  13
ATOM     13  N   UNL     1      -4.482  -4.540  40.156  0.00  0.00    -0.281 N 
ATOM     14  C   UNL     1      -5.004  -5.038  38.973  0.00  0.00    +0.248 C 
ATOM     30  O   UNL     1      -4.771  -6.152  38.530  0.00  0.00    -0.270 OA
ATOM     31  H   UNL     1      -4.596  -3.538  40.310  0.00  0.00    +0.155 HD
BRANCH  14  15
ATOM     15  C   UNL     1      -5.902  -4.166  38.157  0.00  0.00    +0.037 A 
ATOM     16  C   UNL     1      -6.668  -4.706  37.031  0.00  0.00    +0.013 A 
ATOM     17  C   UNL     1      -7.515  -3.840  36.250  0.00  0.00    +0.005 A 
ATOM     18  C   UNL     1      -7.600  -2.422  36.593  0.00  0.00    -0.033 A 
ATOM     28  C   UNL     1      -6.834  -1.913  37.719  0.00  0.00    +0.005 A 
ATOM     29  C   UNL     1      -6.002  -2.760  38.486  0.00  0.00    +0.013 A 
BRANCH  18  19
ATOM     19  C   UNL     1      -8.462  -1.420  35.802  0.00  0.00    +0.119 C 
BRANCH  19  20
ATOM     20  N   UNL     1      -7.937  -0.962  34.481  0.00  0.00    -0.302 NA
ATOM     21  C   UNL     1      -6.425  -0.722  34.516  0.00  0.00    +0.066 C 
ATOM     22  C   UNL     1      -5.889  -0.264  33.120  0.00  0.00    -0.064 C 
ATOM     23  N   UNL     1      -6.628   1.002  32.683  0.00  0.00    +0.379 N 
ATOM     24  C   UNL     1      -6.087   1.467  31.398  0.00  0.00    -0.096 C 
ATOM     25  H   UNL     1      -6.424   1.792  33.443  0.00  0.00    -0.082 HD
ATOM     26  C   UNL     1      -8.133   0.773  32.649  0.00  0.00    -0.064 C 
ATOM     27  C   UNL     1      -8.650   0.290  34.032  0.00  0.00    +0.066 C 
ENDBRANCH  19  20
ENDBRANCH  18  19
ENDBRANCH  14  15
ENDBRANCH  12  13
TORSDOF 6
ENDMDL
