MODEL 1
REMARK VINA RESULT:      -8.0      0.000      0.000
REMARK  Name = C:\Users\Docking\Desktop\test protocol\1iep_ligandH.pdb
REMARK  8 active torsions:
REMARK  status: ('A' for Active; 'I' for Inactive)
REMARK    1  A    between atoms: _5  and  _11
REMARK    2  A    between atoms: _19  and  _21
REMARK    3  A    between atoms: _22  and  _66
REMARK    4  A    between atoms: _27  and  _30
REMARK    5  A    between atoms: _32  and  _33
REMARK    6  A    between atoms: _38  and  _43
REMARK    7  A    between atoms: _43  and  _46
REMARK    8  A    between atoms: _53  and  _55
REMARK                            x       y       z     vdW  Elec       q    Type
REMARK                         _______ _______ _______ _____ _____    ______ ____
ROOT
ATOM     10  C   UNL     1      36.528  22.408   1.750  0.00  0.00    +0.038 A 
ATOM     11  C   UNL     1      36.445  21.415   2.760  0.00  0.00    +0.047 A 
ATOM     12  C   UNL     1      35.231  21.237   3.542  0.00  0.00    +0.035 A 
ATOM     32  C   UNL     1      34.120  22.086   3.267  0.00  0.00    +0.024 A 
ATOM     33  C   UNL     1      34.187  23.101   2.245  0.00  0.00    +0.007 A 
ATOM     34  C   UNL     1      35.383  23.283   1.472  0.00  0.00    -0.029 A 
ATOM     35  C   UNL     1      35.401  24.390   0.393  0.00  0.00    +0.045 C 
ENDROOT
BRANCH  10   9
ATOM      4  C   UNL     1      40.700  24.590   0.820  0.00  0.00    +0.077 A 
ATOM      5  C   UNL     1      40.479  25.577   1.838  0.00  0.00    +0.048 A 
ATOM      6  C   UNL     1      39.275  25.492   2.573  0.00  0.00    +0.116 A 
ATOM      7  N   UNL     1      38.369  24.490   2.303  0.00  0.00    -0.223 NA
ATOM      8  C   UNL     1      38.612  23.555   1.313  0.00  0.00    +0.220 A 
ATOM      9  N   UNL     1      37.718  22.535   1.030  0.00  0.00    -0.283 N 
ATOM     36  H   UNL     1      37.931  21.869   0.287  0.00  0.00    +0.155 HD
ATOM     37  N   UNL     1      39.753  23.616   0.596  0.00  0.00    -0.214 NA
BRANCH   4   3
ATOM      1  C   UNL     1      44.418  24.343  -0.371  0.00  0.00    +0.020 A 
ATOM      2  C   UNL     1      43.268  24.381   0.503  0.00  0.00    +0.013 A 
ATOM      3  C   UNL     1      41.925  24.545  -0.039  0.00  0.00    +0.019 A 
ATOM     38  C   UNL     1      41.780  24.669  -1.482  0.00  0.00    +0.120 A 
ATOM     39  N   UNL     1      42.905  24.631  -2.298  0.00  0.00    -0.263 NA
ATOM     40  C   UNL     1      44.203  24.475  -1.788  0.00  0.00    +0.111 A 
ENDBRANCH   4   3
ENDBRANCH  10   9
BRANCH  12  13
ATOM     13  N   UNL     1      35.091  20.252   4.586  0.00  0.00    -0.281 N 
ATOM     14  C   UNL     1      34.157  20.222   5.609  0.00  0.00    +0.248 C 
ATOM     30  O   UNL     1      33.430  21.157   5.908  0.00  0.00    -0.270 OA
ATOM     31  H   UNL     1      35.762  19.484   4.568  0.00  0.00    +0.155 HD
BRANCH  14  15
ATOM     15  C   UNL     1      34.022  18.978   6.426  0.00  0.00    +0.037 A 
ATOM     16  C   UNL     1      33.420  19.009   7.762  0.00  0.00    +0.013 A 
ATOM     17  C   UNL     1      33.318  17.797   8.537  0.00  0.00    +0.005 A 
ATOM     18  C   UNL     1      33.817  16.544   7.976  0.00  0.00    -0.033 A 
ATOM     28  C   UNL     1      34.404  16.542   6.646  0.00  0.00    +0.005 A 
ATOM     29  C   UNL     1      34.508  17.727   5.885  0.00  0.00    +0.013 A 
BRANCH  18  19
ATOM     19  C   UNL     1      33.767  15.208   8.740  0.00  0.00    +0.119 C 
BRANCH  19  20
ATOM     20  N   UNL     1      34.927  14.282   8.574  0.00  0.00    -0.302 NA
ATOM     21  C   UNL     1      34.495  12.906   8.060  0.00  0.00    +0.066 C 
ATOM     22  C   UNL     1      35.723  11.957   7.871  0.00  0.00    -0.064 C 
ATOM     23  N   UNL     1      36.474  11.829   9.197  0.00  0.00    +0.379 N 
ATOM     24  C   UNL     1      37.596  10.892   9.038  0.00  0.00    -0.096 C 
ATOM     25  H   UNL     1      35.771  11.391   9.943  0.00  0.00    -0.082 HD
ATOM     26  C   UNL     1      36.906  13.193   9.716  0.00  0.00    -0.064 C 
ATOM     27  C   UNL     1      35.681  14.138   9.873  0.00  0.00    +0.066 C 
ENDBRANCH  19  20
ENDBRANCH  18  19
ENDBRANCH  14  15
ENDBRANCH  12  13
TORSDOF 6
ENDMDL
MODEL 2
REMARK VINA RESULT:      -7.9      9.072     16.022
REMARK  Name = C:\Users\Docking\Desktop\test protocol\1iep_ligandH.pdb
REMARK  8 active torsions:
REMARK  status: ('A' for Active; 'I' for Inactive)
REMARK    1  A    between atoms: _5  and  _11
REMARK    2  A    between atoms: _19  and  _21
REMARK    3  A    between atoms: _22  and  _66
REMARK    4  A    between atoms: _27  and  _30
REMARK    5  A    between atoms: _32  and  _33
REMARK    6  A    between atoms: _38  and  _43
REMARK    7  A    between atoms: _43  and  _46
REMARK    8  A    between atoms: _53  and  _55
REMARK                            x       y       z     vdW  Elec       q    Type
REMARK                         _______ _______ _______ _____ _____    ______ ____
ROOT
ATOM     10  C   UNL     1      49.205  23.076  -8.888  0.00  0.00    +0.038 A 
ATOM     11  C   UNL     1      48.233  23.300  -7.879  0.00  0.00    +0.047 A 
ATOM     12  C   UNL     1      47.342  22.236  -7.444  0.00  0.00    +0.035 A 
ATOM     32  C   UNL     1      47.469  20.955  -8.056  0.00  0.00    +0.024 A 
ATOM     33  C   UNL     1      48.450  20.710  -9.083  0.00  0.00    +0.007 A 
ATOM     34  C   UNL     1      49.330  21.756  -9.519  0.00  0.00    -0.029 A 
ATOM     35  C   UNL     1      50.359  21.439 -10.629  0.00  0.00    +0.045 C 
ENDROOT
BRANCH  10   9
ATOM      4  C   UNL     1      53.372  25.452  -8.729  0.00  0.00    +0.077 A 
ATOM      5  C   UNL     1      53.933  24.524  -7.791  0.00  0.00    +0.048 A 
ATOM      6  C   UNL     1      53.114  23.453  -7.368  0.00  0.00    +0.116 A 
ATOM      7  N   UNL     1      51.831  23.329  -7.855  0.00  0.00    -0.223 NA
ATOM      8  C   UNL     1      51.320  24.243  -8.758  0.00  0.00    +0.220 A 
ATOM      9  N   UNL     1      50.035  24.133  -9.267  0.00  0.00    -0.283 N 
ATOM     36  H   UNL     1      49.692  24.832  -9.926  0.00  0.00    +0.155 HD
ATOM     37  N   UNL     1      52.081  25.275  -9.176  0.00  0.00    -0.214 NA
BRANCH   4   3
ATOM      1  C   UNL     1      56.228  27.940  -9.707  0.00  0.00    +0.020 A 
ATOM      2  C   UNL     1      55.560  26.779  -9.165  0.00  0.00    +0.013 A 
ATOM      3  C   UNL     1      54.114  26.634  -9.272  0.00  0.00    +0.019 A 
ATOM     38  C   UNL     1      53.367  27.689  -9.940  0.00  0.00    +0.120 A 
ATOM     39  N   UNL     1      54.037  28.796 -10.451  0.00  0.00    -0.263 NA
ATOM     40  C   UNL     1      55.428  28.947 -10.352  0.00  0.00    +0.111 A 
ENDBRANCH   4   3
ENDBRANCH  10   9
BRANCH  12  13
ATOM     13  N   UNL     1      46.331  22.406  -6.430  0.00  0.00    -0.281 N 
ATOM     14  C   UNL     1      44.978  22.647  -6.607  0.00  0.00    +0.248 C 
ATOM     30  O   UNL     1      44.467  22.967  -7.671  0.00  0.00    -0.270 OA
ATOM     31  H   UNL     1      46.651  22.342  -5.463  0.00  0.00    +0.155 HD
BRANCH  14  15
ATOM     15  C   UNL     1      44.063  22.531  -5.431  0.00  0.00    +0.037 A 
ATOM     16  C   UNL     1      43.380  23.704  -4.881  0.00  0.00    +0.013 A 
ATOM     17  C   UNL     1      42.516  23.566  -3.735  0.00  0.00    +0.005 A 
ATOM     18  C   UNL     1      42.329  22.248  -3.133  0.00  0.00    -0.033 A 
ATOM     28  C   UNL     1      43.015  21.100  -3.703  0.00  0.00    +0.005 A 
ATOM     29  C   UNL     1      43.864  21.232  -4.825  0.00  0.00    +0.013 A 
BRANCH  18  19
ATOM     19  C   UNL     1      41.443  22.011  -1.896  0.00  0.00    +0.119 C 
BRANCH  19  20
ATOM     20  N   UNL     1      40.997  23.216  -1.134  0.00  0.00    -0.302 NA
ATOM     21  C   UNL     1      41.968  23.574  -0.006  0.00  0.00    +0.066 C 
ATOM     22  C   UNL     1      41.498  24.849   0.767  0.00  0.00    -0.064 C 
ATOM     23  N   UNL     1      40.089  24.619   1.317  0.00  0.00    +0.379 N 
ATOM     24  C   UNL     1      39.667  25.794   2.093  0.00  0.00    -0.096 C 
ATOM     25  H   UNL     1      40.138  23.751   2.016  0.00  0.00    -0.082 HD
ATOM     26  C   UNL     1      39.118  24.259   0.202  0.00  0.00    -0.064 C 
ATOM     27  C   UNL     1      39.610  23.008  -0.578  0.00  0.00    +0.066 C 
ENDBRANCH  19  20
ENDBRANCH  18  19
ENDBRANCH  14  15
ENDBRANCH  12  13
TORSDOF 6
ENDMDL
MODEL 3
REMARK VINA RESULT:      -7.9     19.592     22.736
REMARK  Name = C:\Users\Docking\Desktop\test protocol\1iep_ligandH.pdb
REMARK  8 active torsions:
REMARK  status: ('A' for Active; 'I' for Inactive)
REMARK    1  A    between atoms: _5  and  _11
REMARK    2  A    between atoms: _19  and  _21
REMARK    3  A    between atoms: _22  and  _66
REMARK    4  A    between atoms: _27  and  _30
REMARK    5  A    between atoms: _32  and  _33
REMARK    6  A    between atoms: _38  and  _43
REMARK    7  A    between atoms: _43  and  _46
REMARK    8  A    between atoms: _53  and  _55
REMARK                            x       y       z     vdW  Elec       q    Type
REMARK                         _______ _______ _______ _____ _____    ______ ____
ROOT
ATOM     10  C   UNL     1      40.273  17.657  26.340  0.00  0.00    +0.038 A 
ATOM     11  C   UNL     1      41.096  17.526  25.192  0.00  0.00    +0.047 A 
ATOM     12  C   UNL     1      41.698  16.250  24.839  0.00  0.00    +0.035 A 
ATOM     32  C   UNL     1      41.438  15.126  25.677  0.00  0.00    +0.024 A 
ATOM     33  C   UNL     1      40.605  15.241  26.848  0.00  0.00    +0.007 A 
ATOM     34  C   UNL     1      40.010  16.498  27.202  0.00  0.00    -0.029 A 
ATOM     35  C   UNL     1      39.131  16.565  28.472  0.00  0.00    +0.045 C 
ENDROOT
BRANCH  10   9
ATOM      4  C   UNL     1      36.856  20.992  25.852  0.00  0.00    +0.077 A 
ATOM      5  C   UNL     1      36.123  20.189  24.916  0.00  0.00    +0.048 A 
ATOM      6  C   UNL     1      36.663  18.927  24.582  0.00  0.00    +0.116 A 
ATOM      7  N   UNL     1      37.848  18.509  25.147  0.00  0.00    -0.223 NA
ATOM      8  C   UNL     1      38.531  19.309  26.045  0.00  0.00    +0.220 A 
ATOM      9  N   UNL     1      39.720  18.906  26.631  0.00  0.00    -0.283 N 
ATOM     36  H   UNL     1      40.197  19.528  27.283  0.00  0.00    +0.155 HD
ATOM     37  N   UNL     1      38.037  20.519  26.379  0.00  0.00    -0.214 NA
BRANCH   4   3
ATOM      1  C   UNL     1      35.906  24.786  25.906  0.00  0.00    +0.020 A 
ATOM      2  C   UNL     1      36.341  23.499  25.416  0.00  0.00    +0.013 A 
ATOM      3  C   UNL     1      36.413  22.347  26.307  0.00  0.00    +0.019 A 
ATOM     38  C   UNL     1      36.033  22.534  27.700  0.00  0.00    +0.120 A 
ATOM     39  N   UNL     1      35.620  23.786  28.144  0.00  0.00    -0.263 NA
ATOM     40  C   UNL     1      35.548  24.901  27.296  0.00  0.00    +0.111 A 
ENDBRANCH   4   3
ENDBRANCH  10   9
BRANCH  12  13
ATOM     13  N   UNL     1      42.548  16.058  23.691  0.00  0.00    -0.281 N 
ATOM     14  C   UNL     1      43.932  16.110  23.638  0.00  0.00    +0.248 C 
ATOM     30  O   UNL     1      44.642  16.542  24.533  0.00  0.00    -0.270 OA
ATOM     31  H   UNL     1      42.073  15.860  22.810  0.00  0.00    +0.155 HD
BRANCH  14  15
ATOM     15  C   UNL     1      44.626  15.625  22.406  0.00  0.00    +0.037 A 
ATOM     16  C   UNL     1      44.015  15.770  21.082  0.00  0.00    +0.013 A 
ATOM     17  C   UNL     1      44.698  15.278  19.913  0.00  0.00    +0.005 A 
ATOM     18  C   UNL     1      46.002  14.636  20.062  0.00  0.00    -0.033 A 
ATOM     28  C   UNL     1      46.587  14.510  21.386  0.00  0.00    +0.005 A 
ATOM     29  C   UNL     1      45.920  14.990  22.535  0.00  0.00    +0.013 A 
BRANCH  18  19
ATOM     19  C   UNL     1      46.793  14.063  18.871  0.00  0.00    +0.119 C 
BRANCH  19  20
ATOM     20  N   UNL     1      46.769  12.581  18.684  0.00  0.00    -0.302 NA
ATOM     21  C   UNL     1      45.459  11.961  19.179  0.00  0.00    +0.066 C 
ATOM     22  C   UNL     1      45.442  10.414  18.955  0.00  0.00    -0.064 C 
ATOM     23  N   UNL     1      46.641   9.785  19.666  0.00  0.00    +0.379 N 
ATOM     24  C   UNL     1      46.596   8.324  19.506  0.00  0.00    -0.096 C 
ATOM     25  H   UNL     1      46.545  10.009  20.754  0.00  0.00    -0.082 HD
ATOM     26  C   UNL     1      47.948  10.398  19.182  0.00  0.00    -0.064 C 
ATOM     27  C   UNL     1      47.943  11.939  19.382  0.00  0.00    +0.066 C 
ENDBRANCH  19  20
ENDBRANCH  18  19
ENDBRANCH  14  15
ENDBRANCH  12  13
TORSDOF 6
ENDMDL
MODEL 4
REMARK VINA RESULT:      -7.8     19.862     22.815
REMARK  Name = C:\Users\Docking\Desktop\test protocol\1iep_ligandH.pdb
REMARK  8 active torsions:
REMARK  status: ('A' for Active; 'I' for Inactive)
REMARK    1  A    between atoms: _5  and  _11
REMARK    2  A    between atoms: _19  and  _21
REMARK    3  A    between atoms: _22  and  _66
REMARK    4  A    between atoms: _27  and  _30
REMARK    5  A    between atoms: _32  and  _33
REMARK    6  A    between atoms: _38  and  _43
REMARK    7  A    between atoms: _43  and  _46
REMARK    8  A    between atoms: _53  and  _55
REMARK                            x       y       z     vdW  Elec       q    Type
REMARK                         _______ _______ _______ _____ _____    ______ ____
ROOT
ATOM     10  C   UNL     1      43.310  15.535  24.977  0.00  0.00    +0.038 A 
ATOM     11  C   UNL     1      42.237  16.414  24.679  0.00  0.00    +0.047 A 
ATOM     12  C   UNL     1      41.804  17.422  25.634  0.00  0.00    +0.035 A 
ATOM     32  C   UNL     1      42.488  17.510  26.881  0.00  0.00    +0.024 A 
ATOM     33  C   UNL     1      43.579  16.624  27.201  0.00  0.00    +0.007 A 
ATOM     34  C   UNL     1      44.010  15.625  26.264  0.00  0.00    -0.029 A 
ATOM     35  C   UNL     1      45.181  14.698  26.662  0.00  0.00    +0.045 C 
ENDROOT
BRANCH  10   9
ATOM      4  C   UNL     1      45.394  14.287  20.837  0.00  0.00    +0.077 A 
ATOM      5  C   UNL     1      45.743  15.646  20.535  0.00  0.00    +0.048 A 
ATOM      6  C   UNL     1      45.362  16.636  21.468  0.00  0.00    +0.116 A 
ATOM      7  N   UNL     1      44.683  16.283  22.614  0.00  0.00    -0.223 NA
ATOM      8  C   UNL     1      44.360  14.964  22.874  0.00  0.00    +0.220 A 
ATOM      9  N   UNL     1      43.684  14.585  24.023  0.00  0.00    -0.283 N 
ATOM     36  H   UNL     1      43.458  13.603  24.175  0.00  0.00    +0.155 HD
ATOM     37  N   UNL     1      44.712  13.999  21.998  0.00  0.00    -0.214 NA
BRANCH   4   3
ATOM      1  C   UNL     1      47.361  11.701  18.659  0.00  0.00    +0.020 A 
ATOM      2  C   UNL     1      47.089  12.834  19.514  0.00  0.00    +0.013 A 
ATOM      3  C   UNL     1      45.731  13.128  19.952  0.00  0.00    +0.019 A 
ATOM     38  C   UNL     1      44.661  12.249  19.504  0.00  0.00    +0.120 A 
ATOM     39  N   UNL     1      44.952  11.166  18.680  0.00  0.00    -0.263 NA
ATOM     40  C   UNL     1      46.255  10.874  18.251  0.00  0.00    +0.111 A 
ENDBRANCH   4   3
ENDBRANCH  10   9
BRANCH  12  13
ATOM     13  N   UNL     1      40.716  18.337  25.391  0.00  0.00    -0.281 N 
ATOM     14  C   UNL     1      39.357  18.088  25.488  0.00  0.00    +0.248 C 
ATOM     30  O   UNL     1      38.863  16.975  25.594  0.00  0.00    -0.270 OA
ATOM     31  H   UNL     1      40.980  19.282  25.113  0.00  0.00    +0.155 HD
BRANCH  14  15
ATOM     15  C   UNL     1      38.407  19.242  25.449  0.00  0.00    +0.037 A 
ATOM     16  C   UNL     1      37.533  19.468  24.295  0.00  0.00    +0.013 A 
ATOM     17  C   UNL     1      36.639  20.598  24.275  0.00  0.00    +0.005 A 
ATOM     18  C   UNL     1      36.613  21.511  25.416  0.00  0.00    -0.033 A 
ATOM     28  C   UNL     1      37.487  21.260  26.550  0.00  0.00    +0.005 A 
ATOM     29  C   UNL     1      38.366  20.154  26.572  0.00  0.00    +0.013 A 
BRANCH  18  19
ATOM     19  C   UNL     1      35.706  22.754  25.472  0.00  0.00    +0.119 C 
BRANCH  19  20
ATOM     20  N   UNL     1      35.217  23.185  26.816  0.00  0.00    -0.302 NA
ATOM     21  C   UNL     1      34.003  22.372  27.273  0.00  0.00    +0.066 C 
ATOM     22  C   UNL     1      33.519  22.820  28.690  0.00  0.00    -0.064 C 
ATOM     23  N   UNL     1      33.193  24.314  28.666  0.00  0.00    +0.379 N 
ATOM     24  C   UNL     1      32.682  24.726  29.982  0.00  0.00    -0.096 C 
ATOM     25  H   UNL     1      32.377  24.470  27.923  0.00  0.00    -0.082 HD
ATOM     26  C   UNL     1      34.395  25.130  28.210  0.00  0.00    -0.064 C 
ATOM     27  C   UNL     1      34.886  24.657  26.814  0.00  0.00    +0.066 C 
ENDBRANCH  19  20
ENDBRANCH  18  19
ENDBRANCH  14  15
ENDBRANCH  12  13
TORSDOF 6
ENDMDL
MODEL 5
REMARK VINA RESULT:      -7.8     19.655     22.996
REMARK  Name = C:\Users\Docking\Desktop\test protocol\1iep_ligandH.pdb
REMARK  8 active torsions:
REMARK  status: ('A' for Active; 'I' for Inactive)
REMARK    1  A    between atoms: _5  and  _11
REMARK    2  A    between atoms: _19  and  _21
REMARK    3  A    between atoms: _22  and  _66
REMARK    4  A    between atoms: _27  and  _30
REMARK    5  A    between atoms: _32  and  _33
REMARK    6  A    between atoms: _38  and  _43
REMARK    7  A    between atoms: _43  and  _46
REMARK    8  A    between atoms: _53  and  _55
REMARK                            x       y       z     vdW  Elec       q    Type
REMARK                         _______ _______ _______ _____ _____    ______ ____
ROOT
ATOM     10  C   UNL     1      39.707  15.918  23.985  0.00  0.00    +0.038 A 
ATOM     11  C   UNL     1      39.405  17.285  24.213  0.00  0.00    +0.047 A 
ATOM     12  C   UNL     1      38.445  17.685  25.230  0.00  0.00    +0.035 A 
ATOM     32  C   UNL     1      37.814  16.665  26.001  0.00  0.00    +0.024 A 
ATOM     33  C   UNL     1      38.108  15.271  25.782  0.00  0.00    +0.007 A 
ATOM     34  C   UNL     1      39.052  14.871  24.778  0.00  0.00    -0.029 A 
ATOM     35  C   UNL     1      39.324  13.361  24.583  0.00  0.00    +0.045 C 
ENDROOT
BRANCH  10   9
ATOM      4  C   UNL     1      44.209  15.540  22.365  0.00  0.00    +0.077 A 
ATOM      5  C   UNL     1      44.754  16.064  23.584  0.00  0.00    +0.048 A 
ATOM      6  C   UNL     1      43.842  16.425  24.601  0.00  0.00    +0.116 A 
ATOM      7  N   UNL     1      42.487  16.269  24.402  0.00  0.00    -0.223 NA
ATOM      8  C   UNL     1      41.994  15.763  23.213  0.00  0.00    +0.220 A 
ATOM      9  N   UNL     1      40.636  15.591  22.995  0.00  0.00    -0.283 N 
ATOM     36  H   UNL     1      40.312  15.221  22.102  0.00  0.00    +0.155 HD
ATOM     37  N   UNL     1      42.845  15.412  22.227  0.00  0.00    -0.214 NA
BRANCH   4   3
ATOM      1  C   UNL     1      46.423  15.586  19.140  0.00  0.00    +0.020 A 
ATOM      2  C   UNL     1      45.623  16.053  20.249  0.00  0.00    +0.013 A 
ATOM      3  C   UNL     1      45.044  15.111  21.199  0.00  0.00    +0.019 A 
ATOM     38  C   UNL     1      45.296  13.692  20.997  0.00  0.00    +0.120 A 
ATOM     39  N   UNL     1      46.069  13.272  19.919  0.00  0.00    -0.263 NA
ATOM     40  C   UNL     1      46.630  14.169  18.998  0.00  0.00    +0.111 A 
ENDBRANCH   4   3
ENDBRANCH  10   9
BRANCH  12  13
ATOM     13  N   UNL     1      38.093  19.057  25.501  0.00  0.00    -0.281 N 
ATOM     14  C   UNL     1      36.929  19.721  25.151  0.00  0.00    +0.248 C 
ATOM     30  O   UNL     1      36.100  19.294  24.361  0.00  0.00    -0.270 OA
ATOM     31  H   UNL     1      38.785  19.604  26.012  0.00  0.00    +0.155 HD
BRANCH  14  15
ATOM     15  C   UNL     1      36.653  21.061  25.754  0.00  0.00    +0.037 A 
ATOM     16  C   UNL     1      36.584  21.240  27.206  0.00  0.00    +0.013 A 
ATOM     17  C   UNL     1      36.300  22.540  27.762  0.00  0.00    +0.005 A 
ATOM     18  C   UNL     1      36.084  23.671  26.863  0.00  0.00    -0.033 A 
ATOM     28  C   UNL     1      36.164  23.466  25.426  0.00  0.00    +0.005 A 
ATOM     29  C   UNL     1      36.441  22.194  24.878  0.00  0.00    +0.013 A 
BRANCH  18  19
ATOM     19  C   UNL     1      35.755  25.089  27.367  0.00  0.00    +0.119 C 
BRANCH  19  20
ATOM     20  N   UNL     1      34.665  25.218  28.381  0.00  0.00    -0.302 NA
ATOM     21  C   UNL     1      33.293  25.409  27.728  0.00  0.00    +0.066 C 
ATOM     22  C   UNL     1      32.163  25.520  28.802  0.00  0.00    -0.064 C 
ATOM     23  N   UNL     1      32.477  26.677  29.752  0.00  0.00    +0.379 N 
ATOM     24  C   UNL     1      31.386  26.821  30.728  0.00  0.00    -0.096 C 
ATOM     25  H   UNL     1      32.513  27.612  29.145  0.00  0.00    -0.082 HD
ATOM     26  C   UNL     1      33.840  26.497  30.403  0.00  0.00    -0.064 C 
ATOM     27  C   UNL     1      34.953  26.358  29.326  0.00  0.00    +0.066 C 
ENDBRANCH  19  20
ENDBRANCH  18  19
ENDBRANCH  14  15
ENDBRANCH  12  13
TORSDOF 6
ENDMDL
