MODEL 1
REMARK VINA RESULT:     -10.4      0.000      0.000
REMARK  Name = C:\Users\Docking\Desktop\test protocol\1iep_ligandH.pdb
REMARK  8 active torsions:
REMARK  status: ('A' for Active; 'I' for Inactive)
REMARK    1  A    between atoms: _5  and  _11
REMARK    2  A    between atoms: _19  and  _21
REMARK    3  A    between atoms: _22  and  _66
REMARK    4  A    between atoms: _27  and  _30
REMARK    5  A    between atoms: _32  and  _33
REMARK    6  A    between atoms: _38  and  _43
REMARK    7  A    between atoms: _43  and  _46
REMARK    8  A    between atoms: _53  and  _55
REMARK                            x       y       z     vdW  Elec       q    Type
REMARK                         _______ _______ _______ _____ _____    ______ ____
ROOT
ATOM     10  C   UNL     1      13.446   8.342  35.276  0.00  0.00    +0.038 A 
ATOM     11  C   UNL     1      14.027   7.904  36.494  0.00  0.00    +0.047 A 
ATOM     12  C   UNL     1      14.559   6.557  36.631  0.00  0.00    +0.035 A 
ATOM     32  C   UNL     1      14.485   5.683  35.507  0.00  0.00    +0.024 A 
ATOM     33  C   UNL     1      13.897   6.112  34.263  0.00  0.00    +0.007 A 
ATOM     34  C   UNL     1      13.369   7.439  34.122  0.00  0.00    -0.029 A 
ATOM     35  C   UNL     1      12.744   7.843  32.766  0.00  0.00    +0.045 C 
ENDROOT
BRANCH  10   9
ATOM      4  C   UNL     1       9.888  11.546  35.619  0.00  0.00    +0.077 A 
ATOM      5  C   UNL     1       8.929  10.533  35.952  0.00  0.00    +0.048 A 
ATOM      6  C   UNL     1       9.390   9.199  36.018  0.00  0.00    +0.116 A 
ATOM      7  N   UNL     1      10.714   8.911  35.768  0.00  0.00    -0.223 NA
ATOM      8  C   UNL     1      11.613   9.912  35.447  0.00  0.00    +0.220 A 
ATOM      9  N   UNL     1      12.951   9.646  35.200  0.00  0.00    -0.283 N 
ATOM     36  H   UNL     1      13.581  10.411  34.959  0.00  0.00    +0.155 HD
ATOM     37  N   UNL     1      11.197  11.193  35.376  0.00  0.00    -0.214 NA
BRANCH   4   3
ATOM      1  C   UNL     1       8.640  15.159  36.446  0.00  0.00    +0.020 A 
ATOM      2  C   UNL     1       8.941  13.755  36.599  0.00  0.00    +0.013 A 
ATOM      3  C   UNL     1       9.555  13.002  35.513  0.00  0.00    +0.019 A 
ATOM     38  C   UNL     1       9.856  13.706  34.275  0.00  0.00    +0.120 A 
ATOM     39  N   UNL     1       9.553  15.059  34.156  0.00  0.00    -0.263 NA
ATOM     40  C   UNL     1       8.960  15.793  35.194  0.00  0.00    +0.111 A 
ENDBRANCH   4   3
ENDBRANCH  10   9
BRANCH  12  13
ATOM     13  N   UNL     1      15.152   6.053  37.845  0.00  0.00    -0.281 N 
ATOM     14  C   UNL     1      16.420   6.307  38.342  0.00  0.00    +0.248 C 
ATOM     30  O   UNL     1      17.318   6.839  37.706  0.00  0.00    -0.270 OA
ATOM     31  H   UNL     1      14.567   5.434  38.405  0.00  0.00    +0.155 HD
BRANCH  14  15
ATOM     15  C   UNL     1      16.742   5.897  39.743  0.00  0.00    +0.037 A 
ATOM     16  C   UNL     1      15.927   4.907  40.451  0.00  0.00    +0.013 A 
ATOM     17  C   UNL     1      16.249   4.542  41.808  0.00  0.00    +0.005 A 
ATOM     18  C   UNL     1      17.394   5.168  42.465  0.00  0.00    -0.033 A 
ATOM     28  C   UNL     1      18.189   6.143  41.737  0.00  0.00    +0.005 A 
ATOM     29  C   UNL     1      17.875   6.504  40.408  0.00  0.00    +0.013 A 
BRANCH  18  19
ATOM     19  C   UNL     1      17.798   4.855  43.918  0.00  0.00    +0.119 C 
BRANCH  19  20
ATOM     20  N   UNL     1      17.156   3.673  44.567  0.00  0.00    -0.302 NA
ATOM     21  C   UNL     1      16.993   3.865  46.077  0.00  0.00    +0.066 C 
ATOM     22  C   UNL     1      16.299   2.629  46.737  0.00  0.00    -0.064 C 
ATOM     23  N   UNL     1      17.114   1.370  46.436  0.00  0.00    +0.379 N 
ATOM     24  C   UNL     1      16.495   0.215  47.103  0.00  0.00    -0.096 C 
ATOM     25  H   UNL     1      18.128   1.511  46.875  0.00  0.00    -0.082 HD
ATOM     26  C   UNL     1      17.283   1.173  44.936  0.00  0.00    -0.064 C 
ATOM     27  C   UNL     1      17.947   2.419  44.286  0.00  0.00    +0.066 C 
ENDBRANCH  19  20
ENDBRANCH  18  19
ENDBRANCH  14  15
ENDBRANCH  12  13
TORSDOF 6
ENDMDL
MODEL 2
REMARK VINA RESULT:     -10.0      8.397     10.586
REMARK  Name = C:\Users\Docking\Desktop\test protocol\1iep_ligandH.pdb
REMARK  8 active torsions:
REMARK  status: ('A' for Active; 'I' for Inactive)
REMARK    1  A    between atoms: _5  and  _11
REMARK    2  A    between atoms: _19  and  _21
REMARK    3  A    between atoms: _22  and  _66
REMARK    4  A    between atoms: _27  and  _30
REMARK    5  A    between atoms: _32  and  _33
REMARK    6  A    between atoms: _38  and  _43
REMARK    7  A    between atoms: _43  and  _46
REMARK    8  A    between atoms: _53  and  _55
REMARK                            x       y       z     vdW  Elec       q    Type
REMARK                         _______ _______ _______ _____ _____    ______ ____
ROOT
ATOM     10  C   UNL     1       9.243  10.921  33.698  0.00  0.00    +0.038 A 
ATOM     11  C   UNL     1      10.470  11.588  33.949  0.00  0.00    +0.047 A 
ATOM     12  C   UNL     1      10.748  12.189  35.244  0.00  0.00    +0.035 A 
ATOM     32  C   UNL     1       9.755  12.091  36.262  0.00  0.00    +0.024 A 
ATOM     33  C   UNL     1       8.503  11.417  36.024  0.00  0.00    +0.007 A 
ATOM     34  C   UNL     1       8.222  10.824  34.748  0.00  0.00    -0.029 A 
ATOM     35  C   UNL     1       6.859  10.120  34.546  0.00  0.00    +0.045 C 
ENDROOT
BRANCH  10   9
ATOM      4  C   UNL     1       9.570   7.303  30.561  0.00  0.00    +0.077 A 
ATOM      5  C   UNL     1      10.250   6.466  31.508  0.00  0.00    +0.048 A 
ATOM      6  C   UNL     1      10.503   7.006  32.788  0.00  0.00    +0.116 A 
ATOM      7  N   UNL     1      10.101   8.290  33.089  0.00  0.00    -0.223 NA
ATOM      8  C   UNL     1       9.449   9.071  32.153  0.00  0.00    +0.220 A 
ATOM      9  N   UNL     1       9.029  10.361  32.436  0.00  0.00    -0.283 N 
ATOM     36  H   UNL     1       8.558  10.908  31.716  0.00  0.00    +0.155 HD
ATOM     37  N   UNL     1       9.197   8.578  30.922  0.00  0.00    -0.214 NA
BRANCH   4   3
ATOM      1  C   UNL     1       9.755   5.698  26.999  0.00  0.00    +0.020 A 
ATOM      2  C   UNL     1      10.133   6.087  28.338  0.00  0.00    +0.013 A 
ATOM      3  C   UNL     1       9.229   6.873  29.168  0.00  0.00    +0.019 A 
ATOM     38  C   UNL     1       7.939   7.249  28.611  0.00  0.00    +0.120 A 
ATOM     39  N   UNL     1       7.602   6.860  27.318  0.00  0.00    -0.263 NA
ATOM     40  C   UNL     1       8.465   6.106  26.508  0.00  0.00    +0.111 A 
ENDBRANCH   4   3
ENDBRANCH  10   9
BRANCH  12  13
ATOM     13  N   UNL     1      11.971  12.886  35.554  0.00  0.00    -0.281 N 
ATOM     14  C   UNL     1      13.217  12.342  35.822  0.00  0.00    +0.248 C 
ATOM     30  O   UNL     1      13.420  11.158  36.046  0.00  0.00    -0.270 OA
ATOM     31  H   UNL     1      11.912  13.904  35.579  0.00  0.00    +0.155 HD
BRANCH  14  15
ATOM     15  C   UNL     1      14.407  13.246  35.860  0.00  0.00    +0.037 A 
ATOM     16  C   UNL     1      14.786  13.951  37.087  0.00  0.00    +0.013 A 
ATOM     17  C   UNL     1      15.928  14.830  37.093  0.00  0.00    +0.005 A 
ATOM     18  C   UNL     1      16.701  15.008  35.865  0.00  0.00    -0.033 A 
ATOM     28  C   UNL     1      16.305  14.292  34.664  0.00  0.00    +0.005 A 
ATOM     29  C   UNL     1      15.186  13.431  34.654  0.00  0.00    +0.013 A 
BRANCH  18  19
ATOM     19  C   UNL     1      17.921  15.943  35.774  0.00  0.00    +0.119 C 
BRANCH  19  20
ATOM     20  N   UNL     1      19.273  15.313  35.856  0.00  0.00    -0.302 NA
ATOM     21  C   UNL     1      19.585  14.805  37.266  0.00  0.00    +0.066 C 
ATOM     22  C   UNL     1      20.993  14.128  37.329  0.00  0.00    -0.064 C 
ATOM     23  N   UNL     1      22.056  15.126  36.865  0.00  0.00    +0.379 N 
ATOM     24  C   UNL     1      23.387  14.512  36.977  0.00  0.00    -0.096 C 
ATOM     25  H   UNL     1      22.026  15.998  37.557  0.00  0.00    -0.082 HD
ATOM     26  C   UNL     1      21.752  15.638  35.464  0.00  0.00    -0.064 C 
ATOM     27  C   UNL     1      20.338  16.282  35.406  0.00  0.00    +0.066 C 
ENDBRANCH  19  20
ENDBRANCH  18  19
ENDBRANCH  14  15
ENDBRANCH  12  13
TORSDOF 6
ENDMDL
MODEL 3
REMARK VINA RESULT:      -9.8      1.663      2.619
REMARK  Name = C:\Users\Docking\Desktop\test protocol\1iep_ligandH.pdb
REMARK  8 active torsions:
REMARK  status: ('A' for Active; 'I' for Inactive)
REMARK    1  A    between atoms: _5  and  _11
REMARK    2  A    between atoms: _19  and  _21
REMARK    3  A    between atoms: _22  and  _66
REMARK    4  A    between atoms: _27  and  _30
REMARK    5  A    between atoms: _32  and  _33
REMARK    6  A    between atoms: _38  and  _43
REMARK    7  A    between atoms: _43  and  _46
REMARK    8  A    between atoms: _53  and  _55
REMARK                            x       y       z     vdW  Elec       q    Type
REMARK                         _______ _______ _______ _____ _____    ______ ____
ROOT
ATOM     10  C   UNL     1      11.602   9.410  34.907  0.00  0.00    +0.038 A 
ATOM     11  C   UNL     1      12.343   8.869  35.989  0.00  0.00    +0.047 A 
ATOM     12  C   UNL     1      13.014   7.584  35.873  0.00  0.00    +0.035 A 
ATOM     32  C   UNL     1      12.912   6.877  34.639  0.00  0.00    +0.024 A 
ATOM     33  C   UNL     1      12.162   7.412  33.530  0.00  0.00    +0.007 A 
ATOM     34  C   UNL     1      11.496   8.678  33.639  0.00  0.00    -0.029 A 
ATOM     35  C   UNL     1      10.701   9.200  32.420  0.00  0.00    +0.045 C 
ENDROOT
BRANCH  10   9
ATOM      4  C   UNL     1      11.512  14.192  34.510  0.00  0.00    +0.077 A 
ATOM      5  C   UNL     1      12.831  14.230  33.947  0.00  0.00    +0.048 A 
ATOM      6  C   UNL     1      13.502  12.997  33.784  0.00  0.00    +0.116 A 
ATOM      7  N   UNL     1      12.889  11.821  34.157  0.00  0.00    -0.223 NA
ATOM      8  C   UNL     1      11.616  11.820  34.698  0.00  0.00    +0.220 A 
ATOM      9  N   UNL     1      10.978  10.648  35.074  0.00  0.00    -0.283 N 
ATOM     36  H   UNL     1      10.041  10.691  35.476  0.00  0.00    +0.155 HD
ATOM     37  N   UNL     1      10.955  12.984  34.866  0.00  0.00    -0.214 NA
BRANCH   4   3
ATOM      1  C   UNL     1      10.350  17.784  35.535  0.00  0.00    +0.020 A 
ATOM      2  C   UNL     1      11.202  16.635  35.332  0.00  0.00    +0.013 A 
ATOM      3  C   UNL     1      10.674  15.411  34.742  0.00  0.00    +0.019 A 
ATOM     38  C   UNL     1       9.269  15.384  34.363  0.00  0.00    +0.120 A 
ATOM     39  N   UNL     1       8.473  16.506  34.572  0.00  0.00    -0.263 NA
ATOM     40  C   UNL     1       8.969  17.688  35.141  0.00  0.00    +0.111 A 
ENDBRANCH   4   3
ENDBRANCH  10   9
BRANCH  12  13
ATOM     13  N   UNL     1      13.774   6.981  36.939  0.00  0.00    -0.281 N 
ATOM     14  C   UNL     1      15.035   6.410  36.870  0.00  0.00    +0.248 C 
ATOM     30  O   UNL     1      15.614   6.138  35.829  0.00  0.00    -0.270 OA
ATOM     31  H   UNL     1      13.329   6.974  37.857  0.00  0.00    +0.155 HD
BRANCH  14  15
ATOM     15  C   UNL     1      15.748   6.079  38.141  0.00  0.00    +0.037 A 
ATOM     16  C   UNL     1      15.300   4.980  39.000  0.00  0.00    +0.013 A 
ATOM     17  C   UNL     1      15.996   4.693  40.229  0.00  0.00    +0.005 A 
ATOM     18  C   UNL     1      17.151   5.506  40.605  0.00  0.00    -0.033 A 
ATOM     28  C   UNL     1      17.577   6.587  39.731  0.00  0.00    +0.005 A 
ATOM     29  C   UNL     1      16.896   6.872  38.526  0.00  0.00    +0.013 A 
BRANCH  18  19
ATOM     19  C   UNL     1      17.941   5.285  41.909  0.00  0.00    +0.119 C 
BRANCH  19  20
ATOM     20  N   UNL     1      17.266   4.514  42.995  0.00  0.00    -0.302 NA
ATOM     21  C   UNL     1      17.071   5.354  44.260  0.00  0.00    +0.066 C 
ATOM     22  C   UNL     1      16.343   4.538  45.378  0.00  0.00    -0.064 C 
ATOM     23  N   UNL     1      17.145   3.273  45.686  0.00  0.00    +0.379 N 
ATOM     24  C   UNL     1      16.494   2.533  46.778  0.00  0.00    -0.096 C 
ATOM     25  H   UNL     1      18.152   3.590  46.046  0.00  0.00    -0.082 HD
ATOM     26  C   UNL     1      17.346   2.433  44.433  0.00  0.00    -0.064 C 
ATOM     27  C   UNL     1      18.043   3.262  43.318  0.00  0.00    +0.066 C 
ENDBRANCH  19  20
ENDBRANCH  18  19
ENDBRANCH  14  15
ENDBRANCH  12  13
TORSDOF 6
ENDMDL
MODEL 4
REMARK VINA RESULT:      -9.6      8.148     11.206
REMARK  Name = C:\Users\Docking\Desktop\test protocol\1iep_ligandH.pdb
REMARK  8 active torsions:
REMARK  status: ('A' for Active; 'I' for Inactive)
REMARK    1  A    between atoms: _5  and  _11
REMARK    2  A    between atoms: _19  and  _21
REMARK    3  A    between atoms: _22  and  _66
REMARK    4  A    between atoms: _27  and  _30
REMARK    5  A    between atoms: _32  and  _33
REMARK    6  A    between atoms: _38  and  _43
REMARK    7  A    between atoms: _43  and  _46
REMARK    8  A    between atoms: _53  and  _55
REMARK                            x       y       z     vdW  Elec       q    Type
REMARK                         _______ _______ _______ _____ _____    ______ ____
ROOT
ATOM     10  C   UNL     1       6.529   9.753  36.809  0.00  0.00    +0.038 A 
ATOM     11  C   UNL     1       6.903  10.082  38.137  0.00  0.00    +0.047 A 
ATOM     12  C   UNL     1       6.069  10.942  38.962  0.00  0.00    +0.035 A 
ATOM     32  C   UNL     1       4.859  11.447  38.404  0.00  0.00    +0.024 A 
ATOM     33  C   UNL     1       4.464  11.124  37.056  0.00  0.00    +0.007 A 
ATOM     34  C   UNL     1       5.283  10.278  36.236  0.00  0.00    -0.029 A 
ATOM     35  C   UNL     1       4.814   9.970  34.795  0.00  0.00    +0.045 C 
ENDROOT
BRANCH  10   9
ATOM      4  C   UNL     1      10.192   9.052  33.787  0.00  0.00    +0.077 A 
ATOM      5  C   UNL     1      10.439  10.460  33.668  0.00  0.00    +0.048 A 
ATOM      6  C   UNL     1       9.597  11.332  34.394  0.00  0.00    +0.116 A 
ATOM      7  N   UNL     1       8.586  10.822  35.179  0.00  0.00    -0.223 NA
ATOM      8  C   UNL     1       8.373   9.458  35.271  0.00  0.00    +0.220 A 
ATOM      9  N   UNL     1       7.367   8.923  36.061  0.00  0.00    -0.283 N 
ATOM     36  H   UNL     1       7.238   7.912  36.096  0.00  0.00    +0.155 HD
ATOM     37  N   UNL     1       9.163   8.606  34.586  0.00  0.00    -0.214 NA
BRANCH   4   3
ATOM      1  C   UNL     1      13.173   6.847  32.542  0.00  0.00    +0.020 A 
ATOM      2  C   UNL     1      12.441   7.876  33.245  0.00  0.00    +0.013 A 
ATOM      3  C   UNL     1      10.998   8.005  33.084  0.00  0.00    +0.019 A 
ATOM     38  C   UNL     1      10.320   7.070  32.199  0.00  0.00    +0.120 A 
ATOM     39  N   UNL     1      11.051   6.090  31.535  0.00  0.00    -0.263 NA
ATOM     40  C   UNL     1      12.440   5.957  31.681  0.00  0.00    +0.111 A 
ENDBRANCH   4   3
ENDBRANCH  10   9
BRANCH  12  13
ATOM     13  N   UNL     1       6.401  11.317  40.314  0.00  0.00    -0.281 N 
ATOM     14  C   UNL     1       7.294  12.290  40.733  0.00  0.00    +0.248 C 
ATOM     30  O   UNL     1       8.105  12.843  40.006  0.00  0.00    -0.270 OA
ATOM     31  H   UNL     1       5.920  10.803  41.052  0.00  0.00    +0.155 HD
BRANCH  14  15
ATOM     15  C   UNL     1       7.295  12.697  42.171  0.00  0.00    +0.037 A 
ATOM     16  C   UNL     1       6.216  13.516  42.730  0.00  0.00    +0.013 A 
ATOM     17  C   UNL     1       6.251  13.909  44.116  0.00  0.00    +0.005 A 
ATOM     18  C   UNL     1       7.369  13.483  44.954  0.00  0.00    -0.033 A 
ATOM     28  C   UNL     1       8.424  12.667  44.375  0.00  0.00    +0.005 A 
ATOM     29  C   UNL     1       8.394  12.280  43.017  0.00  0.00    +0.013 A 
BRANCH  18  19
ATOM     19  C   UNL     1       7.499  13.874  46.438  0.00  0.00    +0.119 C 
BRANCH  19  20
ATOM     20  N   UNL     1       6.390  13.466  47.352  0.00  0.00    -0.302 NA
ATOM     21  C   UNL     1       5.705  12.178  46.886  0.00  0.00    +0.066 C 
ATOM     22  C   UNL     1       4.563  11.754  47.865  0.00  0.00    -0.064 C 
ATOM     23  N   UNL     1       3.550  12.893  47.987  0.00  0.00    +0.379 N 
ATOM     24  C   UNL     1       2.444  12.476  48.862  0.00  0.00    -0.096 C 
ATOM     25  H   UNL     1       3.127  13.079  46.972  0.00  0.00    -0.082 HD
ATOM     26  C   UNL     1       4.223  14.178  48.447  0.00  0.00    -0.064 C 
ATOM     27  C   UNL     1       5.376  14.575  47.483  0.00  0.00    +0.066 C 
ENDBRANCH  19  20
ENDBRANCH  18  19
ENDBRANCH  14  15
ENDBRANCH  12  13
TORSDOF 6
ENDMDL
MODEL 5
REMARK VINA RESULT:      -9.6      1.309      2.014
REMARK  Name = C:\Users\Docking\Desktop\test protocol\1iep_ligandH.pdb
REMARK  8 active torsions:
REMARK  status: ('A' for Active; 'I' for Inactive)
REMARK    1  A    between atoms: _5  and  _11
REMARK    2  A    between atoms: _19  and  _21
REMARK    3  A    between atoms: _22  and  _66
REMARK    4  A    between atoms: _27  and  _30
REMARK    5  A    between atoms: _32  and  _33
REMARK    6  A    between atoms: _38  and  _43
REMARK    7  A    between atoms: _43  and  _46
REMARK    8  A    between atoms: _53  and  _55
REMARK                            x       y       z     vdW  Elec       q    Type
REMARK                         _______ _______ _______ _____ _____    ______ ____
ROOT
ATOM     10  C   UNL     1      12.228   9.389  34.940  0.00  0.00    +0.038 A 
ATOM     11  C   UNL     1      12.956   8.911  36.060  0.00  0.00    +0.047 A 
ATOM     12  C   UNL     1      13.440   7.540  36.113  0.00  0.00    +0.035 A 
ATOM     32  C   UNL     1      13.167   6.684  35.006  0.00  0.00    +0.024 A 
ATOM     33  C   UNL     1      12.428   7.154  33.861  0.00  0.00    +0.007 A 
ATOM     34  C   UNL     1      11.946   8.504  33.804  0.00  0.00    -0.029 A 
ATOM     35  C   UNL     1      11.153   8.952  32.554  0.00  0.00    +0.045 C 
ENDROOT
BRANCH  10   9
ATOM      4  C   UNL     1       9.007  12.777  36.028  0.00  0.00    +0.077 A 
ATOM      5  C   UNL     1       8.114  11.821  36.619  0.00  0.00    +0.048 A 
ATOM      6  C   UNL     1       8.518  10.468  36.616  0.00  0.00    +0.116 A 
ATOM      7  N   UNL     1       9.727  10.107  36.062  0.00  0.00    -0.223 NA
ATOM      8  C   UNL     1      10.564  11.053  35.499  0.00  0.00    +0.220 A 
ATOM      9  N   UNL     1      11.787  10.715  34.942  0.00  0.00    -0.283 N 
ATOM     36  H   UNL     1      12.372  11.441  34.530  0.00  0.00    +0.155 HD
ATOM     37  N   UNL     1      10.200  12.353  35.488  0.00  0.00    -0.214 NA
BRANCH   4   3
ATOM      1  C   UNL     1       8.906  16.508  34.858  0.00  0.00    +0.020 A 
ATOM      2  C   UNL     1       9.209  15.095  34.879  0.00  0.00    +0.013 A 
ATOM      3  C   UNL     1       8.722  14.245  35.958  0.00  0.00    +0.019 A 
ATOM     38  C   UNL     1       7.924  14.860  37.008  0.00  0.00    +0.120 A 
ATOM     39  N   UNL     1       7.649  16.223  36.962  0.00  0.00    -0.263 NA
ATOM     40  C   UNL     1       8.114  17.051  35.930  0.00  0.00    +0.111 A 
ENDBRANCH   4   3
ENDBRANCH  10   9
BRANCH  12  13
ATOM     13  N   UNL     1      14.177   6.996  37.226  0.00  0.00    -0.281 N 
ATOM     14  C   UNL     1      15.340   6.244  37.192  0.00  0.00    +0.248 C 
ATOM     30  O   UNL     1      15.808   5.742  36.181  0.00  0.00    -0.270 OA
ATOM     31  H   UNL     1      13.794   7.188  38.152  0.00  0.00    +0.155 HD
BRANCH  14  15
ATOM     15  C   UNL     1      16.081   6.003  38.467  0.00  0.00    +0.037 A 
ATOM     16  C   UNL     1      17.145   6.908  38.910  0.00  0.00    +0.013 A 
ATOM     17  C   UNL     1      17.856   6.642  40.135  0.00  0.00    +0.005 A 
ATOM     18  C   UNL     1      17.505   5.466  40.927  0.00  0.00    -0.033 A 
ATOM     28  C   UNL     1      16.442   4.588  40.467  0.00  0.00    +0.005 A 
ATOM     29  C   UNL     1      15.743   4.844  39.266  0.00  0.00    +0.013 A 
BRANCH  18  19
ATOM     19  C   UNL     1      18.225   5.094  42.237  0.00  0.00    +0.119 C 
BRANCH  19  20
ATOM     20  N   UNL     1      17.437   4.347  43.262  0.00  0.00    -0.302 NA
ATOM     21  C   UNL     1      17.282   5.144  44.560  0.00  0.00    +0.066 C 
ATOM     22  C   UNL     1      16.435   4.358  45.614  0.00  0.00    -0.064 C 
ATOM     23  N   UNL     1      17.094   3.004  45.885  0.00  0.00    +0.379 N 
ATOM     24  C   UNL     1      16.333   2.286  46.918  0.00  0.00    -0.096 C 
ATOM     25  H   UNL     1      18.114   3.200  46.291  0.00  0.00    -0.082 HD
ATOM     26  C   UNL     1      17.255   2.206  44.599  0.00  0.00    -0.064 C 
ATOM     27  C   UNL     1      18.072   3.009  43.548  0.00  0.00    +0.066 C 
ENDBRANCH  19  20
ENDBRANCH  18  19
ENDBRANCH  14  15
ENDBRANCH  12  13
TORSDOF 6
ENDMDL
