MODEL 1
REMARK VINA RESULT:     -11.3      0.000      0.000
REMARK  Name = C:\Users\Docking\Desktop\test protocol\1iep_ligandH.pdb
REMARK  8 active torsions:
REMARK  status: ('A' for Active; 'I' for Inactive)
REMARK    1  A    between atoms: _5  and  _11
REMARK    2  A    between atoms: _19  and  _21
REMARK    3  A    between atoms: _22  and  _66
REMARK    4  A    between atoms: _27  and  _30
REMARK    5  A    between atoms: _32  and  _33
REMARK    6  A    between atoms: _38  and  _43
REMARK    7  A    between atoms: _43  and  _46
REMARK    8  A    between atoms: _53  and  _55
REMARK                            x       y       z     vdW  Elec       q    Type
REMARK                         _______ _______ _______ _____ _____    ______ ____
ROOT
ATOM     10  C   UNL     1       3.978   7.981  31.647  0.00  0.00    +0.038 A 
ATOM     11  C   UNL     1       4.526   8.721  32.726  0.00  0.00    +0.047 A 
ATOM     12  C   UNL     1       3.673   9.468  33.637  0.00  0.00    +0.035 A 
ATOM     32  C   UNL     1       2.264   9.438  33.421  0.00  0.00    +0.024 A 
ATOM     33  C   UNL     1       1.690   8.692  32.329  0.00  0.00    +0.007 A 
ATOM     34  C   UNL     1       2.527   7.955  31.426  0.00  0.00    -0.029 A 
ATOM     35  C   UNL     1       1.857   7.179  30.268  0.00  0.00    +0.045 C 
ENDROOT
BRANCH  10   9
ATOM      4  C   UNL     1       7.776   7.761  28.721  0.00  0.00    +0.077 A 
ATOM      5  C   UNL     1       8.042   9.163  28.864  0.00  0.00    +0.048 A 
ATOM      6  C   UNL     1       7.174   9.907  29.694  0.00  0.00    +0.116 A 
ATOM      7  N   UNL     1       6.121   9.284  30.329  0.00  0.00    -0.223 NA
ATOM      8  C   UNL     1       5.891   7.930  30.168  0.00  0.00    +0.220 A 
ATOM      9  N   UNL     1       4.843   7.282  30.803  0.00  0.00    -0.283 N 
ATOM     36  H   UNL     1       4.703   6.283  30.653  0.00  0.00    +0.155 HD
ATOM     37  N   UNL     1       6.705   7.198  29.380  0.00  0.00    -0.214 NA
BRANCH   4   3
ATOM      1  C   UNL     1      10.596   5.335  27.511  0.00  0.00    +0.020 A 
ATOM      2  C   UNL     1       9.831   6.216  28.363  0.00  0.00    +0.013 A 
ATOM      3  C   UNL     1       8.605   6.840  27.881  0.00  0.00    +0.019 A 
ATOM     38  C   UNL     1       8.177   6.548  26.521  0.00  0.00    +0.120 A 
ATOM     39  N   UNL     1       8.934   5.696  25.724  0.00  0.00    -0.263 NA
ATOM     40  C   UNL     1      10.116   5.091  26.176  0.00  0.00    +0.111 A 
ENDBRANCH   4   3
ENDBRANCH  10   9
BRANCH  12  13
ATOM     13  N   UNL     1       4.174  10.243  34.745  0.00  0.00    -0.281 N 
ATOM     14  C   UNL     1       5.215   9.929  35.603  0.00  0.00    +0.248 C 
ATOM     30  O   UNL     1       5.738   8.827  35.680  0.00  0.00    -0.270 OA
ATOM     31  H   UNL     1       3.703  11.132  34.917  0.00  0.00    +0.155 HD
BRANCH  14  15
ATOM     15  C   UNL     1       5.741  10.987  36.518  0.00  0.00    +0.037 A 
ATOM     16  C   UNL     1       4.957  11.462  37.661  0.00  0.00    +0.013 A 
ATOM     17  C   UNL     1       5.481  12.496  38.518  0.00  0.00    +0.005 A 
ATOM     18  C   UNL     1       6.798  13.062  38.234  0.00  0.00    -0.033 A 
ATOM     28  C   UNL     1       7.557  12.568  37.097  0.00  0.00    +0.005 A 
ATOM     29  C   UNL     1       7.046  11.556  36.254  0.00  0.00    +0.013 A 
BRANCH  18  19
ATOM     19  C   UNL     1       7.427  14.183  39.083  0.00  0.00    +0.119 C 
BRANCH  19  20
ATOM     20  N   UNL     1       8.467  15.033  38.430  0.00  0.00    -0.302 NA
ATOM     21  C   UNL     1       9.774  15.057  39.228  0.00  0.00    +0.066 C 
ATOM     22  C   UNL     1      10.858  15.932  38.519  0.00  0.00    -0.064 C 
ATOM     23  N   UNL     1      10.317  17.350  38.324  0.00  0.00    +0.379 N 
ATOM     24  C   UNL     1      11.355  18.191  37.710  0.00  0.00    -0.096 C 
ATOM     25  H   UNL     1      10.094  17.768  39.333  0.00  0.00    -0.082 HD
ATOM     26  C   UNL     1       9.016  17.335  37.534  0.00  0.00    -0.064 C 
ATOM     27  C   UNL     1       7.955  16.438  38.231  0.00  0.00    +0.066 C 
ENDBRANCH  19  20
ENDBRANCH  18  19
ENDBRANCH  14  15
ENDBRANCH  12  13
TORSDOF 6
ENDMDL
MODEL 2
REMARK VINA RESULT:     -11.0      9.846     12.087
REMARK  Name = C:\Users\Docking\Desktop\test protocol\1iep_ligandH.pdb
REMARK  8 active torsions:
REMARK  status: ('A' for Active; 'I' for Inactive)
REMARK    1  A    between atoms: _5  and  _11
REMARK    2  A    between atoms: _19  and  _21
REMARK    3  A    between atoms: _22  and  _66
REMARK    4  A    between atoms: _27  and  _30
REMARK    5  A    between atoms: _32  and  _33
REMARK    6  A    between atoms: _38  and  _43
REMARK    7  A    between atoms: _43  and  _46
REMARK    8  A    between atoms: _53  and  _55
REMARK                            x       y       z     vdW  Elec       q    Type
REMARK                         _______ _______ _______ _____ _____    ______ ____
ROOT
ATOM     10  C   UNL     1      11.671   6.748  34.513  0.00  0.00    +0.038 A 
ATOM     11  C   UNL     1      12.449   6.428  35.654  0.00  0.00    +0.047 A 
ATOM     12  C   UNL     1      13.846   6.043  35.529  0.00  0.00    +0.035 A 
ATOM     32  C   UNL     1      14.419   5.997  34.225  0.00  0.00    +0.024 A 
ATOM     33  C   UNL     1      13.643   6.318  33.054  0.00  0.00    +0.007 A 
ATOM     34  C   UNL     1      12.264   6.696  33.171  0.00  0.00    -0.029 A 
ATOM     35  C   UNL     1      11.477   7.024  31.880  0.00  0.00    +0.045 C 
ENDROOT
BRANCH  10   9
ATOM      4  C   UNL     1       8.240  10.012  35.297  0.00  0.00    +0.077 A 
ATOM      5  C   UNL     1       9.194  11.080  35.385  0.00  0.00    +0.048 A 
ATOM      6  C   UNL     1      10.558  10.746  35.230  0.00  0.00    +0.116 A 
ATOM      7  N   UNL     1      10.929   9.438  35.004  0.00  0.00    -0.223 NA
ATOM      8  C   UNL     1       9.984   8.432  34.926  0.00  0.00    +0.220 A 
ATOM      9  N   UNL     1      10.334   7.111  34.691  0.00  0.00    -0.283 N 
ATOM     36  H   UNL     1       9.607   6.397  34.648  0.00  0.00    +0.155 HD
ATOM     37  N   UNL     1       8.675   8.725  35.072  0.00  0.00    -0.214 NA
BRANCH   4   3
ATOM      1  C   UNL     1       4.708  10.884  36.735  0.00  0.00    +0.020 A 
ATOM      2  C   UNL     1       6.141  10.715  36.652  0.00  0.00    +0.013 A 
ATOM      3  C   UNL     1       6.762  10.206  35.436  0.00  0.00    +0.019 A 
ATOM     38  C   UNL     1       5.898   9.875  34.312  0.00  0.00    +0.120 A 
ATOM     39  N   UNL     1       4.522  10.047  34.421  0.00  0.00    -0.263 NA
ATOM     40  C   UNL     1       3.913  10.535  35.587  0.00  0.00    +0.111 A 
ENDBRANCH   4   3
ENDBRANCH  10   9
BRANCH  12  13
ATOM     13  N   UNL     1      14.683   5.699  36.652  0.00  0.00    -0.281 N 
ATOM     14  C   UNL     1      15.611   6.498  37.298  0.00  0.00    +0.248 C 
ATOM     30  O   UNL     1      16.017   7.569  36.872  0.00  0.00    -0.270 OA
ATOM     31  H   UNL     1      14.579   4.751  37.013  0.00  0.00    +0.155 HD
BRANCH  14  15
ATOM     15  C   UNL     1      16.181   6.035  38.600  0.00  0.00    +0.037 A 
ATOM     16  C   UNL     1      15.595   4.907  39.328  0.00  0.00    +0.013 A 
ATOM     17  C   UNL     1      16.154   4.491  40.590  0.00  0.00    +0.005 A 
ATOM     18  C   UNL     1      17.307   5.204  41.132  0.00  0.00    -0.033 A 
ATOM     28  C   UNL     1      17.872   6.317  40.386  0.00  0.00    +0.005 A 
ATOM     29  C   UNL     1      17.327   6.728  39.150  0.00  0.00    +0.013 A 
BRANCH  18  19
ATOM     19  C   UNL     1      17.956   4.843  42.481  0.00  0.00    +0.119 C 
BRANCH  19  20
ATOM     20  N   UNL     1      17.313   3.757  43.280  0.00  0.00    -0.302 NA
ATOM     21  C   UNL     1      17.238   4.106  44.769  0.00  0.00    +0.066 C 
ATOM     22  C   UNL     1      16.542   2.970  45.586  0.00  0.00    -0.064 C 
ATOM     23  N   UNL     1      17.299   1.657  45.375  0.00  0.00    +0.379 N 
ATOM     24  C   UNL     1      16.682   0.599  46.187  0.00  0.00    -0.096 C 
ATOM     25  H   UNL     1      18.340   1.804  45.745  0.00  0.00    -0.082 HD
ATOM     26  C   UNL     1      17.380   1.304  43.896  0.00  0.00    -0.064 C 
ATOM     27  C   UNL     1      18.047   2.453  43.089  0.00  0.00    +0.066 C 
ENDBRANCH  19  20
ENDBRANCH  18  19
ENDBRANCH  14  15
ENDBRANCH  12  13
TORSDOF 6
ENDMDL
MODEL 3
REMARK VINA RESULT:     -11.0      5.512     11.188
REMARK  Name = C:\Users\Docking\Desktop\test protocol\1iep_ligandH.pdb
REMARK  8 active torsions:
REMARK  status: ('A' for Active; 'I' for Inactive)
REMARK    1  A    between atoms: _5  and  _11
REMARK    2  A    between atoms: _19  and  _21
REMARK    3  A    between atoms: _22  and  _66
REMARK    4  A    between atoms: _27  and  _30
REMARK    5  A    between atoms: _32  and  _33
REMARK    6  A    between atoms: _38  and  _43
REMARK    7  A    between atoms: _43  and  _46
REMARK    8  A    between atoms: _53  and  _55
REMARK                            x       y       z     vdW  Elec       q    Type
REMARK                         _______ _______ _______ _____ _____    ______ ____
ROOT
ATOM     10  C   UNL     1       7.417   9.497  31.788  0.00  0.00    +0.038 A 
ATOM     11  C   UNL     1       6.281   8.673  31.997  0.00  0.00    +0.047 A 
ATOM     12  C   UNL     1       5.140   8.722  31.095  0.00  0.00    +0.035 A 
ATOM     32  C   UNL     1       5.191   9.619  29.989  0.00  0.00    +0.024 A 
ATOM     33  C   UNL     1       6.337  10.464  29.762  0.00  0.00    +0.007 A 
ATOM     34  C   UNL     1       7.464  10.422  30.649  0.00  0.00    -0.029 A 
ATOM     35  C   UNL     1       8.663  11.355  30.361  0.00  0.00    +0.045 C 
ENDROOT
BRANCH  10   9
ATOM      4  C   UNL     1      11.510   7.510  33.315  0.00  0.00    +0.077 A 
ATOM      5  C   UNL     1      11.508   6.547  32.252  0.00  0.00    +0.048 A 
ATOM      6  C   UNL     1      10.432   6.592  31.337  0.00  0.00    +0.116 A 
ATOM      7  N   UNL     1       9.438   7.534  31.484  0.00  0.00    -0.223 NA
ATOM      8  C   UNL     1       9.469   8.448  32.522  0.00  0.00    +0.220 A 
ATOM      9  N   UNL     1       8.484   9.409  32.684  0.00  0.00    -0.283 N 
ATOM     36  H   UNL     1       8.539  10.060  33.467  0.00  0.00    +0.155 HD
ATOM     37  N   UNL     1      10.485   8.424  33.409  0.00  0.00    -0.214 NA
BRANCH   4   3
ATOM      1  C   UNL     1      13.783   8.763  36.241  0.00  0.00    +0.020 A 
ATOM      2  C   UNL     1      12.732   8.734  35.250  0.00  0.00    +0.013 A 
ATOM      3  C   UNL     1      12.580   7.591  34.359  0.00  0.00    +0.019 A 
ATOM     38  C   UNL     1      13.515   6.484  34.498  0.00  0.00    +0.120 A 
ATOM     39  N   UNL     1      14.517   6.541  35.461  0.00  0.00    -0.263 NA
ATOM     40  C   UNL     1      14.674   7.636  36.323  0.00  0.00    +0.111 A 
ENDBRANCH   4   3
ENDBRANCH  10   9
BRANCH  12  13
ATOM     13  N   UNL     1       3.957   7.915  31.261  0.00  0.00    -0.281 N 
ATOM     14  C   UNL     1       2.754   8.278  31.846  0.00  0.00    +0.248 C 
ATOM     30  O   UNL     1       2.586   9.290  32.511  0.00  0.00    -0.270 OA
ATOM     31  H   UNL     1       4.012   6.961  30.905  0.00  0.00    +0.155 HD
BRANCH  14  15
ATOM     15  C   UNL     1       1.571   7.379  31.682  0.00  0.00    +0.037 A 
ATOM     16  C   UNL     1       1.409   6.548  30.486  0.00  0.00    +0.013 A 
ATOM     17  C   UNL     1       0.249   5.703  30.345  0.00  0.00    +0.005 A 
ATOM     18  C   UNL     1      -0.757   5.685  31.404  0.00  0.00    -0.033 A 
ATOM     28  C   UNL     1      -0.568   6.515  32.582  0.00  0.00    +0.005 A 
ATOM     29  C   UNL     1       0.567   7.345  32.724  0.00  0.00    +0.013 A 
BRANCH  18  19
ATOM     19  C   UNL     1      -2.035   4.830  31.328  0.00  0.00    +0.119 C 
BRANCH  19  20
ATOM     20  N   UNL     1      -3.333   5.552  31.173  0.00  0.00    -0.302 NA
ATOM     21  C   UNL     1      -4.527   4.681  31.572  0.00  0.00    +0.066 C 
ATOM     22  C   UNL     1      -5.875   5.460  31.425  0.00  0.00    -0.064 C 
ATOM     23  N   UNL     1      -6.021   5.952  29.984  0.00  0.00    +0.379 N 
ATOM     24  C   UNL     1      -7.314   6.635  29.828  0.00  0.00    -0.096 C 
ATOM     25  H   UNL     1      -6.029   5.056  29.320  0.00  0.00    -0.082 HD
ATOM     26  C   UNL     1      -4.836   6.817  29.578  0.00  0.00    -0.064 C 
ATOM     27  C   UNL     1      -3.500   6.043  29.756  0.00  0.00    +0.066 C 
ENDBRANCH  19  20
ENDBRANCH  18  19
ENDBRANCH  14  15
ENDBRANCH  12  13
TORSDOF 6
ENDMDL
MODEL 4
REMARK VINA RESULT:     -10.8     10.302     12.773
REMARK  Name = C:\Users\Docking\Desktop\test protocol\1iep_ligandH.pdb
REMARK  8 active torsions:
REMARK  status: ('A' for Active; 'I' for Inactive)
REMARK    1  A    between atoms: _5  and  _11
REMARK    2  A    between atoms: _19  and  _21
REMARK    3  A    between atoms: _22  and  _66
REMARK    4  A    between atoms: _27  and  _30
REMARK    5  A    between atoms: _32  and  _33
REMARK    6  A    between atoms: _38  and  _43
REMARK    7  A    between atoms: _43  and  _46
REMARK    8  A    between atoms: _53  and  _55
REMARK                            x       y       z     vdW  Elec       q    Type
REMARK                         _______ _______ _______ _____ _____    ______ ____
ROOT
ATOM     10  C   UNL     1      12.512   7.820  34.890  0.00  0.00    +0.038 A 
ATOM     11  C   UNL     1      13.155   7.417  36.088  0.00  0.00    +0.047 A 
ATOM     12  C   UNL     1      14.107   6.317  36.097  0.00  0.00    +0.035 A 
ATOM     32  C   UNL     1      14.383   5.652  34.867  0.00  0.00    +0.024 A 
ATOM     33  C   UNL     1      13.737   6.048  33.640  0.00  0.00    +0.007 A 
ATOM     34  C   UNL     1      12.795   7.130  33.625  0.00  0.00    -0.029 A 
ATOM     35  C   UNL     1      12.128   7.508  32.282  0.00  0.00    +0.045 C 
ENDROOT
BRANCH  10   9
ATOM      4  C   UNL     1      11.487  12.493  35.278  0.00  0.00    +0.077 A 
ATOM      5  C   UNL     1      12.870  12.845  35.423  0.00  0.00    +0.048 A 
ATOM      6  C   UNL     1      13.813  11.793  35.399  0.00  0.00    +0.116 A 
ATOM      7  N   UNL     1      13.393  10.490  35.242  0.00  0.00    -0.223 NA
ATOM      8  C   UNL     1      12.051  10.185  35.106  0.00  0.00    +0.220 A 
ATOM      9  N   UNL     1      11.607   8.883  34.938  0.00  0.00    -0.283 N 
ATOM     36  H   UNL     1      10.608   8.699  34.849  0.00  0.00    +0.155 HD
ATOM     37  N   UNL     1      11.131  11.172  35.127  0.00  0.00    -0.214 NA
BRANCH   4   3
ATOM      1  C   UNL     1       8.293  14.521  36.270  0.00  0.00    +0.020 A 
ATOM      2  C   UNL     1       9.348  13.535  36.315  0.00  0.00    +0.013 A 
ATOM      3  C   UNL     1      10.372  13.493  35.279  0.00  0.00    +0.019 A 
ATOM     38  C   UNL     1      10.300  14.470  34.203  0.00  0.00    +0.120 A 
ATOM     39  N   UNL     1       9.271  15.406  34.185  0.00  0.00    -0.263 NA
ATOM     40  C   UNL     1       8.279  15.456  35.175  0.00  0.00    +0.111 A 
ENDBRANCH   4   3
ENDBRANCH  10   9
BRANCH  12  13
ATOM     13  N   UNL     1      14.785   5.858  37.284  0.00  0.00    -0.281 N 
ATOM     14  C   UNL     1      16.044   6.217  37.739  0.00  0.00    +0.248 C 
ATOM     30  O   UNL     1      16.869   6.828  37.077  0.00  0.00    -0.270 OA
ATOM     31  H   UNL     1      14.275   5.187  37.859  0.00  0.00    +0.155 HD
BRANCH  14  15
ATOM     15  C   UNL     1      16.449   5.827  39.123  0.00  0.00    +0.037 A 
ATOM     16  C   UNL     1      15.702   4.817  39.878  0.00  0.00    +0.013 A 
ATOM     17  C   UNL     1      16.105   4.472  41.219  0.00  0.00    +0.005 A 
ATOM     18  C   UNL     1      17.263   5.137  41.812  0.00  0.00    -0.033 A 
ATOM     28  C   UNL     1      17.989   6.131  41.039  0.00  0.00    +0.005 A 
ATOM     29  C   UNL     1      17.596   6.472  39.725  0.00  0.00    +0.013 A 
BRANCH  18  19
ATOM     19  C   UNL     1      17.751   4.847  43.244  0.00  0.00    +0.119 C 
BRANCH  19  20
ATOM     20  N   UNL     1      17.146   3.677  43.948  0.00  0.00    -0.302 NA
ATOM     21  C   UNL     1      17.027   3.914  45.457  0.00  0.00    +0.066 C 
ATOM     22  C   UNL     1      16.372   2.690  46.175  0.00  0.00    -0.064 C 
ATOM     23  N   UNL     1      17.194   1.432  45.887  0.00  0.00    +0.379 N 
ATOM     24  C   UNL     1      16.613   0.290  46.608  0.00  0.00    -0.096 C 
ATOM     25  H   UNL     1      18.220   1.600  46.289  0.00  0.00    -0.082 HD
ATOM     26  C   UNL     1      17.319   1.191  44.389  0.00  0.00    -0.064 C 
ATOM     27  C   UNL     1      17.945   2.425  43.681  0.00  0.00    +0.066 C 
ENDBRANCH  19  20
ENDBRANCH  18  19
ENDBRANCH  14  15
ENDBRANCH  12  13
TORSDOF 6
ENDMDL
MODEL 5
REMARK VINA RESULT:     -10.7      5.659      7.550
REMARK  Name = C:\Users\Docking\Desktop\test protocol\1iep_ligandH.pdb
REMARK  8 active torsions:
REMARK  status: ('A' for Active; 'I' for Inactive)
REMARK    1  A    between atoms: _5  and  _11
REMARK    2  A    between atoms: _19  and  _21
REMARK    3  A    between atoms: _22  and  _66
REMARK    4  A    between atoms: _27  and  _30
REMARK    5  A    between atoms: _32  and  _33
REMARK    6  A    between atoms: _38  and  _43
REMARK    7  A    between atoms: _43  and  _46
REMARK    8  A    between atoms: _53  and  _55
REMARK                            x       y       z     vdW  Elec       q    Type
REMARK                         _______ _______ _______ _____ _____    ______ ____
ROOT
ATOM     10  C   UNL     1       8.615  10.658  33.506  0.00  0.00    +0.038 A 
ATOM     11  C   UNL     1       9.854  11.303  33.755  0.00  0.00    +0.047 A 
ATOM     12  C   UNL     1      10.154  11.879  35.057  0.00  0.00    +0.035 A 
ATOM     32  C   UNL     1       9.170  11.777  36.083  0.00  0.00    +0.024 A 
ATOM     33  C   UNL     1       7.906  11.126  35.847  0.00  0.00    +0.007 A 
ATOM     34  C   UNL     1       7.603  10.558  34.564  0.00  0.00    -0.029 A 
ATOM     35  C   UNL     1       6.229   9.878  34.366  0.00  0.00    +0.045 C 
ENDROOT
BRANCH  10   9
ATOM      4  C   UNL     1       9.171   7.237  30.185  0.00  0.00    +0.077 A 
ATOM      5  C   UNL     1      10.025   6.464  31.040  0.00  0.00    +0.048 A 
ATOM      6  C   UNL     1      10.302   6.985  32.324  0.00  0.00    +0.116 A 
ATOM      7  N   UNL     1       9.760   8.190  32.713  0.00  0.00    -0.223 NA
ATOM      8  C   UNL     1       8.942   8.912  31.864  0.00  0.00    +0.220 A 
ATOM      9  N   UNL     1       8.380  10.123  32.237  0.00  0.00    -0.283 N 
ATOM     36  H   UNL     1       7.787  10.628  31.579  0.00  0.00    +0.155 HD
ATOM     37  N   UNL     1       8.663   8.437  30.632  0.00  0.00    -0.214 NA
BRANCH   4   3
ATOM      1  C   UNL     1       9.242   5.675  26.600  0.00  0.00    +0.020 A 
ATOM      2  C   UNL     1       9.666   6.055  27.928  0.00  0.00    +0.013 A 
ATOM      3  C   UNL     1       8.783   6.818  28.802  0.00  0.00    +0.019 A 
ATOM     38  C   UNL     1       7.468   7.183  28.297  0.00  0.00    +0.120 A 
ATOM     39  N   UNL     1       7.088   6.804  27.013  0.00  0.00    -0.263 NA
ATOM     40  C   UNL     1       7.929   6.071  26.163  0.00  0.00    +0.111 A 
ENDBRANCH   4   3
ENDBRANCH  10   9
BRANCH  12  13
ATOM     13  N   UNL     1      11.391  12.553  35.366  0.00  0.00    -0.281 N 
ATOM     14  C   UNL     1      12.683  12.097  35.162  0.00  0.00    +0.248 C 
ATOM     30  O   UNL     1      12.972  10.944  34.877  0.00  0.00    -0.270 OA
ATOM     31  H   UNL     1      11.303  13.478  35.786  0.00  0.00    +0.155 HD
BRANCH  14  15
ATOM     15  C   UNL     1      13.819  13.057  35.310  0.00  0.00    +0.037 A 
ATOM     16  C   UNL     1      14.018  13.813  36.548  0.00  0.00    +0.013 A 
ATOM     17  C   UNL     1      15.112  14.746  36.659  0.00  0.00    +0.005 A 
ATOM     18  C   UNL     1      16.017  14.925  35.526  0.00  0.00    -0.033 A 
ATOM     28  C   UNL     1      15.799  14.157  34.311  0.00  0.00    +0.005 A 
ATOM     29  C   UNL     1      14.727  13.244  34.199  0.00  0.00    +0.013 A 
BRANCH  18  19
ATOM     19  C   UNL     1      17.198  15.913  35.547  0.00  0.00    +0.119 C 
BRANCH  19  20
ATOM     20  N   UNL     1      18.574  15.335  35.509  0.00  0.00    -0.302 NA
ATOM     21  C   UNL     1      18.959  14.680  36.839  0.00  0.00    +0.066 C 
ATOM     22  C   UNL     1      20.393  14.060  36.774  0.00  0.00    -0.064 C 
ATOM     23  N   UNL     1      21.399  15.149  36.395  0.00  0.00    +0.379 N 
ATOM     24  C   UNL     1      22.756  14.582  36.390  0.00  0.00    -0.096 C 
ATOM     25  H   UNL     1      21.363  15.933  37.186  0.00  0.00    -0.082 HD
ATOM     26  C   UNL     1      21.022  15.807  35.075  0.00  0.00    -0.064 C 
ATOM     27  C   UNL     1      19.585  16.393  35.141  0.00  0.00    +0.066 C 
ENDBRANCH  19  20
ENDBRANCH  18  19
ENDBRANCH  14  15
ENDBRANCH  12  13
TORSDOF 6
ENDMDL
