MODEL 1
REMARK VINA RESULT:     -10.3      0.000      0.000
REMARK  Name = C:\Users\Docking\Desktop\test protocol\1iep_ligandH.pdb
REMARK  8 active torsions:
REMARK  status: ('A' for Active; 'I' for Inactive)
REMARK    1  A    between atoms: _5  and  _11
REMARK    2  A    between atoms: _19  and  _21
REMARK    3  A    between atoms: _22  and  _66
REMARK    4  A    between atoms: _27  and  _30
REMARK    5  A    between atoms: _32  and  _33
REMARK    6  A    between atoms: _38  and  _43
REMARK    7  A    between atoms: _43  and  _46
REMARK    8  A    between atoms: _53  and  _55
REMARK                            x       y       z     vdW  Elec       q    Type
REMARK                         _______ _______ _______ _____ _____    ______ ____
ROOT
ATOM     10  C   UNL     1      12.706   9.099  35.195  0.00  0.00    +0.038 A 
ATOM     11  C   UNL     1      13.427   8.551  36.286  0.00  0.00    +0.047 A 
ATOM     12  C   UNL     1      13.976   7.205  36.225  0.00  0.00    +0.035 A 
ATOM     32  C   UNL     1      13.774   6.446  35.036  0.00  0.00    +0.024 A 
ATOM     33  C   UNL     1      13.043   6.988  33.917  0.00  0.00    +0.007 A 
ATOM     34  C   UNL     1      12.497   8.313  33.972  0.00  0.00    -0.029 A 
ATOM     35  C   UNL     1      11.716   8.840  32.746  0.00  0.00    +0.045 C 
ENDROOT
BRANCH  10   9
ATOM      4  C   UNL     1       9.231  12.202  36.349  0.00  0.00    +0.077 A 
ATOM      5  C   UNL     1       8.337  11.149  36.735  0.00  0.00    +0.048 A 
ATOM      6  C   UNL     1       8.807   9.822  36.614  0.00  0.00    +0.116 A 
ATOM      7  N   UNL     1      10.079   9.579  36.142  0.00  0.00    -0.223 NA
ATOM      8  C   UNL     1      10.915  10.618  35.777  0.00  0.00    +0.220 A 
ATOM      9  N   UNL     1      12.201  10.396  35.307  0.00  0.00    -0.283 N 
ATOM     36  H   UNL     1      12.784  11.189  35.041  0.00  0.00    +0.155 HD
ATOM     37  N   UNL     1      10.489  11.894  35.881  0.00  0.00    -0.214 NA
BRANCH   4   3
ATOM      1  C   UNL     1       7.399  15.566  37.143  0.00  0.00    +0.020 A 
ATOM      2  C   UNL     1       7.691  14.151  37.102  0.00  0.00    +0.013 A 
ATOM      3  C   UNL     1       8.881  13.656  36.421  0.00  0.00    +0.019 A 
ATOM     38  C   UNL     1       9.762  14.626  35.788  0.00  0.00    +0.120 A 
ATOM     39  N   UNL     1       9.454  15.982  35.843  0.00  0.00    -0.263 NA
ATOM     40  C   UNL     1       8.311  16.470  36.494  0.00  0.00    +0.111 A 
ENDBRANCH   4   3
ENDBRANCH  10   9
BRANCH  12  13
ATOM     13  N   UNL     1      14.710   6.593  37.305  0.00  0.00    -0.281 N 
ATOM     14  C   UNL     1      16.068   6.675  37.566  0.00  0.00    +0.248 C 
ATOM     30  O   UNL     1      16.897   7.116  36.784  0.00  0.00    -0.270 OA
ATOM     31  H   UNL     1      14.161   6.030  37.956  0.00  0.00    +0.155 HD
BRANCH  14  15
ATOM     15  C   UNL     1      16.581   6.182  38.880  0.00  0.00    +0.037 A 
ATOM     16  C   UNL     1      15.973   5.030  39.551  0.00  0.00    +0.013 A 
ATOM     17  C   UNL     1      16.477   4.586  40.826  0.00  0.00    +0.005 A 
ATOM     18  C   UNL     1      17.598   5.295  41.439  0.00  0.00    -0.033 A 
ATOM     28  C   UNL     1      18.186   6.431  40.750  0.00  0.00    +0.005 A 
ATOM     29  C   UNL     1      17.694   6.870  39.500  0.00  0.00    +0.013 A 
BRANCH  18  19
ATOM     19  C   UNL     1      18.187   4.904  42.808  0.00  0.00    +0.119 C 
BRANCH  19  20
ATOM     20  N   UNL     1      17.468   3.852  43.586  0.00  0.00    -0.302 NA
ATOM     21  C   UNL     1      17.313   4.233  45.061  0.00  0.00    +0.066 C 
ATOM     22  C   UNL     1      16.538   3.132  45.856  0.00  0.00    -0.064 C 
ATOM     23  N   UNL     1      17.271   1.796  45.716  0.00  0.00    +0.379 N 
ATOM     24  C   UNL     1      16.577   0.771  46.509  0.00  0.00    -0.096 C 
ATOM     25  H   UNL     1      18.291   1.924  46.146  0.00  0.00    -0.082 HD
ATOM     26  C   UNL     1      17.432   1.411  44.252  0.00  0.00    -0.064 C 
ATOM     27  C   UNL     1      18.176   2.525  43.465  0.00  0.00    +0.066 C 
ENDBRANCH  19  20
ENDBRANCH  18  19
ENDBRANCH  14  15
ENDBRANCH  12  13
TORSDOF 6
ENDMDL
MODEL 2
REMARK VINA RESULT:      -9.8      5.394     16.543
REMARK  Name = C:\Users\Docking\Desktop\test protocol\1iep_ligandH.pdb
REMARK  8 active torsions:
REMARK  status: ('A' for Active; 'I' for Inactive)
REMARK    1  A    between atoms: _5  and  _11
REMARK    2  A    between atoms: _19  and  _21
REMARK    3  A    between atoms: _22  and  _66
REMARK    4  A    between atoms: _27  and  _30
REMARK    5  A    between atoms: _32  and  _33
REMARK    6  A    between atoms: _38  and  _43
REMARK    7  A    between atoms: _43  and  _46
REMARK    8  A    between atoms: _53  and  _55
REMARK                            x       y       z     vdW  Elec       q    Type
REMARK                         _______ _______ _______ _____ _____    ______ ____
ROOT
ATOM     10  C   UNL     1      18.961  -1.140  45.091  0.00  0.00    +0.038 A 
ATOM     11  C   UNL     1      18.589  -0.408  43.934  0.00  0.00    +0.047 A 
ATOM     12  C   UNL     1      17.641   0.692  44.012  0.00  0.00    +0.035 A 
ATOM     32  C   UNL     1      17.092   1.022  45.285  0.00  0.00    +0.024 A 
ATOM     33  C   UNL     1      17.457   0.288  46.471  0.00  0.00    +0.007 A 
ATOM     34  C   UNL     1      18.390  -0.800  46.400  0.00  0.00    -0.029 A 
ATOM     35  C   UNL     1      18.741  -1.556  47.703  0.00  0.00    +0.045 C 
ENDROOT
BRANCH  10   9
ATOM      4  C   UNL     1      20.057  -5.811  44.950  0.00  0.00    +0.077 A 
ATOM      5  C   UNL     1      18.696  -6.198  45.187  0.00  0.00    +0.048 A 
ATOM      6  C   UNL     1      17.746  -5.164  45.347  0.00  0.00    +0.116 A 
ATOM      7  N   UNL     1      18.138  -3.845  45.273  0.00  0.00    -0.223 NA
ATOM      8  C   UNL     1      19.459  -3.506  45.045  0.00  0.00    +0.220 A 
ATOM      9  N   UNL     1      19.875  -2.187  44.959  0.00  0.00    -0.283 N 
ATOM     36  H   UNL     1      20.860  -1.978  44.796  0.00  0.00    +0.155 HD
ATOM     37  N   UNL     1      20.386  -4.475  44.890  0.00  0.00    -0.214 NA
BRANCH   4   3
ATOM      1  C   UNL     1      22.198  -8.834  43.698  0.00  0.00    +0.020 A 
ATOM      2  C   UNL     1      21.089  -7.921  43.847  0.00  0.00    +0.013 A 
ATOM      3  C   UNL     1      21.175  -6.787  44.758  0.00  0.00    +0.019 A 
ATOM     38  C   UNL     1      22.408  -6.603  45.508  0.00  0.00    +0.120 A 
ATOM     39  N   UNL     1      23.460  -7.499  45.345  0.00  0.00    -0.263 NA
ATOM     40  C   UNL     1      23.387  -8.595  44.472  0.00  0.00    +0.111 A 
ENDBRANCH   4   3
ENDBRANCH  10   9
BRANCH  12  13
ATOM     13  N   UNL     1      17.220   1.466  42.870  0.00  0.00    -0.281 N 
ATOM     14  C   UNL     1      17.408   2.819  42.642  0.00  0.00    +0.248 C 
ATOM     30  O   UNL     1      17.783   3.617  43.489  0.00  0.00    -0.270 OA
ATOM     31  H   UNL     1      16.723   0.954  42.141  0.00  0.00    +0.155 HD
BRANCH  14  15
ATOM     15  C   UNL     1      17.127   3.368  41.281  0.00  0.00    +0.037 A 
ATOM     16  C   UNL     1      16.743   4.769  41.091  0.00  0.00    +0.013 A 
ATOM     17  C   UNL     1      16.460   5.269  39.769  0.00  0.00    +0.005 A 
ATOM     18  C   UNL     1      16.561   4.366  38.625  0.00  0.00    -0.033 A 
ATOM     28  C   UNL     1      16.950   2.982  38.841  0.00  0.00    +0.005 A 
ATOM     29  C   UNL     1      17.227   2.489  40.136  0.00  0.00    +0.013 A 
BRANCH  18  19
ATOM     19  C   UNL     1      16.257   4.808  37.181  0.00  0.00    +0.119 C 
BRANCH  19  20
ATOM     20  N   UNL     1      15.157   5.798  36.987  0.00  0.00    -0.302 NA
ATOM     21  C   UNL     1      14.218   5.396  35.846  0.00  0.00    +0.066 C 
ATOM     22  C   UNL     1      13.059   6.432  35.670  0.00  0.00    -0.064 C 
ATOM     23  N   UNL     1      13.653   7.819  35.421  0.00  0.00    +0.379 N 
ATOM     24  C   UNL     1      12.566   8.785  35.198  0.00  0.00    -0.096 C 
ATOM     25  H   UNL     1      14.255   7.766  34.484  0.00  0.00    -0.082 HD
ATOM     26  C   UNL     1      14.590   8.225  36.549  0.00  0.00    -0.064 C 
ATOM     27  C   UNL     1      15.720   7.175  36.734  0.00  0.00    +0.066 C 
ENDBRANCH  19  20
ENDBRANCH  18  19
ENDBRANCH  14  15
ENDBRANCH  12  13
TORSDOF 6
ENDMDL
MODEL 3
REMARK VINA RESULT:      -9.8      8.207     10.645
REMARK  Name = C:\Users\Docking\Desktop\test protocol\1iep_ligandH.pdb
REMARK  8 active torsions:
REMARK  status: ('A' for Active; 'I' for Inactive)
REMARK    1  A    between atoms: _5  and  _11
REMARK    2  A    between atoms: _19  and  _21
REMARK    3  A    between atoms: _22  and  _66
REMARK    4  A    between atoms: _27  and  _30
REMARK    5  A    between atoms: _32  and  _33
REMARK    6  A    between atoms: _38  and  _43
REMARK    7  A    between atoms: _43  and  _46
REMARK    8  A    between atoms: _53  and  _55
REMARK                            x       y       z     vdW  Elec       q    Type
REMARK                         _______ _______ _______ _____ _____    ______ ____
ROOT
ATOM     10  C   UNL     1       9.076  10.965  33.534  0.00  0.00    +0.038 A 
ATOM     11  C   UNL     1      10.301  11.661  33.699  0.00  0.00    +0.047 A 
ATOM     12  C   UNL     1      10.660  12.263  34.974  0.00  0.00    +0.035 A 
ATOM     32  C   UNL     1       9.747  12.134  36.062  0.00  0.00    +0.024 A 
ATOM     33  C   UNL     1       8.497  11.431  35.912  0.00  0.00    +0.007 A 
ATOM     34  C   UNL     1       8.138  10.838  34.655  0.00  0.00    -0.029 A 
ATOM     35  C   UNL     1       6.782  10.102  34.550  0.00  0.00    +0.045 C 
ENDROOT
BRANCH  10   9
ATOM      4  C   UNL     1       9.229   7.360  30.370  0.00  0.00    +0.077 A 
ATOM      5  C   UNL     1       9.980   6.527  31.265  0.00  0.00    +0.048 A 
ATOM      6  C   UNL     1      10.313   7.067  32.528  0.00  0.00    +0.116 A 
ATOM      7  N   UNL     1       9.918   8.345  32.860  0.00  0.00    -0.223 NA
ATOM      8  C   UNL     1       9.197   9.122  31.972  0.00  0.00    +0.220 A 
ATOM      9  N   UNL     1       8.783  10.407  32.288  0.00  0.00    -0.283 N 
ATOM     36  H   UNL     1       8.259  10.951  31.603  0.00  0.00    +0.155 HD
ATOM     37  N   UNL     1       8.868   8.630  30.760  0.00  0.00    -0.214 NA
BRANCH   4   3
ATOM      1  C   UNL     1       9.202   5.798  26.783  0.00  0.00    +0.020 A 
ATOM      2  C   UNL     1       9.667   6.190  28.094  0.00  0.00    +0.013 A 
ATOM      3  C   UNL     1       8.799   6.930  29.002  0.00  0.00    +0.019 A 
ATOM     38  C   UNL     1       7.456   7.260  28.549  0.00  0.00    +0.120 A 
ATOM     39  N   UNL     1       7.037   6.871  27.280  0.00  0.00    -0.263 NA
ATOM     40  C   UNL     1       7.864   6.160  26.398  0.00  0.00    +0.111 A 
ENDBRANCH   4   3
ENDBRANCH  10   9
BRANCH  12  13
ATOM     13  N   UNL     1      11.886  12.988  35.198  0.00  0.00    -0.281 N 
ATOM     14  C   UNL     1      13.169  12.477  35.309  0.00  0.00    +0.248 C 
ATOM     30  O   UNL     1      13.432  11.292  35.445  0.00  0.00    -0.270 OA
ATOM     31  H   UNL     1      11.797  14.000  35.287  0.00  0.00    +0.155 HD
BRANCH  14  15
ATOM     15  C   UNL     1      14.327  13.422  35.278  0.00  0.00    +0.037 A 
ATOM     16  C   UNL     1      15.303  13.392  34.187  0.00  0.00    +0.013 A 
ATOM     17  C   UNL     1      16.420  14.303  34.190  0.00  0.00    +0.005 A 
ATOM     18  C   UNL     1      16.565  15.254  35.290  0.00  0.00    -0.033 A 
ATOM     28  C   UNL     1      15.579  15.265  36.358  0.00  0.00    +0.005 A 
ATOM     29  C   UNL     1      14.484  14.373  36.358  0.00  0.00    +0.013 A 
BRANCH  18  19
ATOM     19  C   UNL     1      17.738  16.248  35.387  0.00  0.00    +0.119 C 
BRANCH  19  20
ATOM     20  N   UNL     1      19.118  15.678  35.405  0.00  0.00    -0.302 NA
ATOM     21  C   UNL     1      19.395  14.884  36.685  0.00  0.00    +0.066 C 
ATOM     22  C   UNL     1      20.835  14.277  36.677  0.00  0.00    -0.064 C 
ATOM     23  N   UNL     1      21.859  15.400  36.504  0.00  0.00    +0.379 N 
ATOM     24  C   UNL     1      23.217  14.839  36.555  0.00  0.00    -0.096 C 
ATOM     25  H   UNL     1      21.747  16.094  37.369  0.00  0.00    -0.082 HD
ATOM     26  C   UNL     1      21.589  16.196  35.236  0.00  0.00    -0.064 C 
ATOM     27  C   UNL     1      20.145  16.771  35.240  0.00  0.00    +0.066 C 
ENDBRANCH  19  20
ENDBRANCH  18  19
ENDBRANCH  14  15
ENDBRANCH  12  13
TORSDOF 6
ENDMDL
MODEL 4
REMARK VINA RESULT:      -9.5      1.598      2.560
REMARK  Name = C:\Users\Docking\Desktop\test protocol\1iep_ligandH.pdb
REMARK  8 active torsions:
REMARK  status: ('A' for Active; 'I' for Inactive)
REMARK    1  A    between atoms: _5  and  _11
REMARK    2  A    between atoms: _19  and  _21
REMARK    3  A    between atoms: _22  and  _66
REMARK    4  A    between atoms: _27  and  _30
REMARK    5  A    between atoms: _32  and  _33
REMARK    6  A    between atoms: _38  and  _43
REMARK    7  A    between atoms: _43  and  _46
REMARK    8  A    between atoms: _53  and  _55
REMARK                            x       y       z     vdW  Elec       q    Type
REMARK                         _______ _______ _______ _____ _____    ______ ____
ROOT
ATOM     10  C   UNL     1      11.050   9.661  34.021  0.00  0.00    +0.038 A 
ATOM     11  C   UNL     1      12.031   9.054  34.847  0.00  0.00    +0.047 A 
ATOM     12  C   UNL     1      12.540   7.723  34.556  0.00  0.00    +0.035 A 
ATOM     32  C   UNL     1      12.031   7.039  33.414  0.00  0.00    +0.024 A 
ATOM     33  C   UNL     1      11.033   7.641  32.564  0.00  0.00    +0.007 A 
ATOM     34  C   UNL     1      10.525   8.952  32.847  0.00  0.00    -0.029 A 
ATOM     35  C   UNL     1       9.452   9.546  31.905  0.00  0.00    +0.045 C 
ENDROOT
BRANCH  10   9
ATOM      4  C   UNL     1       8.251  12.650  36.524  0.00  0.00    +0.077 A 
ATOM      5  C   UNL     1       7.620  11.567  37.224  0.00  0.00    +0.048 A 
ATOM      6  C   UNL     1       8.039  10.256  36.904  0.00  0.00    +0.116 A 
ATOM      7  N   UNL     1       9.018  10.055  35.956  0.00  0.00    -0.223 NA
ATOM      8  C   UNL     1       9.605  11.120  35.299  0.00  0.00    +0.220 A 
ATOM      9  N   UNL     1      10.596  10.941  34.346  0.00  0.00    -0.283 N 
ATOM     36  H   UNL     1      10.999  11.753  33.879  0.00  0.00    +0.155 HD
ATOM     37  N   UNL     1       9.221  12.382  35.584  0.00  0.00    -0.214 NA
BRANCH   4   3
ATOM      1  C   UNL     1       8.062  16.540  36.165  0.00  0.00    +0.020 A 
ATOM      2  C   UNL     1       8.414  15.164  35.900  0.00  0.00    +0.013 A 
ATOM      3  C   UNL     1       7.918  14.091  36.753  0.00  0.00    +0.019 A 
ATOM     38  C   UNL     1       7.061  14.448  37.874  0.00  0.00    +0.120 A 
ATOM     39  N   UNL     1       6.741  15.782  38.105  0.00  0.00    -0.263 NA
ATOM     40  C   UNL     1       7.213  16.823  37.292  0.00  0.00    +0.111 A 
ENDBRANCH   4   3
ENDBRANCH  10   9
BRANCH  12  13
ATOM     13  N   UNL     1      13.529   7.053  35.363  0.00  0.00    -0.281 N 
ATOM     14  C   UNL     1      14.459   7.622  36.218  0.00  0.00    +0.248 C 
ATOM     30  O   UNL     1      14.724   8.815  36.255  0.00  0.00    -0.270 OA
ATOM     31  H   UNL     1      13.546   6.035  35.296  0.00  0.00    +0.155 HD
BRANCH  14  15
ATOM     15  C   UNL     1      15.215   6.737  37.156  0.00  0.00    +0.037 A 
ATOM     16  C   UNL     1      16.227   7.282  38.064  0.00  0.00    +0.013 A 
ATOM     17  C   UNL     1      16.953   6.404  38.947  0.00  0.00    +0.005 A 
ATOM     18  C   UNL     1      16.668   4.971  38.926  0.00  0.00    -0.033 A 
ATOM     28  C   UNL     1      15.655   4.458  38.018  0.00  0.00    +0.005 A 
ATOM     29  C   UNL     1      14.942   5.316  37.151  0.00  0.00    +0.013 A 
BRANCH  18  19
ATOM     19  C   UNL     1      17.410   3.957  39.818  0.00  0.00    +0.119 C 
BRANCH  19  20
ATOM     20  N   UNL     1      17.498   4.266  41.276  0.00  0.00    -0.302 NA
ATOM     21  C   UNL     1      18.038   3.082  42.083  0.00  0.00    +0.066 C 
ATOM     22  C   UNL     1      18.145   3.430  43.603  0.00  0.00    -0.064 C 
ATOM     23  N   UNL     1      16.772   3.859  44.123  0.00  0.00    +0.379 N 
ATOM     24  C   UNL     1      16.857   4.131  45.566  0.00  0.00    -0.096 C 
ATOM     25  H   UNL     1      16.074   3.001  43.981  0.00  0.00    -0.082 HD
ATOM     26  C   UNL     1      16.226   5.034  43.325  0.00  0.00    -0.064 C 
ATOM     27  C   UNL     1      16.152   4.688  41.812  0.00  0.00    +0.066 C 
ENDBRANCH  19  20
ENDBRANCH  18  19
ENDBRANCH  14  15
ENDBRANCH  12  13
TORSDOF 6
ENDMDL
MODEL 5
REMARK VINA RESULT:      -9.5      8.080     11.709
REMARK  Name = C:\Users\Docking\Desktop\test protocol\1iep_ligandH.pdb
REMARK  8 active torsions:
REMARK  status: ('A' for Active; 'I' for Inactive)
REMARK    1  A    between atoms: _5  and  _11
REMARK    2  A    between atoms: _19  and  _21
REMARK    3  A    between atoms: _22  and  _66
REMARK    4  A    between atoms: _27  and  _30
REMARK    5  A    between atoms: _32  and  _33
REMARK    6  A    between atoms: _38  and  _43
REMARK    7  A    between atoms: _43  and  _46
REMARK    8  A    between atoms: _53  and  _55
REMARK                            x       y       z     vdW  Elec       q    Type
REMARK                         _______ _______ _______ _____ _____    ______ ____
ROOT
ATOM     10  C   UNL     1       8.434  10.747  33.730  0.00  0.00    +0.038 A 
ATOM     11  C   UNL     1       9.624  11.481  33.966  0.00  0.00    +0.047 A 
ATOM     12  C   UNL     1       9.901  12.068  35.267  0.00  0.00    +0.035 A 
ATOM     32  C   UNL     1       8.944  11.886  36.308  0.00  0.00    +0.024 A 
ATOM     33  C   UNL     1       7.728  11.144  36.085  0.00  0.00    +0.007 A 
ATOM     34  C   UNL     1       7.449  10.564  34.803  0.00  0.00    -0.029 A 
ATOM     35  C   UNL     1       6.126   9.784  34.619  0.00  0.00    +0.045 C 
ENDROOT
BRANCH  10   9
ATOM      4  C   UNL     1       9.121   7.354  30.406  0.00  0.00    +0.077 A 
ATOM      5  C   UNL     1      10.004   6.612  31.260  0.00  0.00    +0.048 A 
ATOM      6  C   UNL     1      10.261   7.142  32.544  0.00  0.00    +0.116 A 
ATOM      7  N   UNL     1       9.673   8.326  32.935  0.00  0.00    -0.223 NA
ATOM      8  C   UNL     1       8.828   9.016  32.086  0.00  0.00    +0.220 A 
ATOM      9  N   UNL     1       8.219  10.204  32.461  0.00  0.00    -0.283 N 
ATOM     36  H   UNL     1       7.608  10.688  31.803  0.00  0.00    +0.155 HD
ATOM     37  N   UNL     1       8.568   8.532  30.854  0.00  0.00    -0.214 NA
BRANCH   4   3
ATOM      1  C   UNL     1       9.232   5.752  26.839  0.00  0.00    +0.020 A 
ATOM      2  C   UNL     1       9.640   6.144  28.168  0.00  0.00    +0.013 A 
ATOM      3  C   UNL     1       8.750   6.922  29.021  0.00  0.00    +0.019 A 
ATOM     38  C   UNL     1       7.443   7.288  28.495  0.00  0.00    +0.120 A 
ATOM     39  N   UNL     1       7.079   6.898  27.210  0.00  0.00    -0.263 NA
ATOM     40  C   UNL     1       7.928   6.151  26.380  0.00  0.00    +0.111 A 
ENDBRANCH   4   3
ENDBRANCH  10   9
BRANCH  12  13
ATOM     13  N   UNL     1      11.089  12.830  35.563  0.00  0.00    -0.281 N 
ATOM     14  C   UNL     1      12.364  12.354  35.819  0.00  0.00    +0.248 C 
ATOM     30  O   UNL     1      12.633  11.183  36.043  0.00  0.00    -0.270 OA
ATOM     31  H   UNL     1      10.975  13.844  35.588  0.00  0.00    +0.155 HD
BRANCH  14  15
ATOM     15  C   UNL     1      13.504  13.320  35.843  0.00  0.00    +0.037 A 
ATOM     16  C   UNL     1      14.069  13.860  34.604  0.00  0.00    +0.013 A 
ATOM     17  C   UNL     1      15.180  14.778  34.655  0.00  0.00    +0.005 A 
ATOM     18  C   UNL     1      15.732  15.163  35.952  0.00  0.00    -0.033 A 
ATOM     28  C   UNL     1      15.149  14.616  37.166  0.00  0.00    +0.005 A 
ATOM     29  C   UNL     1      14.061  13.716  37.120  0.00  0.00    +0.013 A 
BRANCH  18  19
ATOM     19  C   UNL     1      16.930  16.119  36.100  0.00  0.00    +0.119 C 
BRANCH  19  20
ATOM     20  N   UNL     1      16.923  17.358  35.266  0.00  0.00    -0.302 NA
ATOM     21  C   UNL     1      18.288  18.052  35.256  0.00  0.00    +0.066 C 
ATOM     22  C   UNL     1      18.269  19.333  34.360  0.00  0.00    -0.064 C 
ATOM     23  N   UNL     1      17.181  20.285  34.860  0.00  0.00    +0.379 N 
ATOM     24  C   UNL     1      17.200  21.516  34.056  0.00  0.00    -0.096 C 
ATOM     25  H   UNL     1      17.432  20.563  35.910  0.00  0.00    -0.082 HD
ATOM     26  C   UNL     1      15.821  19.602  34.875  0.00  0.00    -0.064 C 
ATOM     27  C   UNL     1      15.859  18.314  35.744  0.00  0.00    +0.066 C 
ENDBRANCH  19  20
ENDBRANCH  18  19
ENDBRANCH  14  15
ENDBRANCH  12  13
TORSDOF 6
ENDMDL
