MODEL 1
REMARK VINA RESULT:      -8.4      0.000      0.000
REMARK  Name = C:\Users\Docking\Desktop\test protocol\1iep_ligandH.pdb
REMARK  8 active torsions:
REMARK  status: ('A' for Active; 'I' for Inactive)
REMARK    1  A    between atoms: _5  and  _11
REMARK    2  A    between atoms: _19  and  _21
REMARK    3  A    between atoms: _22  and  _66
REMARK    4  A    between atoms: _27  and  _30
REMARK    5  A    between atoms: _32  and  _33
REMARK    6  A    between atoms: _38  and  _43
REMARK    7  A    between atoms: _43  and  _46
REMARK    8  A    between atoms: _53  and  _55
REMARK                            x       y       z     vdW  Elec       q    Type
REMARK                         _______ _______ _______ _____ _____    ______ ____
ROOT
ATOM     10  C   UNL     1      11.012  23.235   8.809  0.00  0.00    +0.038 A 
ATOM     11  C   UNL     1      12.135  23.351   7.950  0.00  0.00    +0.047 A 
ATOM     12  C   UNL     1      13.389  22.680   8.256  0.00  0.00    +0.035 A 
ATOM     32  C   UNL     1      13.464  21.898   9.445  0.00  0.00    +0.024 A 
ATOM     33  C   UNL     1      12.333  21.770  10.330  0.00  0.00    +0.007 A 
ATOM     34  C   UNL     1      11.094  22.431  10.035  0.00  0.00    -0.029 A 
ATOM     35  C   UNL     1       9.916  22.265  11.023  0.00  0.00    +0.045 C 
ENDROOT
BRANCH  10   9
ATOM      4  C   UNL     1       8.242  27.153   8.696  0.00  0.00    +0.077 A 
ATOM      5  C   UNL     1       9.215  27.934   9.403  0.00  0.00    +0.048 A 
ATOM      6  C   UNL     1      10.412  27.288   9.785  0.00  0.00    +0.116 A 
ATOM      7  N   UNL     1      10.611  25.960   9.476  0.00  0.00    -0.223 NA
ATOM      8  C   UNL     1       9.651  25.235   8.794  0.00  0.00    +0.220 A 
ATOM      9  N   UNL     1       9.833  23.900   8.466  0.00  0.00    -0.283 N 
ATOM     36  H   UNL     1       9.097  23.398   7.969  0.00  0.00    +0.155 HD
ATOM     37  N   UNL     1       8.498  25.828   8.420  0.00  0.00    -0.214 NA
BRANCH   4   3
ATOM      1  C   UNL     1       5.207  29.528   8.022  0.00  0.00    +0.020 A 
ATOM      2  C   UNL     1       6.485  29.054   8.503  0.00  0.00    +0.013 A 
ATOM      3  C   UNL     1       6.928  27.694   8.223  0.00  0.00    +0.019 A 
ATOM     38  C   UNL     1       6.048  26.832   7.448  0.00  0.00    +0.120 A 
ATOM     39  N   UNL     1       4.823  27.315   7.000  0.00  0.00    -0.263 NA
ATOM     40  C   UNL     1       4.385  28.622   7.265  0.00  0.00    +0.111 A 
ENDBRANCH   4   3
ENDBRANCH  10   9
BRANCH  12  13
ATOM     13  N   UNL     1      14.564  22.768   7.426  0.00  0.00    -0.281 N 
ATOM     14  C   UNL     1      14.661  22.552   6.061  0.00  0.00    +0.248 C 
ATOM     30  O   UNL     1      13.786  22.040   5.378  0.00  0.00    -0.270 OA
ATOM     31  H   UNL     1      15.431  23.019   7.902  0.00  0.00    +0.155 HD
BRANCH  14  15
ATOM     15  C   UNL     1      15.916  22.950   5.354  0.00  0.00    +0.037 A 
ATOM     16  C   UNL     1      15.915  23.266   3.923  0.00  0.00    +0.013 A 
ATOM     17  C   UNL     1      17.143  23.631   3.262  0.00  0.00    +0.005 A 
ATOM     18  C   UNL     1      18.383  23.682   4.033  0.00  0.00    -0.033 A 
ATOM     28  C   UNL     1      18.355  23.368   5.452  0.00  0.00    +0.005 A 
ATOM     29  C   UNL     1      17.153  23.010   6.103  0.00  0.00    +0.013 A 
BRANCH  18  19
ATOM     19  C   UNL     1      19.744  24.040   3.405  0.00  0.00    +0.119 C 
BRANCH  19  20
ATOM     20  N   UNL     1      19.887  25.405   2.817  0.00  0.00    -0.302 NA
ATOM     21  C   UNL     1      21.353  25.776   2.577  0.00  0.00    +0.066 C 
ATOM     22  C   UNL     1      21.484  27.198   1.941  0.00  0.00    -0.064 C 
ATOM     23  N   UNL     1      20.807  28.225   2.850  0.00  0.00    +0.379 N 
ATOM     24  C   UNL     1      20.978  29.571   2.283  0.00  0.00    -0.096 C 
ATOM     25  H   UNL     1      21.331  28.203   3.834  0.00  0.00    -0.082 HD
ATOM     26  C   UNL     1      19.349  27.862   3.096  0.00  0.00    -0.064 C 
ATOM     27  C   UNL     1      19.229  26.436   3.702  0.00  0.00    +0.066 C 
ENDBRANCH  19  20
ENDBRANCH  18  19
ENDBRANCH  14  15
ENDBRANCH  12  13
TORSDOF 6
ENDMDL
MODEL 2
REMARK VINA RESULT:      -8.4      2.057     12.046
REMARK  Name = C:\Users\Docking\Desktop\test protocol\1iep_ligandH.pdb
REMARK  8 active torsions:
REMARK  status: ('A' for Active; 'I' for Inactive)
REMARK    1  A    between atoms: _5  and  _11
REMARK    2  A    between atoms: _19  and  _21
REMARK    3  A    between atoms: _22  and  _66
REMARK    4  A    between atoms: _27  and  _30
REMARK    5  A    between atoms: _32  and  _33
REMARK    6  A    between atoms: _38  and  _43
REMARK    7  A    between atoms: _43  and  _46
REMARK    8  A    between atoms: _53  and  _55
REMARK                            x       y       z     vdW  Elec       q    Type
REMARK                         _______ _______ _______ _____ _____    ______ ____
ROOT
ATOM     10  C   UNL     1      20.072  25.407   4.251  0.00  0.00    +0.038 A 
ATOM     11  C   UNL     1      18.733  25.234   4.687  0.00  0.00    +0.047 A 
ATOM     12  C   UNL     1      18.116  23.918   4.718  0.00  0.00    +0.035 A 
ATOM     32  C   UNL     1      18.892  22.797   4.301  0.00  0.00    +0.024 A 
ATOM     33  C   UNL     1      20.254  22.955   3.855  0.00  0.00    +0.007 A 
ATOM     34  C   UNL     1      20.868  24.251   3.820  0.00  0.00    -0.029 A 
ATOM     35  C   UNL     1      22.329  24.361   3.326  0.00  0.00    +0.045 C 
ENDROOT
BRANCH  10   9
ATOM      4  C   UNL     1      21.200  29.508   2.027  0.00  0.00    +0.077 A 
ATOM      5  C   UNL     1      20.689  29.037   0.772  0.00  0.00    +0.048 A 
ATOM      6  C   UNL     1      20.151  27.731   0.740  0.00  0.00    +0.116 A 
ATOM      7  N   UNL     1      20.130  26.962   1.884  0.00  0.00    -0.223 NA
ATOM      8  C   UNL     1      20.633  27.446   3.077  0.00  0.00    +0.220 A 
ATOM      9  N   UNL     1      20.615  26.694   4.242  0.00  0.00    -0.283 N 
ATOM     36  H   UNL     1      21.002  27.084   5.100  0.00  0.00    +0.155 HD
ATOM     37  N   UNL     1      21.153  28.690   3.134  0.00  0.00    -0.214 NA
BRANCH   4   3
ATOM      1  C   UNL     1      22.083  33.021   3.504  0.00  0.00    +0.020 A 
ATOM      2  C   UNL     1      21.478  31.717   3.363  0.00  0.00    +0.013 A 
ATOM      3  C   UNL     1      21.797  30.867   2.223  0.00  0.00    +0.019 A 
ATOM     38  C   UNL     1      22.741  31.370   1.236  0.00  0.00    +0.120 A 
ATOM     39  N   UNL     1      23.307  32.631   1.398  0.00  0.00    -0.263 NA
ATOM     40  C   UNL     1      23.006  33.458   2.490  0.00  0.00    +0.111 A 
ENDBRANCH   4   3
ENDBRANCH  10   9
BRANCH  12  13
ATOM     13  N   UNL     1      16.758  23.683   5.142  0.00  0.00    -0.281 N 
ATOM     14  C   UNL     1      16.323  22.980   6.254  0.00  0.00    +0.248 C 
ATOM     30  O   UNL     1      17.035  22.262   6.941  0.00  0.00    -0.270 OA
ATOM     31  H   UNL     1      16.029  24.082   4.551  0.00  0.00    +0.155 HD
BRANCH  14  15
ATOM     15  C   UNL     1      14.886  23.078   6.653  0.00  0.00    +0.037 A 
ATOM     16  C   UNL     1      13.876  23.607   5.733  0.00  0.00    +0.013 A 
ATOM     17  C   UNL     1      12.500  23.707   6.150  0.00  0.00    +0.005 A 
ATOM     18  C   UNL     1      12.125  23.274   7.494  0.00  0.00    -0.033 A 
ATOM     28  C   UNL     1      13.146  22.748   8.384  0.00  0.00    +0.005 A 
ATOM     29  C   UNL     1      14.496  22.650   7.980  0.00  0.00    +0.013 A 
BRANCH  18  19
ATOM     19  C   UNL     1      10.684  23.364   8.030  0.00  0.00    +0.119 C 
BRANCH  19  20
ATOM     20  N   UNL     1      10.052  24.717   8.069  0.00  0.00    -0.302 NA
ATOM     21  C   UNL     1      10.894  25.721   8.862  0.00  0.00    +0.066 C 
ATOM     22  C   UNL     1      10.229  27.136   8.874  0.00  0.00    -0.064 C 
ATOM     23  N   UNL     1       8.820  27.029   9.459  0.00  0.00    +0.379 N 
ATOM     24  C   UNL     1       8.214  28.367   9.526  0.00  0.00    -0.096 C 
ATOM     25  H   UNL     1       8.915  26.649  10.503  0.00  0.00    -0.082 HD
ATOM     26  C   UNL     1       7.977  26.031   8.678  0.00  0.00    -0.064 C 
ATOM     27  C   UNL     1       8.661  24.635   8.648  0.00  0.00    +0.066 C 
ENDBRANCH  19  20
ENDBRANCH  18  19
ENDBRANCH  14  15
ENDBRANCH  12  13
TORSDOF 6
ENDMDL
MODEL 3
REMARK VINA RESULT:      -8.2      1.692      2.311
REMARK  Name = C:\Users\Docking\Desktop\test protocol\1iep_ligandH.pdb
REMARK  8 active torsions:
REMARK  status: ('A' for Active; 'I' for Inactive)
REMARK    1  A    between atoms: _5  and  _11
REMARK    2  A    between atoms: _19  and  _21
REMARK    3  A    between atoms: _22  and  _66
REMARK    4  A    between atoms: _27  and  _30
REMARK    5  A    between atoms: _32  and  _33
REMARK    6  A    between atoms: _38  and  _43
REMARK    7  A    between atoms: _43  and  _46
REMARK    8  A    between atoms: _53  and  _55
REMARK                            x       y       z     vdW  Elec       q    Type
REMARK                         _______ _______ _______ _____ _____    ______ ____
ROOT
ATOM     10  C   UNL     1       9.985  23.660   8.552  0.00  0.00    +0.038 A 
ATOM     11  C   UNL     1      11.175  23.859   7.806  0.00  0.00    +0.047 A 
ATOM     12  C   UNL     1      12.411  23.182   8.165  0.00  0.00    +0.035 A 
ATOM     32  C   UNL     1      12.399  22.307   9.290  0.00  0.00    +0.024 A 
ATOM     33  C   UNL     1      11.200  22.093  10.061  0.00  0.00    +0.007 A 
ATOM     34  C   UNL     1       9.978  22.760   9.712  0.00  0.00    -0.029 A 
ATOM     35  C   UNL     1       8.723  22.499  10.578  0.00  0.00    +0.045 C 
ENDROOT
BRANCH  10   9
ATOM      4  C   UNL     1       7.204  27.570   8.428  0.00  0.00    +0.077 A 
ATOM      5  C   UNL     1       8.125  28.322   9.231  0.00  0.00    +0.048 A 
ATOM      6  C   UNL     1       9.299  27.664   9.661  0.00  0.00    +0.116 A 
ATOM      7  N   UNL     1       9.525  26.351   9.309  0.00  0.00    -0.223 NA
ATOM      8  C   UNL     1       8.616  25.654   8.535  0.00  0.00    +0.220 A 
ATOM      9  N   UNL     1       8.827  24.335   8.162  0.00  0.00    -0.283 N 
ATOM     36  H   UNL     1       8.128  23.853   7.597  0.00  0.00    +0.155 HD
ATOM     37  N   UNL     1       7.486  26.259   8.113  0.00  0.00    -0.214 NA
BRANCH   4   3
ATOM      1  C   UNL     1       4.385  30.042   7.314  0.00  0.00    +0.020 A 
ATOM      2  C   UNL     1       5.640  29.556   7.839  0.00  0.00    +0.013 A 
ATOM      3  C   UNL     1       5.921  28.127   7.895  0.00  0.00    +0.019 A 
ATOM     38  C   UNL     1       4.903  27.209   7.405  0.00  0.00    +0.120 A 
ATOM     39  N   UNL     1       3.703  27.706   6.906  0.00  0.00    -0.263 NA
ATOM     40  C   UNL     1       3.421  29.079   6.850  0.00  0.00    +0.111 A 
ENDBRANCH   4   3
ENDBRANCH  10   9
BRANCH  12  13
ATOM     13  N   UNL     1      13.651  23.352   7.450  0.00  0.00    -0.281 N 
ATOM     14  C   UNL     1      14.129  22.605   6.386  0.00  0.00    +0.248 C 
ATOM     30  O   UNL     1      13.657  21.538   6.023  0.00  0.00    -0.270 OA
ATOM     31  H   UNL     1      14.250  24.115   7.767  0.00  0.00    +0.155 HD
BRANCH  14  15
ATOM     15  C   UNL     1      15.312  23.110   5.623  0.00  0.00    +0.037 A 
ATOM     16  C   UNL     1      16.659  23.073   6.198  0.00  0.00    +0.013 A 
ATOM     17  C   UNL     1      17.779  23.582   5.447  0.00  0.00    +0.005 A 
ATOM     18  C   UNL     1      17.557  24.131   4.112  0.00  0.00    -0.033 A 
ATOM     28  C   UNL     1      16.211  24.150   3.564  0.00  0.00    +0.005 A 
ATOM     29  C   UNL     1      15.110  23.653   4.297  0.00  0.00    +0.013 A 
BRANCH  18  19
ATOM     19  C   UNL     1      18.691  24.715   3.248  0.00  0.00    +0.119 C 
BRANCH  19  20
ATOM     20  N   UNL     1      20.022  24.044   3.323  0.00  0.00    -0.302 NA
ATOM     21  C   UNL     1      20.950  24.719   4.337  0.00  0.00    +0.066 C 
ATOM     22  C   UNL     1      22.331  23.990   4.419  0.00  0.00    -0.064 C 
ATOM     23  N   UNL     1      22.973  23.964   3.031  0.00  0.00    +0.379 N 
ATOM     24  C   UNL     1      24.298  23.331   3.116  0.00  0.00    -0.096 C 
ATOM     25  H   UNL     1      23.123  25.020   2.709  0.00  0.00    -0.082 HD
ATOM     26  C   UNL     1      22.057  23.297   2.016  0.00  0.00    -0.064 C 
ATOM     27  C   UNL     1      20.677  24.010   1.964  0.00  0.00    +0.066 C 
ENDBRANCH  19  20
ENDBRANCH  18  19
ENDBRANCH  14  15
ENDBRANCH  12  13
TORSDOF 6
ENDMDL
MODEL 4
REMARK VINA RESULT:      -8.2      1.553      2.299
REMARK  Name = C:\Users\Docking\Desktop\test protocol\1iep_ligandH.pdb
REMARK  8 active torsions:
REMARK  status: ('A' for Active; 'I' for Inactive)
REMARK    1  A    between atoms: _5  and  _11
REMARK    2  A    between atoms: _19  and  _21
REMARK    3  A    between atoms: _22  and  _66
REMARK    4  A    between atoms: _27  and  _30
REMARK    5  A    between atoms: _32  and  _33
REMARK    6  A    between atoms: _38  and  _43
REMARK    7  A    between atoms: _43  and  _46
REMARK    8  A    between atoms: _53  and  _55
REMARK                            x       y       z     vdW  Elec       q    Type
REMARK                         _______ _______ _______ _____ _____    ______ ____
ROOT
ATOM     10  C   UNL     1      11.577  23.472   8.209  0.00  0.00    +0.038 A 
ATOM     11  C   UNL     1      12.686  23.762   7.373  0.00  0.00    +0.047 A 
ATOM     12  C   UNL     1      13.984  23.148   7.604  0.00  0.00    +0.035 A 
ATOM     32  C   UNL     1      14.117  22.240   8.694  0.00  0.00    +0.024 A 
ATOM     33  C   UNL     1      13.001  21.934   9.555  0.00  0.00    +0.007 A 
ATOM     34  C   UNL     1      11.719  22.539   9.333  0.00  0.00    -0.029 A 
ATOM     35  C   UNL     1      10.559  22.180  10.291  0.00  0.00    +0.045 C 
ENDROOT
BRANCH  10   9
ATOM      4  C   UNL     1       8.498  27.128   8.643  0.00  0.00    +0.077 A 
ATOM      5  C   UNL     1       9.391  27.856   9.497  0.00  0.00    +0.048 A 
ATOM      6  C   UNL     1      10.630  27.252   9.807  0.00  0.00    +0.116 A 
ATOM      7  N   UNL     1      10.942  26.011   9.294  0.00  0.00    -0.223 NA
ATOM      8  C   UNL     1      10.057  25.335   8.474  0.00  0.00    +0.220 A 
ATOM      9  N   UNL     1      10.354  24.090   7.941  0.00  0.00    -0.283 N 
ATOM     36  H   UNL     1       9.671  23.621   7.346  0.00  0.00    +0.155 HD
ATOM     37  N   UNL     1       8.867  25.890   8.165  0.00  0.00    -0.214 NA
BRANCH   4   3
ATOM      1  C   UNL     1       5.379  29.424   8.095  0.00  0.00    +0.020 A 
ATOM      2  C   UNL     1       6.686  28.983   8.524  0.00  0.00    +0.013 A 
ATOM      3  C   UNL     1       7.154  27.636   8.223  0.00  0.00    +0.019 A 
ATOM     38  C   UNL     1       6.268  26.753   7.479  0.00  0.00    +0.120 A 
ATOM     39  N   UNL     1       5.014  27.204   7.080  0.00  0.00    -0.263 NA
ATOM     40  C   UNL     1       4.552  28.498   7.365  0.00  0.00    +0.111 A 
ENDBRANCH   4   3
ENDBRANCH  10   9
BRANCH  12  13
ATOM     13  N   UNL     1      15.147  23.410   6.793  0.00  0.00    -0.281 N 
ATOM     14  C   UNL     1      15.420  22.943   5.518  0.00  0.00    +0.248 C 
ATOM     30  O   UNL     1      14.798  22.050   4.961  0.00  0.00    -0.270 OA
ATOM     31  H   UNL     1      15.856  24.014   7.210  0.00  0.00    +0.155 HD
BRANCH  14  15
ATOM     15  C   UNL     1      16.556  23.544   4.756  0.00  0.00    +0.037 A 
ATOM     16  C   UNL     1      16.529  23.632   3.294  0.00  0.00    +0.013 A 
ATOM     17  C   UNL     1      17.646  24.202   2.582  0.00  0.00    +0.005 A 
ATOM     18  C   UNL     1      18.800  24.689   3.334  0.00  0.00    -0.033 A 
ATOM     28  C   UNL     1      18.799  24.594   4.784  0.00  0.00    +0.005 A 
ATOM     29  C   UNL     1      17.706  24.036   5.485  0.00  0.00    +0.013 A 
BRANCH  18  19
ATOM     19  C   UNL     1      20.045  25.292   2.656  0.00  0.00    +0.119 C 
BRANCH  19  20
ATOM     20  N   UNL     1      21.369  24.696   3.004  0.00  0.00    -0.302 NA
ATOM     21  C   UNL     1      22.510  25.321   2.197  0.00  0.00    +0.066 C 
ATOM     22  C   UNL     1      23.891  24.701   2.590  0.00  0.00    -0.064 C 
ATOM     23  N   UNL     1      23.846  23.187   2.381  0.00  0.00    +0.379 N 
ATOM     24  C   UNL     1      25.160  22.609   2.695  0.00  0.00    -0.096 C 
ATOM     25  H   UNL     1      23.643  23.000   1.301  0.00  0.00    -0.082 HD
ATOM     26  C   UNL     1      22.712  22.558   3.179  0.00  0.00    -0.064 C 
ATOM     27  C   UNL     1      21.348  23.201   2.801  0.00  0.00    +0.066 C 
ENDBRANCH  19  20
ENDBRANCH  18  19
ENDBRANCH  14  15
ENDBRANCH  12  13
TORSDOF 6
ENDMDL
MODEL 5
REMARK VINA RESULT:      -8.0      3.146      4.654
REMARK  Name = C:\Users\Docking\Desktop\test protocol\1iep_ligandH.pdb
REMARK  8 active torsions:
REMARK  status: ('A' for Active; 'I' for Inactive)
REMARK    1  A    between atoms: _5  and  _11
REMARK    2  A    between atoms: _19  and  _21
REMARK    3  A    between atoms: _22  and  _66
REMARK    4  A    between atoms: _27  and  _30
REMARK    5  A    between atoms: _32  and  _33
REMARK    6  A    between atoms: _38  and  _43
REMARK    7  A    between atoms: _43  and  _46
REMARK    8  A    between atoms: _53  and  _55
REMARK                            x       y       z     vdW  Elec       q    Type
REMARK                         _______ _______ _______ _____ _____    ______ ____
ROOT
ATOM     10  C   UNL     1      12.406  24.246   4.188  0.00  0.00    +0.038 A 
ATOM     11  C   UNL     1      13.778  24.589   4.289  0.00  0.00    +0.047 A 
ATOM     12  C   UNL     1      14.814  23.703   3.781  0.00  0.00    +0.035 A 
ATOM     32  C   UNL     1      14.416  22.477   3.174  0.00  0.00    +0.024 A 
ATOM     33  C   UNL     1      13.026  22.112   3.064  0.00  0.00    +0.007 A 
ATOM     34  C   UNL     1      11.999  22.981   3.565  0.00  0.00    -0.029 A 
ATOM     35  C   UNL     1      10.525  22.536   3.426  0.00  0.00    +0.045 C 
ENDROOT
BRANCH  10   9
ATOM      4  C   UNL     1       9.788  26.053   7.783  0.00  0.00    +0.077 A 
ATOM      5  C   UNL     1      10.347  25.133   8.731  0.00  0.00    +0.048 A 
ATOM      6  C   UNL     1      11.299  24.206   8.252  0.00  0.00    +0.116 A 
ATOM      7  N   UNL     1      11.659  24.208   6.921  0.00  0.00    -0.223 NA
ATOM      8  C   UNL     1      11.100  25.109   6.033  0.00  0.00    +0.220 A 
ATOM      9  N   UNL     1      11.453  25.134   4.693  0.00  0.00    -0.283 N 
ATOM     36  H   UNL     1      11.012  25.809   4.068  0.00  0.00    +0.155 HD
ATOM     37  N   UNL     1      10.187  26.003   6.466  0.00  0.00    -0.214 NA
BRANCH   4   3
ATOM      1  C   UNL     1       7.716  28.735   9.737  0.00  0.00    +0.020 A 
ATOM      2  C   UNL     1       8.717  27.734   9.446  0.00  0.00    +0.013 A 
ATOM      3  C   UNL     1       8.773  27.095   8.137  0.00  0.00    +0.019 A 
ATOM     38  C   UNL     1       7.795  27.496   7.136  0.00  0.00    +0.120 A 
ATOM     39  N   UNL     1       6.842  28.461   7.445  0.00  0.00    -0.263 NA
ATOM     40  C   UNL     1       6.777  29.082   8.702  0.00  0.00    +0.111 A 
ENDBRANCH   4   3
ENDBRANCH  10   9
BRANCH  12  13
ATOM     13  N   UNL     1      16.224  23.994   3.863  0.00  0.00    -0.281 N 
ATOM     14  C   UNL     1      17.097  23.695   4.896  0.00  0.00    +0.248 C 
ATOM     30  O   UNL     1      16.751  23.320   6.006  0.00  0.00    -0.270 OA
ATOM     31  H   UNL     1      16.628  24.479   3.061  0.00  0.00    +0.155 HD
BRANCH  14  15
ATOM     15  C   UNL     1      18.566  23.850   4.668  0.00  0.00    +0.037 A 
ATOM     16  C   UNL     1      19.197  25.172   4.649  0.00  0.00    +0.013 A 
ATOM     17  C   UNL     1      20.613  25.295   4.410  0.00  0.00    +0.005 A 
ATOM     18  C   UNL     1      21.409  24.089   4.189  0.00  0.00    -0.033 A 
ATOM     28  C   UNL     1      20.758  22.790   4.219  0.00  0.00    +0.005 A 
ATOM     29  C   UNL     1      19.370  22.666   4.452  0.00  0.00    +0.013 A 
BRANCH  18  19
ATOM     19  C   UNL     1      22.922  24.127   3.906  0.00  0.00    +0.119 C 
BRANCH  19  20
ATOM     20  N   UNL     1      23.440  23.221   2.837  0.00  0.00    -0.302 NA
ATOM     21  C   UNL     1      24.832  22.677   3.170  0.00  0.00    +0.066 C 
ATOM     22  C   UNL     1      25.349  21.714   2.052  0.00  0.00    -0.064 C 
ATOM     23  N   UNL     1      25.363  22.453   0.713  0.00  0.00    +0.379 N 
ATOM     24  C   UNL     1      25.903  21.568  -0.330  0.00  0.00    -0.096 C 
ATOM     25  H   UNL     1      26.055  23.320   0.813  0.00  0.00    -0.082 HD
ATOM     26  C   UNL     1      23.983  23.000   0.375  0.00  0.00    -0.064 C 
ATOM     27  C   UNL     1      23.466  23.932   1.506  0.00  0.00    +0.066 C 
ENDBRANCH  19  20
ENDBRANCH  18  19
ENDBRANCH  14  15
ENDBRANCH  12  13
TORSDOF 6
ENDMDL
