MODEL 1
REMARK VINA RESULT:      -8.0      0.000      0.000
REMARK  Name = C:\Users\Docking\Desktop\test protocol\1iep_ligandH.pdb
REMARK  8 active torsions:
REMARK  status: ('A' for Active; 'I' for Inactive)
REMARK    1  A    between atoms: _5  and  _11
REMARK    2  A    between atoms: _19  and  _21
REMARK    3  A    between atoms: _22  and  _66
REMARK    4  A    between atoms: _27  and  _30
REMARK    5  A    between atoms: _32  and  _33
REMARK    6  A    between atoms: _38  and  _43
REMARK    7  A    between atoms: _43  and  _46
REMARK    8  A    between atoms: _53  and  _55
REMARK                            x       y       z     vdW  Elec       q    Type
REMARK                         _______ _______ _______ _____ _____    ______ ____
ROOT
ATOM     10  C   UNL     1      10.813  24.285   8.587  0.00  0.00    +0.038 A 
ATOM     11  C   UNL     1      11.925  24.343   7.708  0.00  0.00    +0.047 A 
ATOM     12  C   UNL     1      13.254  23.951   8.150  0.00  0.00    +0.035 A 
ATOM     32  C   UNL     1      13.414  23.502   9.494  0.00  0.00    +0.024 A 
ATOM     33  C   UNL     1      12.295  23.439  10.401  0.00  0.00    +0.007 A 
ATOM     34  C   UNL     1      10.982  23.827   9.971  0.00  0.00    -0.029 A 
ATOM     35  C   UNL     1       9.820  23.745  10.988  0.00  0.00    +0.045 C 
ENDROOT
BRANCH  10   9
ATOM      4  C   UNL     1       7.539  27.630   7.524  0.00  0.00    +0.077 A 
ATOM      5  C   UNL     1       8.388  28.692   7.982  0.00  0.00    +0.048 A 
ATOM      6  C   UNL     1       9.657  28.334   8.492  0.00  0.00    +0.116 A 
ATOM      7  N   UNL     1      10.037  27.010   8.533  0.00  0.00    -0.223 NA
ATOM      8  C   UNL     1       9.194  26.011   8.084  0.00  0.00    +0.220 A 
ATOM      9  N   UNL     1       9.559  24.674   8.110  0.00  0.00    -0.283 N 
ATOM     36  H   UNL     1       8.905  23.966   7.776  0.00  0.00    +0.155 HD
ATOM     37  N   UNL     1       7.976  26.327   7.595  0.00  0.00    -0.214 NA
BRANCH   4   3
ATOM      1  C   UNL     1       3.808  28.724   7.088  0.00  0.00    +0.020 A 
ATOM      2  C   UNL     1       5.112  28.539   7.682  0.00  0.00    +0.013 A 
ATOM      3  C   UNL     1       6.171  27.849   6.956  0.00  0.00    +0.019 A 
ATOM     38  C   UNL     1       5.875  27.355   5.619  0.00  0.00    +0.120 A 
ATOM     39  N   UNL     1       4.610  27.547   5.074  0.00  0.00    -0.263 NA
ATOM     40  C   UNL     1       3.583  28.207   5.764  0.00  0.00    +0.111 A 
ENDBRANCH   4   3
ENDBRANCH  10   9
BRANCH  12  13
ATOM     13  N   UNL     1      14.422  23.995   7.306  0.00  0.00    -0.281 N 
ATOM     14  C   UNL     1      14.920  22.994   6.488  0.00  0.00    +0.248 C 
ATOM     30  O   UNL     1      14.555  21.828   6.522  0.00  0.00    -0.270 OA
ATOM     31  H   UNL     1      14.945  24.871   7.311  0.00  0.00    +0.155 HD
BRANCH  14  15
ATOM     15  C   UNL     1      15.988  23.334   5.499  0.00  0.00    +0.037 A 
ATOM     16  C   UNL     1      15.675  23.543   4.083  0.00  0.00    +0.013 A 
ATOM     17  C   UNL     1      16.726  23.854   3.148  0.00  0.00    +0.005 A 
ATOM     18  C   UNL     1      18.103  23.958   3.626  0.00  0.00    -0.033 A 
ATOM     28  C   UNL     1      18.385  23.751   5.037  0.00  0.00    +0.005 A 
ATOM     29  C   UNL     1      17.357  23.446   5.957  0.00  0.00    +0.013 A 
BRANCH  18  19
ATOM     19  C   UNL     1      19.291  24.264   2.696  0.00  0.00    +0.119 C 
BRANCH  19  20
ATOM     20  N   UNL     1      19.898  25.626   2.787  0.00  0.00    -0.302 NA
ATOM     21  C   UNL     1      18.955  26.711   2.260  0.00  0.00    +0.066 C 
ATOM     22  C   UNL     1      19.597  28.132   2.384  0.00  0.00    -0.064 C 
ATOM     23  N   UNL     1      20.927  28.155   1.628  0.00  0.00    +0.379 N 
ATOM     24  C   UNL     1      21.505  29.505   1.694  0.00  0.00    -0.096 C 
ATOM     25  H   UNL     1      20.711  27.931   0.558  0.00  0.00    -0.082 HD
ATOM     26  C   UNL     1      21.869  27.077   2.144  0.00  0.00    -0.064 C 
ATOM     27  C   UNL     1      21.210  25.673   2.044  0.00  0.00    +0.066 C 
ENDBRANCH  19  20
ENDBRANCH  18  19
ENDBRANCH  14  15
ENDBRANCH  12  13
TORSDOF 6
ENDMDL
MODEL 2
REMARK VINA RESULT:      -7.8      4.224     12.896
REMARK  Name = C:\Users\Docking\Desktop\test protocol\1iep_ligandH.pdb
REMARK  8 active torsions:
REMARK  status: ('A' for Active; 'I' for Inactive)
REMARK    1  A    between atoms: _5  and  _11
REMARK    2  A    between atoms: _19  and  _21
REMARK    3  A    between atoms: _22  and  _66
REMARK    4  A    between atoms: _27  and  _30
REMARK    5  A    between atoms: _32  and  _33
REMARK    6  A    between atoms: _38  and  _43
REMARK    7  A    between atoms: _43  and  _46
REMARK    8  A    between atoms: _53  and  _55
REMARK                            x       y       z     vdW  Elec       q    Type
REMARK                         _______ _______ _______ _____ _____    ______ ____
ROOT
ATOM     10  C   UNL     1      20.706  25.452   3.331  0.00  0.00    +0.038 A 
ATOM     11  C   UNL     1      19.679  25.225   4.283  0.00  0.00    +0.047 A 
ATOM     12  C   UNL     1      18.938  23.974   4.307  0.00  0.00    +0.035 A 
ATOM     32  C   UNL     1      19.270  22.974   3.347  0.00  0.00    +0.024 A 
ATOM     33  C   UNL     1      20.310  23.188   2.372  0.00  0.00    +0.007 A 
ATOM     34  C   UNL     1      21.043  24.421   2.342  0.00  0.00    -0.029 A 
ATOM     35  C   UNL     1      22.143  24.599   1.270  0.00  0.00    +0.045 C 
ENDROOT
BRANCH  10   9
ATOM      4  C   UNL     1      21.662  29.799   1.534  0.00  0.00    +0.077 A 
ATOM      5  C   UNL     1      20.750  29.613   0.442  0.00  0.00    +0.048 A 
ATOM      6  C   UNL     1      20.060  28.382   0.375  0.00  0.00    +0.116 A 
ATOM      7  N   UNL     1      20.273  27.416   1.335  0.00  0.00    -0.223 NA
ATOM      8  C   UNL     1      21.161  27.627   2.374  0.00  0.00    +0.220 A 
ATOM      9  N   UNL     1      21.386  26.672   3.354  0.00  0.00    -0.283 N 
ATOM     36  H   UNL     1      22.054  26.863   4.100  0.00  0.00    +0.155 HD
ATOM     37  N   UNL     1      21.834  28.793   2.459  0.00  0.00    -0.214 NA
BRANCH   4   3
ATOM      1  C   UNL     1      23.962  32.904   0.927  0.00  0.00    +0.020 A 
ATOM      2  C   UNL     1      23.204  31.701   0.672  0.00  0.00    +0.013 A 
ATOM      3  C   UNL     1      22.463  31.046   1.743  0.00  0.00    +0.019 A 
ATOM     38  C   UNL     1      22.508  31.641   3.070  0.00  0.00    +0.120 A 
ATOM     39  N   UNL     1      23.247  32.800   3.286  0.00  0.00    -0.263 NA
ATOM     40  C   UNL     1      23.966  33.437   2.264  0.00  0.00    +0.111 A 
ENDBRANCH   4   3
ENDBRANCH  10   9
BRANCH  12  13
ATOM     13  N   UNL     1      17.880  23.690   5.245  0.00  0.00    -0.281 N 
ATOM     14  C   UNL     1      17.844  22.702   6.215  0.00  0.00    +0.248 C 
ATOM     30  O   UNL     1      18.632  21.770   6.281  0.00  0.00    -0.270 OA
ATOM     31  H   UNL     1      17.058  24.291   5.187  0.00  0.00    +0.155 HD
BRANCH  14  15
ATOM     15  C   UNL     1      16.769  22.746   7.252  0.00  0.00    +0.037 A 
ATOM     16  C   UNL     1      15.457  23.331   6.961  0.00  0.00    +0.013 A 
ATOM     17  C   UNL     1      14.443  23.377   7.985  0.00  0.00    +0.005 A 
ATOM     18  C   UNL     1      14.737  22.834   9.309  0.00  0.00    -0.033 A 
ATOM     28  C   UNL     1      16.045  22.255   9.568  0.00  0.00    +0.005 A 
ATOM     29  C   UNL     1      17.042  22.210   8.568  0.00  0.00    +0.013 A 
BRANCH  18  19
ATOM     19  C   UNL     1      13.723  22.860  10.468  0.00  0.00    +0.119 C 
BRANCH  19  20
ATOM     20  N   UNL     1      12.274  22.801  10.110  0.00  0.00    -0.302 NA
ATOM     21  C   UNL     1      11.406  23.585  11.098  0.00  0.00    +0.066 C 
ATOM     22  C   UNL     1       9.896  23.531  10.695  0.00  0.00    -0.064 C 
ATOM     23  N   UNL     1       9.444  22.072  10.616  0.00  0.00    +0.379 N 
ATOM     24  C   UNL     1       8.010  22.019  10.295  0.00  0.00    -0.096 C 
ATOM     25  H   UNL     1       9.581  21.620  11.626  0.00  0.00    -0.082 HD
ATOM     26  C   UNL     1      10.304  21.284   9.638  0.00  0.00    -0.064 C 
ATOM     27  C   UNL     1      11.806  21.369  10.030  0.00  0.00    +0.066 C 
ENDBRANCH  19  20
ENDBRANCH  18  19
ENDBRANCH  14  15
ENDBRANCH  12  13
TORSDOF 6
ENDMDL
MODEL 3
REMARK VINA RESULT:      -7.8      2.222     12.301
REMARK  Name = C:\Users\Docking\Desktop\test protocol\1iep_ligandH.pdb
REMARK  8 active torsions:
REMARK  status: ('A' for Active; 'I' for Inactive)
REMARK    1  A    between atoms: _5  and  _11
REMARK    2  A    between atoms: _19  and  _21
REMARK    3  A    between atoms: _22  and  _66
REMARK    4  A    between atoms: _27  and  _30
REMARK    5  A    between atoms: _32  and  _33
REMARK    6  A    between atoms: _38  and  _43
REMARK    7  A    between atoms: _43  and  _46
REMARK    8  A    between atoms: _53  and  _55
REMARK                            x       y       z     vdW  Elec       q    Type
REMARK                         _______ _______ _______ _____ _____    ______ ____
ROOT
ATOM     10  C   UNL     1      14.901  23.449   8.199  0.00  0.00    +0.038 A 
ATOM     11  C   UNL     1      13.777  24.292   8.006  0.00  0.00    +0.047 A 
ATOM     12  C   UNL     1      12.481  23.961   8.577  0.00  0.00    +0.035 A 
ATOM     32  C   UNL     1      12.366  22.764   9.342  0.00  0.00    +0.024 A 
ATOM     33  C   UNL     1      13.497  21.895   9.548  0.00  0.00    +0.007 A 
ATOM     34  C   UNL     1      14.778  22.215   8.985  0.00  0.00    -0.029 A 
ATOM     35  C   UNL     1      15.955  21.243   9.232  0.00  0.00    +0.045 C 
ENDROOT
BRANCH  10   9
ATOM      4  C   UNL     1      18.007  23.531   4.540  0.00  0.00    +0.077 A 
ATOM      5  C   UNL     1      17.135  22.755   3.706  0.00  0.00    +0.048 A 
ATOM      6  C   UNL     1      15.900  22.349   4.258  0.00  0.00    +0.116 A 
ATOM      7  N   UNL     1      15.571  22.698   5.550  0.00  0.00    -0.223 NA
ATOM      8  C   UNL     1      16.435  23.446   6.328  0.00  0.00    +0.220 A 
ATOM      9  N   UNL     1      16.121  23.815   7.627  0.00  0.00    -0.283 N 
ATOM     36  H   UNL     1      16.789  24.361   8.172  0.00  0.00    +0.155 HD
ATOM     37  N   UNL     1      17.621  23.845   5.825  0.00  0.00    -0.214 NA
BRANCH   4   3
ATOM      1  C   UNL     1      21.121  25.822   3.947  0.00  0.00    +0.020 A 
ATOM      2  C   UNL     1      19.820  25.382   4.396  0.00  0.00    +0.013 A 
ATOM      3  C   UNL     1      19.344  24.037   4.099  0.00  0.00    +0.019 A 
ATOM     38  C   UNL     1      20.217  23.154   3.339  0.00  0.00    +0.120 A 
ATOM     39  N   UNL     1      21.464  23.606   2.918  0.00  0.00    -0.263 NA
ATOM     40  C   UNL     1      21.931  24.898   3.197  0.00  0.00    +0.111 A 
ENDBRANCH   4   3
ENDBRANCH  10   9
BRANCH  12  13
ATOM     13  N   UNL     1      11.302  24.774   8.408  0.00  0.00    -0.281 N 
ATOM     14  C   UNL     1      11.215  26.157   8.405  0.00  0.00    +0.248 C 
ATOM     30  O   UNL     1      12.111  26.907   8.763  0.00  0.00    -0.270 OA
ATOM     31  H   UNL     1      10.426  24.270   8.273  0.00  0.00    +0.155 HD
BRANCH  14  15
ATOM     15  C   UNL     1       9.943  26.799   7.953  0.00  0.00    +0.037 A 
ATOM     16  C   UNL     1       9.297  26.405   6.698  0.00  0.00    +0.013 A 
ATOM     17  C   UNL     1       8.080  27.053   6.277  0.00  0.00    +0.005 A 
ATOM     18  C   UNL     1       7.500  28.101   7.113  0.00  0.00    -0.033 A 
ATOM     28  C   UNL     1       8.159  28.469   8.356  0.00  0.00    +0.005 A 
ATOM     29  C   UNL     1       9.353  27.837   8.771  0.00  0.00    +0.013 A 
BRANCH  18  19
ATOM     19  C   UNL     1       6.216  28.860   6.732  0.00  0.00    +0.119 C 
BRANCH  19  20
ATOM     20  N   UNL     1       4.914  28.244   7.128  0.00  0.00    -0.302 NA
ATOM     21  C   UNL     1       4.289  27.438   5.986  0.00  0.00    +0.066 C 
ATOM     22  C   UNL     1       2.940  26.782   6.424  0.00  0.00    -0.064 C 
ATOM     23  N   UNL     1       1.980  27.871   6.906  0.00  0.00    +0.379 N 
ATOM     24  C   UNL     1       0.689  27.264   7.265  0.00  0.00    -0.096 C 
ATOM     25  H   UNL     1       1.801  28.566   6.053  0.00  0.00    -0.082 HD
ATOM     26  C   UNL     1       2.594  28.679   8.040  0.00  0.00    -0.064 C 
ATOM     27  C   UNL     1       3.949  29.303   7.603  0.00  0.00    +0.066 C 
ENDBRANCH  19  20
ENDBRANCH  18  19
ENDBRANCH  14  15
ENDBRANCH  12  13
TORSDOF 6
ENDMDL
MODEL 4
REMARK VINA RESULT:      -7.7      2.785      4.146
REMARK  Name = C:\Users\Docking\Desktop\test protocol\1iep_ligandH.pdb
REMARK  8 active torsions:
REMARK  status: ('A' for Active; 'I' for Inactive)
REMARK    1  A    between atoms: _5  and  _11
REMARK    2  A    between atoms: _19  and  _21
REMARK    3  A    between atoms: _22  and  _66
REMARK    4  A    between atoms: _27  and  _30
REMARK    5  A    between atoms: _32  and  _33
REMARK    6  A    between atoms: _38  and  _43
REMARK    7  A    between atoms: _43  and  _46
REMARK    8  A    between atoms: _53  and  _55
REMARK                            x       y       z     vdW  Elec       q    Type
REMARK                         _______ _______ _______ _____ _____    ______ ____
ROOT
ATOM     10  C   UNL     1      13.871  23.881   8.596  0.00  0.00    +0.038 A 
ATOM     11  C   UNL     1      14.994  24.100   7.758  0.00  0.00    +0.047 A 
ATOM     12  C   UNL     1      16.109  23.166   7.734  0.00  0.00    +0.035 A 
ATOM     32  C   UNL     1      16.046  22.017   8.576  0.00  0.00    +0.024 A 
ATOM     33  C   UNL     1      14.913  21.779   9.435  0.00  0.00    +0.007 A 
ATOM     34  C   UNL     1      13.811  22.699   9.464  0.00  0.00    -0.029 A 
ATOM     35  C   UNL     1      12.625  22.397  10.410  0.00  0.00    +0.045 C 
ENDROOT
BRANCH  10   9
ATOM      4  C   UNL     1       9.956  25.813   6.603  0.00  0.00    +0.077 A 
ATOM      5  C   UNL     1      10.007  24.912   5.488  0.00  0.00    +0.048 A 
ATOM      6  C   UNL     1      11.061  23.971   5.461  0.00  0.00    +0.116 A 
ATOM      7  N   UNL     1      11.988  23.942   6.480  0.00  0.00    -0.223 NA
ATOM      8  C   UNL     1      11.911  24.827   7.540  0.00  0.00    +0.220 A 
ATOM      9  N   UNL     1      12.829  24.810   8.579  0.00  0.00    -0.283 N 
ATOM     36  H   UNL     1      12.742  25.484   9.339  0.00  0.00    +0.155 HD
ATOM     37  N   UNL     1      10.915  25.736   7.587  0.00  0.00    -0.214 NA
BRANCH   4   3
ATOM      1  C   UNL     1       7.594  28.511   8.165  0.00  0.00    +0.020 A 
ATOM      2  C   UNL     1       8.623  27.504   8.053  0.00  0.00    +0.013 A 
ATOM      3  C   UNL     1       8.901  26.862   6.775  0.00  0.00    +0.019 A 
ATOM     38  C   UNL     1       8.114  27.266   5.619  0.00  0.00    +0.120 A 
ATOM     39  N   UNL     1       7.128  28.238   5.758  0.00  0.00    -0.263 NA
ATOM     40  C   UNL     1       6.851  28.861   6.984  0.00  0.00    +0.111 A 
ENDBRANCH   4   3
ENDBRANCH  10   9
BRANCH  12  13
ATOM     13  N   UNL     1      17.279  23.339   6.910  0.00  0.00    -0.281 N 
ATOM     14  C   UNL     1      17.343  23.419   5.528  0.00  0.00    +0.248 C 
ATOM     30  O   UNL     1      16.422  23.137   4.776  0.00  0.00    -0.270 OA
ATOM     31  H   UNL     1      18.168  23.413   7.405  0.00  0.00    +0.155 HD
BRANCH  14  15
ATOM     15  C   UNL     1      18.620  23.862   4.889  0.00  0.00    +0.037 A 
ATOM     16  C   UNL     1      18.989  25.278   4.830  0.00  0.00    +0.013 A 
ATOM     17  C   UNL     1      20.218  25.680   4.192  0.00  0.00    +0.005 A 
ATOM     18  C   UNL     1      21.088  24.661   3.610  0.00  0.00    -0.033 A 
ATOM     28  C   UNL     1      20.700  23.263   3.687  0.00  0.00    +0.005 A 
ATOM     29  C   UNL     1      19.496  22.866   4.310  0.00  0.00    +0.013 A 
BRANCH  18  19
ATOM     19  C   UNL     1      22.408  25.000   2.892  0.00  0.00    +0.119 C 
BRANCH  19  20
ATOM     20  N   UNL     1      23.217  23.857   2.374  0.00  0.00    -0.302 NA
ATOM     21  C   UNL     1      24.518  23.671   3.161  0.00  0.00    +0.066 C 
ATOM     22  C   UNL     1      25.342  22.458   2.620  0.00  0.00    -0.064 C 
ATOM     23  N   UNL     1      25.633  22.665   1.133  0.00  0.00    +0.379 N 
ATOM     24  C   UNL     1      26.457  21.554   0.635  0.00  0.00    -0.096 C 
ATOM     25  H   UNL     1      26.231  23.601   1.033  0.00  0.00    -0.082 HD
ATOM     26  C   UNL     1      24.346  22.853   0.343  0.00  0.00    -0.064 C 
ATOM     27  C   UNL     1      23.521  24.043   0.907  0.00  0.00    +0.066 C 
ENDBRANCH  19  20
ENDBRANCH  18  19
ENDBRANCH  14  15
ENDBRANCH  12  13
TORSDOF 6
ENDMDL
MODEL 5
REMARK VINA RESULT:      -7.5      2.043      3.459
REMARK  Name = C:\Users\Docking\Desktop\test protocol\1iep_ligandH.pdb
REMARK  8 active torsions:
REMARK  status: ('A' for Active; 'I' for Inactive)
REMARK    1  A    between atoms: _5  and  _11
REMARK    2  A    between atoms: _19  and  _21
REMARK    3  A    between atoms: _22  and  _66
REMARK    4  A    between atoms: _27  and  _30
REMARK    5  A    between atoms: _32  and  _33
REMARK    6  A    between atoms: _38  and  _43
REMARK    7  A    between atoms: _43  and  _46
REMARK    8  A    between atoms: _53  and  _55
REMARK                            x       y       z     vdW  Elec       q    Type
REMARK                         _______ _______ _______ _____ _____    ______ ____
ROOT
ATOM     10  C   UNL     1      14.050  23.769   8.363  0.00  0.00    +0.038 A 
ATOM     11  C   UNL     1      15.146  24.139   7.542  0.00  0.00    +0.047 A 
ATOM     12  C   UNL     1      16.312  23.278   7.411  0.00  0.00    +0.035 A 
ATOM     32  C   UNL     1      16.326  22.047   8.128  0.00  0.00    +0.024 A 
ATOM     33  C   UNL     1      15.221  21.656   8.968  0.00  0.00    +0.007 A 
ATOM     34  C   UNL     1      14.070  22.502   9.103  0.00  0.00    -0.029 A 
ATOM     35  C   UNL     1      12.917  22.036  10.022  0.00  0.00    +0.045 C 
ENDROOT
BRANCH  10   9
ATOM      4  C   UNL     1      10.380  26.168   6.409  0.00  0.00    +0.077 A 
ATOM      5  C   UNL     1      10.683  25.679   5.095  0.00  0.00    +0.048 A 
ATOM      6  C   UNL     1      11.796  24.818   4.963  0.00  0.00    +0.116 A 
ATOM      7  N   UNL     1      12.543  24.478   6.070  0.00  0.00    -0.223 NA
ATOM      8  C   UNL     1      12.224  24.969   7.323  0.00  0.00    +0.220 A 
ATOM      9  N   UNL     1      12.957  24.634   8.452  0.00  0.00    -0.283 N 
ATOM     36  H   UNL     1      12.694  25.022   9.357  0.00  0.00    +0.155 HD
ATOM     37  N   UNL     1      11.167  25.793   7.475  0.00  0.00    -0.214 NA
BRANCH   4   3
ATOM      1  C   UNL     1       7.835  28.471   8.284  0.00  0.00    +0.020 A 
ATOM      2  C   UNL     1       8.954  27.589   8.048  0.00  0.00    +0.013 A 
ATOM      3  C   UNL     1       9.234  27.083   6.710  0.00  0.00    +0.019 A 
ATOM     38  C   UNL     1       8.355  27.492   5.625  0.00  0.00    +0.120 A 
ATOM     39  N   UNL     1       7.284  28.342   5.883  0.00  0.00    -0.263 NA
ATOM     40  C   UNL     1       7.004  28.833   7.167  0.00  0.00    +0.111 A 
ENDBRANCH   4   3
ENDBRANCH  10   9
BRANCH  12  13
ATOM     13  N   UNL     1      17.458  23.604   6.599  0.00  0.00    -0.281 N 
ATOM     14  C   UNL     1      17.530  23.677   5.217  0.00  0.00    +0.248 C 
ATOM     30  O   UNL     1      16.667  23.262   4.457  0.00  0.00    -0.270 OA
ATOM     31  H   UNL     1      18.321  23.806   7.104  0.00  0.00    +0.155 HD
BRANCH  14  15
ATOM     15  C   UNL     1      18.741  24.286   4.588  0.00  0.00    +0.037 A 
ATOM     16  C   UNL     1      19.166  25.648   4.920  0.00  0.00    +0.013 A 
ATOM     17  C   UNL     1      20.328  26.218   4.286  0.00  0.00    +0.005 A 
ATOM     18  C   UNL     1      21.075  25.424   3.314  0.00  0.00    -0.033 A 
ATOM     28  C   UNL     1      20.635  24.073   3.007  0.00  0.00    +0.005 A 
ATOM     29  C   UNL     1      19.495  23.512   3.626  0.00  0.00    +0.013 A 
BRANCH  18  19
ATOM     19  C   UNL     1      22.315  25.958   2.573  0.00  0.00    +0.119 C 
BRANCH  19  20
ATOM     20  N   UNL     1      22.079  26.869   1.413  0.00  0.00    -0.302 NA
ATOM     21  C   UNL     1      21.428  28.187   1.841  0.00  0.00    +0.066 C 
ATOM     22  C   UNL     1      21.209  29.137   0.619  0.00  0.00    -0.064 C 
ATOM     23  N   UNL     1      20.352  28.425  -0.429  0.00  0.00    +0.379 N 
ATOM     24  C   UNL     1      20.095  29.336  -1.554  0.00  0.00    -0.096 C 
ATOM     25  H   UNL     1      19.371  28.185   0.043  0.00  0.00    -0.082 HD
ATOM     26  C   UNL     1      20.990  27.112  -0.859  0.00  0.00    -0.064 C 
ATOM     27  C   UNL     1      21.231  26.187   0.368  0.00  0.00    +0.066 C 
ENDBRANCH  19  20
ENDBRANCH  18  19
ENDBRANCH  14  15
ENDBRANCH  12  13
TORSDOF 6
ENDMDL
