MODEL 1
REMARK VINA RESULT:      -8.7      0.000      0.000
REMARK  Name = C:\Users\Docking\Desktop\test protocol\1iep_ligandH.pdb
REMARK  8 active torsions:
REMARK  status: ('A' for Active; 'I' for Inactive)
REMARK    1  A    between atoms: _5  and  _11
REMARK    2  A    between atoms: _19  and  _21
REMARK    3  A    between atoms: _22  and  _66
REMARK    4  A    between atoms: _27  and  _30
REMARK    5  A    between atoms: _32  and  _33
REMARK    6  A    between atoms: _38  and  _43
REMARK    7  A    between atoms: _43  and  _46
REMARK    8  A    between atoms: _53  and  _55
REMARK                            x       y       z     vdW  Elec       q    Type
REMARK                         _______ _______ _______ _____ _____    ______ ____
ROOT
ATOM     10  C   UNL     1      42.084  14.678 204.167  0.00  0.00    +0.038 A 
ATOM     11  C   UNL     1      42.483  13.578 203.365  0.00  0.00    +0.047 A 
ATOM     12  C   UNL     1      42.070  13.472 201.975  0.00  0.00    +0.035 A 
ATOM     32  C   UNL     1      41.253  14.505 201.432  0.00  0.00    +0.024 A 
ATOM     33  C   UNL     1      40.837  15.630 202.233  0.00  0.00    +0.007 A 
ATOM     34  C   UNL     1      41.239  15.739 203.606  0.00  0.00    -0.029 A 
ATOM     35  C   UNL     1      40.758  16.963 204.419  0.00  0.00    +0.045 C 
ENDROOT
BRANCH  10   9
ATOM      4  C   UNL     1      41.381  13.992 208.866  0.00  0.00    +0.077 A 
ATOM      5  C   UNL     1      40.044  13.517 208.656  0.00  0.00    +0.048 A 
ATOM      6  C   UNL     1      39.572  13.471 207.325  0.00  0.00    +0.116 A 
ATOM      7  N   UNL     1      40.386  13.873 206.288  0.00  0.00    -0.223 NA
ATOM      8  C   UNL     1      41.670  14.328 206.525  0.00  0.00    +0.220 A 
ATOM      9  N   UNL     1      42.509  14.729 205.497  0.00  0.00    -0.283 N 
ATOM     36  H   UNL     1      43.447  15.065 205.713  0.00  0.00    +0.155 HD
ATOM     37  N   UNL     1      42.144  14.382 207.787  0.00  0.00    -0.214 NA
BRANCH   4   3
ATOM      1  C   UNL     1      43.570  15.198 211.875  0.00  0.00    +0.020 A 
ATOM      2  C   UNL     1      42.978  15.142 210.558  0.00  0.00    +0.013 A 
ATOM      3  C   UNL     1      42.023  14.096 210.214  0.00  0.00    +0.019 A 
ATOM     38  C   UNL     1      41.685  13.115 211.234  0.00  0.00    +0.120 A 
ATOM     39  N   UNL     1      42.271  13.193 212.493  0.00  0.00    -0.263 NA
ATOM     40  C   UNL     1      43.193  14.194 212.835  0.00  0.00    +0.111 A 
ENDBRANCH   4   3
ENDBRANCH  10   9
BRANCH  12  13
ATOM     13  N   UNL     1      42.437  12.374 201.114  0.00  0.00    -0.281 N 
ATOM     14  C   UNL     1      43.475  12.321 200.198  0.00  0.00    +0.248 C 
ATOM     30  O   UNL     1      44.118  13.291 199.825  0.00  0.00    -0.270 OA
ATOM     31  H   UNL     1      41.862  11.535 201.190  0.00  0.00    +0.155 HD
BRANCH  14  15
ATOM     15  C   UNL     1      43.843  11.002 199.600  0.00  0.00    +0.037 A 
ATOM     16  C   UNL     1      43.682  10.746 198.166  0.00  0.00    +0.013 A 
ATOM     17  C   UNL     1      44.028   9.459 197.617  0.00  0.00    +0.005 A 
ATOM     18  C   UNL     1      44.541   8.417 198.504  0.00  0.00    -0.033 A 
ATOM     28  C   UNL     1      44.696   8.699 199.921  0.00  0.00    +0.005 A 
ATOM     29  C   UNL     1      44.356   9.959 200.463  0.00  0.00    +0.013 A 
BRANCH  18  19
ATOM     19  C   UNL     1      44.916   7.008 198.009  0.00  0.00    +0.119 C 
BRANCH  19  20
ATOM     20  N   UNL     1      44.592   6.673 196.590  0.00  0.00    -0.302 NA
ATOM     21  C   UNL     1      43.113   6.321 196.406  0.00  0.00    +0.066 C 
ATOM     22  C   UNL     1      42.787   5.995 194.912  0.00  0.00    -0.064 C 
ATOM     23  N   UNL     1      43.679   4.848 194.437  0.00  0.00    +0.379 N 
ATOM     24  C   UNL     1      43.335   4.500 193.051  0.00  0.00    -0.096 C 
ATOM     25  H   UNL     1      43.456   3.960 195.074  0.00  0.00    -0.082 HD
ATOM     26  C   UNL     1      45.152   5.188 194.619  0.00  0.00    -0.064 C 
ATOM     27  C   UNL     1      45.459   5.539 196.101  0.00  0.00    +0.066 C 
ENDBRANCH  19  20
ENDBRANCH  18  19
ENDBRANCH  14  15
ENDBRANCH  12  13
TORSDOF 6
ENDMDL
MODEL 2
REMARK VINA RESULT:      -8.6      2.122      2.909
REMARK  Name = C:\Users\Docking\Desktop\test protocol\1iep_ligandH.pdb
REMARK  8 active torsions:
REMARK  status: ('A' for Active; 'I' for Inactive)
REMARK    1  A    between atoms: _5  and  _11
REMARK    2  A    between atoms: _19  and  _21
REMARK    3  A    between atoms: _22  and  _66
REMARK    4  A    between atoms: _27  and  _30
REMARK    5  A    between atoms: _32  and  _33
REMARK    6  A    between atoms: _38  and  _43
REMARK    7  A    between atoms: _43  and  _46
REMARK    8  A    between atoms: _53  and  _55
REMARK                            x       y       z     vdW  Elec       q    Type
REMARK                         _______ _______ _______ _____ _____    ______ ____
ROOT
ATOM     10  C   UNL     1      41.739  14.566 203.597  0.00  0.00    +0.038 A 
ATOM     11  C   UNL     1      42.290  13.475 202.877  0.00  0.00    +0.047 A 
ATOM     12  C   UNL     1      41.740  13.067 201.594  0.00  0.00    +0.035 A 
ATOM     32  C   UNL     1      40.631  13.793 201.071  0.00  0.00    +0.024 A 
ATOM     33  C   UNL     1      40.058  14.904 201.790  0.00  0.00    +0.007 A 
ATOM     34  C   UNL     1      40.594  15.310 203.058  0.00  0.00    -0.029 A 
ATOM     35  C   UNL     1      39.936  16.505 203.787  0.00  0.00    +0.045 C 
ENDROOT
BRANCH  10   9
ATOM      4  C   UNL     1      41.801  14.523 208.396  0.00  0.00    +0.077 A 
ATOM      5  C   UNL     1      40.586  13.762 208.464  0.00  0.00    +0.048 A 
ATOM      6  C   UNL     1      39.973  13.409 207.241  0.00  0.00    +0.116 A 
ATOM      7  N   UNL     1      40.541  13.792 206.045  0.00  0.00    -0.223 NA
ATOM      8  C   UNL     1      41.713  14.526 206.016  0.00  0.00    +0.220 A 
ATOM      9  N   UNL     1      42.306  14.916 204.825  0.00  0.00    -0.283 N 
ATOM     36  H   UNL     1      43.166  15.463 204.845  0.00  0.00    +0.155 HD
ATOM     37  N   UNL     1      42.317  14.878 207.170  0.00  0.00    -0.214 NA
BRANCH   4   3
ATOM      1  C   UNL     1      43.007  15.005 212.085  0.00  0.00    +0.020 A 
ATOM      2  C   UNL     1      42.234  14.545 210.955  0.00  0.00    +0.013 A 
ATOM      3  C   UNL     1      42.568  14.969 209.601  0.00  0.00    +0.019 A 
ATOM     38  C   UNL     1      43.701  15.865 209.424  0.00  0.00    +0.120 A 
ATOM     39  N   UNL     1      44.427  16.293 210.531  0.00  0.00    -0.263 NA
ATOM     40  C   UNL     1      44.113  15.893 211.839  0.00  0.00    +0.111 A 
ENDBRANCH   4   3
ENDBRANCH  10   9
BRANCH  12  13
ATOM     13  N   UNL     1      42.253  11.962 200.821  0.00  0.00    -0.281 N 
ATOM     14  C   UNL     1      43.388  11.931 200.028  0.00  0.00    +0.248 C 
ATOM     30  O   UNL     1      44.022  12.920 199.691  0.00  0.00    -0.270 OA
ATOM     31  H   UNL     1      41.713  11.097 200.865  0.00  0.00    +0.155 HD
BRANCH  14  15
ATOM     15  C   UNL     1      43.881  10.613 199.524  0.00  0.00    +0.037 A 
ATOM     16  C   UNL     1      43.767  10.250 198.110  0.00  0.00    +0.013 A 
ATOM     17  C   UNL     1      44.236   8.965 197.653  0.00  0.00    +0.005 A 
ATOM     18  C   UNL     1      44.825   8.035 198.614  0.00  0.00    -0.033 A 
ATOM     28  C   UNL     1      44.930   8.424 200.010  0.00  0.00    +0.005 A 
ATOM     29  C   UNL     1      44.471   9.681 200.461  0.00  0.00    +0.013 A 
BRANCH  18  19
ATOM     19  C   UNL     1      45.332   6.635 198.219  0.00  0.00    +0.119 C 
BRANCH  19  20
ATOM     20  N   UNL     1      45.340   5.586 199.282  0.00  0.00    -0.302 NA
ATOM     21  C   UNL     1      46.742   5.357 199.853  0.00  0.00    +0.066 C 
ATOM     22  C   UNL     1      46.728   4.273 200.979  0.00  0.00    -0.064 C 
ATOM     23  N   UNL     1      46.151   2.971 200.423  0.00  0.00    +0.379 N 
ATOM     24  C   UNL     1      46.190   1.932 201.463  0.00  0.00    -0.096 C 
ATOM     25  H   UNL     1      46.811   2.638 199.588  0.00  0.00    -0.082 HD
ATOM     26  C   UNL     1      44.758   3.190 199.850  0.00  0.00    -0.064 C 
ATOM     27  C   UNL     1      44.777   4.290 198.753  0.00  0.00    +0.066 C 
ENDBRANCH  19  20
ENDBRANCH  18  19
ENDBRANCH  14  15
ENDBRANCH  12  13
TORSDOF 6
ENDMDL
MODEL 3
REMARK VINA RESULT:      -8.3      1.270      1.709
REMARK  Name = C:\Users\Docking\Desktop\test protocol\1iep_ligandH.pdb
REMARK  8 active torsions:
REMARK  status: ('A' for Active; 'I' for Inactive)
REMARK    1  A    between atoms: _5  and  _11
REMARK    2  A    between atoms: _19  and  _21
REMARK    3  A    between atoms: _22  and  _66
REMARK    4  A    between atoms: _27  and  _30
REMARK    5  A    between atoms: _32  and  _33
REMARK    6  A    between atoms: _38  and  _43
REMARK    7  A    between atoms: _43  and  _46
REMARK    8  A    between atoms: _53  and  _55
REMARK                            x       y       z     vdW  Elec       q    Type
REMARK                         _______ _______ _______ _____ _____    ______ ____
ROOT
ATOM     10  C   UNL     1      41.440  14.309 203.935  0.00  0.00    +0.038 A 
ATOM     11  C   UNL     1      41.985  13.195 203.246  0.00  0.00    +0.047 A 
ATOM     12  C   UNL     1      42.449  13.314 201.872  0.00  0.00    +0.035 A 
ATOM     32  C   UNL     1      42.345  14.583 201.231  0.00  0.00    +0.024 A 
ATOM     33  C   UNL     1      41.793  15.725 201.917  0.00  0.00    +0.007 A 
ATOM     34  C   UNL     1      41.332  15.613 203.271  0.00  0.00    -0.029 A 
ATOM     35  C   UNL     1      40.743  16.869 203.954  0.00  0.00    +0.045 C 
ENDROOT
BRANCH  10   9
ATOM      4  C   UNL     1      42.092  14.654 208.678  0.00  0.00    +0.077 A 
ATOM      5  C   UNL     1      43.411  15.195 208.517  0.00  0.00    +0.048 A 
ATOM      6  C   UNL     1      43.887  15.362 207.197  0.00  0.00    +0.116 A 
ATOM      7  N   UNL     1      43.095  15.011 206.126  0.00  0.00    -0.223 NA
ATOM      8  C   UNL     1      41.828  14.490 206.316  0.00  0.00    +0.220 A 
ATOM      9  N   UNL     1      41.011  14.138 205.253  0.00  0.00    -0.283 N 
ATOM     36  H   UNL     1      40.085  13.750 205.435  0.00  0.00    +0.155 HD
ATOM     37  N   UNL     1      41.351  14.320 207.566  0.00  0.00    -0.214 NA
BRANCH   4   3
ATOM      1  C   UNL     1      39.730  14.938 211.782  0.00  0.00    +0.020 A 
ATOM      2  C   UNL     1      40.316  15.204 210.489  0.00  0.00    +0.013 A 
ATOM      3  C   UNL     1      41.448  14.421 210.009  0.00  0.00    +0.019 A 
ATOM     38  C   UNL     1      41.966  13.368 210.869  0.00  0.00    +0.120 A 
ATOM     39  N   UNL     1      41.382  13.136 212.110  0.00  0.00    -0.263 NA
ATOM     40  C   UNL     1      40.294  13.884 212.583  0.00  0.00    +0.111 A 
ENDBRANCH   4   3
ENDBRANCH  10   9
BRANCH  12  13
ATOM     13  N   UNL     1      43.003  12.217 201.119  0.00  0.00    -0.281 N 
ATOM     14  C   UNL     1      42.430  11.536 200.057  0.00  0.00    +0.248 C 
ATOM     30  O   UNL     1      41.256  11.629 199.731  0.00  0.00    -0.270 OA
ATOM     31  H   UNL     1      43.932  11.904 201.403  0.00  0.00    +0.155 HD
BRANCH  14  15
ATOM     15  C   UNL     1      43.279  10.607 199.252  0.00  0.00    +0.037 A 
ATOM     16  C   UNL     1      43.611  10.900 197.855  0.00  0.00    +0.013 A 
ATOM     17  C   UNL     1      44.418   9.978 197.095  0.00  0.00    +0.005 A 
ATOM     18  C   UNL     1      44.900   8.755 197.732  0.00  0.00    -0.033 A 
ATOM     28  C   UNL     1      44.560   8.492 199.120  0.00  0.00    +0.005 A 
ATOM     29  C   UNL     1      43.768   9.393 199.868  0.00  0.00    +0.013 A 
BRANCH  18  19
ATOM     19  C   UNL     1      45.749   7.705 196.991  0.00  0.00    +0.119 C 
BRANCH  19  20
ATOM     20  N   UNL     1      45.150   7.074 195.777  0.00  0.00    -0.302 NA
ATOM     21  C   UNL     1      43.697   6.650 196.008  0.00  0.00    +0.066 C 
ATOM     22  C   UNL     1      43.079   6.012 194.722  0.00  0.00    -0.064 C 
ATOM     23  N   UNL     1      43.929   4.817 194.289  0.00  0.00    +0.379 N 
ATOM     24  C   UNL     1      43.319   4.180 193.113  0.00  0.00    -0.096 C 
ATOM     25  H   UNL     1      43.918   4.074 195.121  0.00  0.00    -0.082 HD
ATOM     26  C   UNL     1      45.377   5.229 194.060  0.00  0.00    -0.064 C 
ATOM     27  C   UNL     1      45.972   5.889 195.335  0.00  0.00    +0.066 C 
ENDBRANCH  19  20
ENDBRANCH  18  19
ENDBRANCH  14  15
ENDBRANCH  12  13
TORSDOF 6
ENDMDL
MODEL 4
REMARK VINA RESULT:      -8.1      3.677     13.785
REMARK  Name = C:\Users\Docking\Desktop\test protocol\1iep_ligandH.pdb
REMARK  8 active torsions:
REMARK  status: ('A' for Active; 'I' for Inactive)
REMARK    1  A    between atoms: _5  and  _11
REMARK    2  A    between atoms: _19  and  _21
REMARK    3  A    between atoms: _22  and  _66
REMARK    4  A    between atoms: _27  and  _30
REMARK    5  A    between atoms: _32  and  _33
REMARK    6  A    between atoms: _38  and  _43
REMARK    7  A    between atoms: _43  and  _46
REMARK    8  A    between atoms: _53  and  _55
REMARK                            x       y       z     vdW  Elec       q    Type
REMARK                         _______ _______ _______ _____ _____    ______ ____
ROOT
ATOM     10  C   UNL     1      45.875   8.540 198.535  0.00  0.00    +0.038 A 
ATOM     11  C   UNL     1      45.160   9.747 198.743  0.00  0.00    +0.047 A 
ATOM     12  C   UNL     1      45.029  10.324 200.072  0.00  0.00    +0.035 A 
ATOM     32  C   UNL     1      45.640   9.645 201.167  0.00  0.00    +0.024 A 
ATOM     33  C   UNL     1      46.369   8.417 200.973  0.00  0.00    +0.007 A 
ATOM     34  C   UNL     1      46.500   7.842 199.664  0.00  0.00    -0.029 A 
ATOM     35  C   UNL     1      47.288   6.520 199.516  0.00  0.00    +0.045 C 
ENDROOT
BRANCH  10   9
ATOM      4  C   UNL     1      44.141   6.010 194.843  0.00  0.00    +0.077 A 
ATOM      5  C   UNL     1      42.958   5.649 195.569  0.00  0.00    +0.048 A 
ATOM      6  C   UNL     1      42.837   6.129 196.893  0.00  0.00    +0.116 A 
ATOM      7  N   UNL     1      43.832   6.911 197.439  0.00  0.00    -0.223 NA
ATOM      8  C   UNL     1      44.961   7.240 196.711  0.00  0.00    +0.220 A 
ATOM      9  N   UNL     1      45.970   8.032 197.237  0.00  0.00    -0.283 N 
ATOM     36  H   UNL     1      46.790   8.245 196.671  0.00  0.00    +0.155 HD
ATOM     37  N   UNL     1      45.100   6.793 195.446  0.00  0.00    -0.214 NA
BRANCH   4   3
ATOM      1  C   UNL     1      43.715   4.571 191.231  0.00  0.00    +0.020 A 
ATOM      2  C   UNL     1      43.401   4.964 192.585  0.00  0.00    +0.013 A 
ATOM      3  C   UNL     1      44.412   5.583 193.434  0.00  0.00    +0.019 A 
ATOM     38  C   UNL     1      45.740   5.793 192.876  0.00  0.00    +0.120 A 
ATOM     39  N   UNL     1      46.013   5.402 191.569  0.00  0.00    -0.263 NA
ATOM     40  C   UNL     1      45.049   4.804 190.744  0.00  0.00    +0.111 A 
ENDBRANCH   4   3
ENDBRANCH  10   9
BRANCH  12  13
ATOM     13  N   UNL     1      44.308  11.542 200.347  0.00  0.00    -0.281 N 
ATOM     14  C   UNL     1      42.942  11.759 200.275  0.00  0.00    +0.248 C 
ATOM     30  O   UNL     1      42.147  10.990 199.754  0.00  0.00    -0.270 OA
ATOM     31  H   UNL     1      44.874  12.343 200.628  0.00  0.00    +0.155 HD
BRANCH  14  15
ATOM     15  C   UNL     1      42.378  13.017 200.852  0.00  0.00    +0.037 A 
ATOM     16  C   UNL     1      40.991  13.085 201.317  0.00  0.00    +0.013 A 
ATOM     17  C   UNL     1      40.467  14.316 201.853  0.00  0.00    +0.005 A 
ATOM     18  C   UNL     1      41.334  15.490 201.929  0.00  0.00    -0.033 A 
ATOM     28  C   UNL     1      42.708  15.393 201.465  0.00  0.00    +0.005 A 
ATOM     29  C   UNL     1      43.224  14.188 200.938  0.00  0.00    +0.013 A 
BRANCH  18  19
ATOM     19  C   UNL     1      40.854  16.851 202.467  0.00  0.00    +0.119 C 
BRANCH  19  20
ATOM     20  N   UNL     1      41.730  17.541 203.461  0.00  0.00    -0.302 NA
ATOM     21  C   UNL     1      41.624  16.913 204.854  0.00  0.00    +0.066 C 
ATOM     22  C   UNL     1      42.564  17.632 205.875  0.00  0.00    -0.064 C 
ATOM     23  N   UNL     1      42.215  19.120 205.924  0.00  0.00    +0.379 N 
ATOM     24  C   UNL     1      43.057  19.789 206.926  0.00  0.00    -0.096 C 
ATOM     25  H   UNL     1      41.155  19.208 206.261  0.00  0.00    -0.082 HD
ATOM     26  C   UNL     1      42.314  19.752 204.543  0.00  0.00    -0.064 C 
ATOM     27  C   UNL     1      41.399  19.011 203.529  0.00  0.00    +0.066 C 
ENDBRANCH  19  20
ENDBRANCH  18  19
ENDBRANCH  14  15
ENDBRANCH  12  13
TORSDOF 6
ENDMDL
MODEL 5
REMARK VINA RESULT:      -8.0      2.384      3.317
REMARK  Name = C:\Users\Docking\Desktop\test protocol\1iep_ligandH.pdb
REMARK  8 active torsions:
REMARK  status: ('A' for Active; 'I' for Inactive)
REMARK    1  A    between atoms: _5  and  _11
REMARK    2  A    between atoms: _19  and  _21
REMARK    3  A    between atoms: _22  and  _66
REMARK    4  A    between atoms: _27  and  _30
REMARK    5  A    between atoms: _32  and  _33
REMARK    6  A    between atoms: _38  and  _43
REMARK    7  A    between atoms: _43  and  _46
REMARK    8  A    between atoms: _53  and  _55
REMARK                            x       y       z     vdW  Elec       q    Type
REMARK                         _______ _______ _______ _____ _____    ______ ____
ROOT
ATOM     10  C   UNL     1      41.376  14.574 204.008  0.00  0.00    +0.038 A 
ATOM     11  C   UNL     1      41.883  13.414 203.368  0.00  0.00    +0.047 A 
ATOM     12  C   UNL     1      42.313  13.450 201.978  0.00  0.00    +0.035 A 
ATOM     32  C   UNL     1      42.216  14.684 201.272  0.00  0.00    +0.024 A 
ATOM     33  C   UNL     1      41.702  15.872 201.908  0.00  0.00    +0.007 A 
ATOM     34  C   UNL     1      41.274  15.842 203.277  0.00  0.00    -0.029 A 
ATOM     35  C   UNL     1      40.725  17.145 203.905  0.00  0.00    +0.045 C 
ENDROOT
BRANCH  10   9
ATOM      4  C   UNL     1      42.239  14.929 208.716  0.00  0.00    +0.077 A 
ATOM      5  C   UNL     1      43.607  15.301 208.498  0.00  0.00    +0.048 A 
ATOM      6  C   UNL     1      44.051  15.382 207.159  0.00  0.00    +0.116 A 
ATOM      7  N   UNL     1      43.183  15.110 206.124  0.00  0.00    -0.223 NA
ATOM      8  C   UNL     1      41.870  14.753 206.370  0.00  0.00    +0.220 A 
ATOM      9  N   UNL     1      40.977  14.483 205.344  0.00  0.00    -0.283 N 
ATOM     36  H   UNL     1      40.019  14.216 205.567  0.00  0.00    +0.155 HD
ATOM     37  N   UNL     1      41.422  14.667 207.639  0.00  0.00    -0.214 NA
BRANCH   4   3
ATOM      1  C   UNL     1      41.753  14.704 212.591  0.00  0.00    +0.020 A 
ATOM      2  C   UNL     1      42.400  14.829 211.305  0.00  0.00    +0.013 A 
ATOM      3  C   UNL     1      41.620  14.803 210.074  0.00  0.00    +0.019 A 
ATOM     38  C   UNL     1      40.177  14.649 210.179  0.00  0.00    +0.120 A 
ATOM     39  N   UNL     1      39.582  14.530 211.432  0.00  0.00    -0.263 NA
ATOM     40  C   UNL     1      40.322  14.551 212.623  0.00  0.00    +0.111 A 
ENDBRANCH   4   3
ENDBRANCH  10   9
BRANCH  12  13
ATOM     13  N   UNL     1      42.828  12.303 201.273  0.00  0.00    -0.281 N 
ATOM     14  C   UNL     1      44.153  11.961 201.055  0.00  0.00    +0.248 C 
ATOM     30  O   UNL     1      45.101  12.708 201.252  0.00  0.00    -0.270 OA
ATOM     31  H   UNL     1      42.132  11.665 200.887  0.00  0.00    +0.155 HD
BRANCH  14  15
ATOM     15  C   UNL     1      44.471  10.599 200.529  0.00  0.00    +0.037 A 
ATOM     16  C   UNL     1      45.623   9.842 201.025  0.00  0.00    +0.013 A 
ATOM     17  C   UNL     1      45.917   8.537 200.489  0.00  0.00    +0.005 A 
ATOM     18  C   UNL     1      45.054   7.979 199.450  0.00  0.00    -0.033 A 
ATOM     28  C   UNL     1      43.915   8.749 198.979  0.00  0.00    +0.005 A 
ATOM     29  C   UNL     1      43.624  10.029 199.502  0.00  0.00    +0.013 A 
BRANCH  18  19
ATOM     19  C   UNL     1      45.304   6.603 198.805  0.00  0.00    +0.119 C 
BRANCH  19  20
ATOM     20  N   UNL     1      45.377   5.423 199.718  0.00  0.00    -0.302 NA
ATOM     21  C   UNL     1      46.790   5.209 200.267  0.00  0.00    +0.066 C 
ATOM     22  C   UNL     1      46.844   3.984 201.238  0.00  0.00    -0.064 C 
ATOM     23  N   UNL     1      46.352   2.735 200.505  0.00  0.00    +0.379 N 
ATOM     24  C   UNL     1      46.455   1.571 201.397  0.00  0.00    -0.096 C 
ATOM     25  H   UNL     1      47.033   2.560 199.640  0.00  0.00    -0.082 HD
ATOM     26  C   UNL     1      44.948   2.940 199.953  0.00  0.00    -0.064 C 
ATOM     27  C   UNL     1      44.900   4.177 199.013  0.00  0.00    +0.066 C 
ENDBRANCH  19  20
ENDBRANCH  18  19
ENDBRANCH  14  15
ENDBRANCH  12  13
TORSDOF 6
ENDMDL
