MODEL 1
REMARK VINA RESULT:      -8.5      0.000      0.000
REMARK  Name = C:\Users\Docking\Desktop\test protocol\1iep_ligandH.pdb
REMARK  8 active torsions:
REMARK  status: ('A' for Active; 'I' for Inactive)
REMARK    1  A    between atoms: _5  and  _11
REMARK    2  A    between atoms: _19  and  _21
REMARK    3  A    between atoms: _22  and  _66
REMARK    4  A    between atoms: _27  and  _30
REMARK    5  A    between atoms: _32  and  _33
REMARK    6  A    between atoms: _38  and  _43
REMARK    7  A    between atoms: _43  and  _46
REMARK    8  A    between atoms: _53  and  _55
REMARK                            x       y       z     vdW  Elec       q    Type
REMARK                         _______ _______ _______ _____ _____    ______ ____
ROOT
ATOM     10  C   UNL     1      21.411  24.624  19.134  0.00  0.00    +0.038 A 
ATOM     11  C   UNL     1      20.438  23.978  19.939  0.00  0.00    +0.047 A 
ATOM     12  C   UNL     1      20.826  23.164  21.081  0.00  0.00    +0.035 A 
ATOM     32  C   UNL     1      22.214  23.031  21.375  0.00  0.00    +0.024 A 
ATOM     33  C   UNL     1      23.216  23.680  20.567  0.00  0.00    +0.007 A 
ATOM     34  C   UNL     1      22.840  24.482  19.438  0.00  0.00    -0.029 A 
ATOM     35  C   UNL     1      23.958  25.149  18.603  0.00  0.00    +0.045 C 
ENDROOT
BRANCH  10   9
ATOM      4  C   UNL     1      20.316  25.158  14.492  0.00  0.00    +0.077 A 
ATOM      5  C   UNL     1      20.651  23.795  14.195  0.00  0.00    +0.048 A 
ATOM      6  C   UNL     1      21.108  22.992  15.264  0.00  0.00    +0.116 A 
ATOM      7  N   UNL     1      21.218  23.522  16.531  0.00  0.00    -0.223 NA
ATOM      8  C   UNL     1      20.887  24.841  16.783  0.00  0.00    +0.220 A 
ATOM      9  N   UNL     1      20.982  25.394  18.051  0.00  0.00    -0.283 N 
ATOM     36  H   UNL     1      20.736  26.373  18.194  0.00  0.00    +0.155 HD
ATOM     37  N   UNL     1      20.450  25.629  15.779  0.00  0.00    -0.214 NA
BRANCH   4   3
ATOM      1  C   UNL     1      18.332  28.033  12.732  0.00  0.00    +0.020 A 
ATOM      2  C   UNL     1      18.780  27.116  13.754  0.00  0.00    +0.013 A 
ATOM      3  C   UNL     1      19.815  26.131  13.470  0.00  0.00    +0.019 A 
ATOM     38  C   UNL     1      20.382  26.100  12.130  0.00  0.00    +0.120 A 
ATOM     39  N   UNL     1      19.930  26.994  11.165  0.00  0.00    -0.263 NA
ATOM     40  C   UNL     1      18.933  27.946  11.427  0.00  0.00    +0.111 A 
ENDBRANCH   4   3
ENDBRANCH  10   9
BRANCH  12  13
ATOM     13  N   UNL     1      19.883  22.478  21.929  0.00  0.00    -0.281 N 
ATOM     14  C   UNL     1      20.143  21.764  23.088  0.00  0.00    +0.248 C 
ATOM     30  O   UNL     1      21.258  21.427  23.457  0.00  0.00    -0.270 OA
ATOM     31  H   UNL     1      18.906  22.523  21.640  0.00  0.00    +0.155 HD
BRANCH  14  15
ATOM     15  C   UNL     1      18.997  21.354  23.955  0.00  0.00    +0.037 A 
ATOM     16  C   UNL     1      18.309  20.077  23.751  0.00  0.00    +0.013 A 
ATOM     17  C   UNL     1      17.195  19.713  24.591  0.00  0.00    +0.005 A 
ATOM     18  C   UNL     1      16.764  20.629  25.645  0.00  0.00    -0.033 A 
ATOM     28  C   UNL     1      17.468  21.887  25.829  0.00  0.00    +0.005 A 
ATOM     29  C   UNL     1      18.559  22.247  25.007  0.00  0.00    +0.013 A 
BRANCH  18  19
ATOM     19  C   UNL     1      15.572  20.332  26.575  0.00  0.00    +0.119 C 
BRANCH  19  20
ATOM     20  N   UNL     1      15.870  20.127  28.024  0.00  0.00    -0.302 NA
ATOM     21  C   UNL     1      16.979  19.094  28.242  0.00  0.00    +0.066 C 
ATOM     22  C   UNL     1      17.293  18.908  29.762  0.00  0.00    -0.064 C 
ATOM     23  N   UNL     1      16.017  18.496  30.497  0.00  0.00    +0.379 N 
ATOM     24  C   UNL     1      16.321  18.264  31.916  0.00  0.00    -0.096 C 
ATOM     25  H   UNL     1      15.674  17.528  30.062  0.00  0.00    -0.082 HD
ATOM     26  C   UNL     1      14.908  19.516  30.283  0.00  0.00    -0.064 C 
ATOM     27  C   UNL     1      14.624  19.715  28.768  0.00  0.00    +0.066 C 
ENDBRANCH  19  20
ENDBRANCH  18  19
ENDBRANCH  14  15
ENDBRANCH  12  13
TORSDOF 6
ENDMDL
MODEL 2
REMARK VINA RESULT:      -8.5     14.012     19.477
REMARK  Name = C:\Users\Docking\Desktop\test protocol\1iep_ligandH.pdb
REMARK  8 active torsions:
REMARK  status: ('A' for Active; 'I' for Inactive)
REMARK    1  A    between atoms: _5  and  _11
REMARK    2  A    between atoms: _19  and  _21
REMARK    3  A    between atoms: _22  and  _66
REMARK    4  A    between atoms: _27  and  _30
REMARK    5  A    between atoms: _32  and  _33
REMARK    6  A    between atoms: _38  and  _43
REMARK    7  A    between atoms: _43  and  _46
REMARK    8  A    between atoms: _53  and  _55
REMARK                            x       y       z     vdW  Elec       q    Type
REMARK                         _______ _______ _______ _____ _____    ______ ____
ROOT
ATOM     10  C   UNL     1      16.315  40.416  17.875  0.00  0.00    +0.038 A 
ATOM     11  C   UNL     1      16.155  39.283  17.038  0.00  0.00    +0.047 A 
ATOM     12  C   UNL     1      17.083  38.165  17.098  0.00  0.00    +0.035 A 
ATOM     32  C   UNL     1      18.164  38.233  18.025  0.00  0.00    +0.024 A 
ATOM     33  C   UNL     1      18.343  39.378  18.883  0.00  0.00    +0.007 A 
ATOM     34  C   UNL     1      17.431  40.485  18.827  0.00  0.00    -0.029 A 
ATOM     35  C   UNL     1      17.676  41.689  19.766  0.00  0.00    +0.045 C 
ENDROOT
BRANCH  10   9
ATOM      4  C   UNL     1      12.237  42.600  19.155  0.00  0.00    +0.077 A 
ATOM      5  C   UNL     1      11.900  41.557  20.080  0.00  0.00    +0.048 A 
ATOM      6  C   UNL     1      12.799  40.473  20.192  0.00  0.00    +0.116 A 
ATOM      7  N   UNL     1      13.947  40.445  19.431  0.00  0.00    -0.223 NA
ATOM      8  C   UNL     1      14.241  41.466  18.546  0.00  0.00    +0.220 A 
ATOM      9  N   UNL     1      15.394  41.461  17.776  0.00  0.00    -0.283 N 
ATOM     36  H   UNL     1      15.572  42.230  17.129  0.00  0.00    +0.155 HD
ATOM     37  N   UNL     1      13.398  42.511  18.419  0.00  0.00    -0.214 NA
BRANCH   4   3
ATOM      1  C   UNL     1       9.427  45.303  19.466  0.00  0.00    +0.020 A 
ATOM      2  C   UNL     1      10.211  44.118  19.727  0.00  0.00    +0.013 A 
ATOM      3  C   UNL     1      11.390  43.813  18.926  0.00  0.00    +0.019 A 
ATOM     38  C   UNL     1      11.751  44.735  17.860  0.00  0.00    +0.120 A 
ATOM     39  N   UNL     1      10.976  45.868  17.631  0.00  0.00    -0.263 NA
ATOM     40  C   UNL     1       9.839  46.170  18.394  0.00  0.00    +0.111 A 
ENDBRANCH   4   3
ENDBRANCH  10   9
BRANCH  12  13
ATOM     13  N   UNL     1      16.975  36.992  16.267  0.00  0.00    -0.281 N 
ATOM     14  C   UNL     1      16.349  35.793  16.563  0.00  0.00    +0.248 C 
ATOM     30  O   UNL     1      15.968  35.469  17.679  0.00  0.00    -0.270 OA
ATOM     31  H   UNL     1      17.414  37.053  15.348  0.00  0.00    +0.155 HD
BRANCH  14  15
ATOM     15  C   UNL     1      16.126  34.803  15.466  0.00  0.00    +0.037 A 
ATOM     16  C   UNL     1      15.773  33.411  15.757  0.00  0.00    +0.013 A 
ATOM     17  C   UNL     1      15.580  32.473  14.680  0.00  0.00    +0.005 A 
ATOM     18  C   UNL     1      15.740  32.925  13.300  0.00  0.00    -0.033 A 
ATOM     28  C   UNL     1      16.087  34.312  13.039  0.00  0.00    +0.005 A 
ATOM     29  C   UNL     1      16.277  35.234  14.092  0.00  0.00    +0.013 A 
BRANCH  18  19
ATOM     19  C   UNL     1      15.575  31.988  12.089  0.00  0.00    +0.119 C 
BRANCH  19  20
ATOM     20  N   UNL     1      16.487  32.205  10.926  0.00  0.00    -0.302 NA
ATOM     21  C   UNL     1      15.757  32.824   9.731  0.00  0.00    +0.066 C 
ATOM     22  C   UNL     1      16.732  33.065   8.532  0.00  0.00    -0.064 C 
ATOM     23  N   UNL     1      17.389  31.741   8.139  0.00  0.00    +0.379 N 
ATOM     24  C   UNL     1      18.262  31.954   6.975  0.00  0.00    -0.096 C 
ATOM     25  H   UNL     1      16.579  31.040   7.831  0.00  0.00    -0.082 HD
ATOM     26  C   UNL     1      18.115  31.118   9.323  0.00  0.00    -0.064 C 
ATOM     27  C   UNL     1      17.145  30.909  10.519  0.00  0.00    +0.066 C 
ENDBRANCH  19  20
ENDBRANCH  18  19
ENDBRANCH  14  15
ENDBRANCH  12  13
TORSDOF 6
ENDMDL
MODEL 3
REMARK VINA RESULT:      -8.4      7.492     13.644
REMARK  Name = C:\Users\Docking\Desktop\test protocol\1iep_ligandH.pdb
REMARK  8 active torsions:
REMARK  status: ('A' for Active; 'I' for Inactive)
REMARK    1  A    between atoms: _5  and  _11
REMARK    2  A    between atoms: _19  and  _21
REMARK    3  A    between atoms: _22  and  _66
REMARK    4  A    between atoms: _27  and  _30
REMARK    5  A    between atoms: _32  and  _33
REMARK    6  A    between atoms: _38  and  _43
REMARK    7  A    between atoms: _43  and  _46
REMARK    8  A    between atoms: _53  and  _55
REMARK                            x       y       z     vdW  Elec       q    Type
REMARK                         _______ _______ _______ _____ _____    ______ ____
ROOT
ATOM     10  C   UNL     1      18.167  20.608  26.340  0.00  0.00    +0.038 A 
ATOM     11  C   UNL     1      19.273  19.725  26.248  0.00  0.00    +0.047 A 
ATOM     12  C   UNL     1      20.110  19.688  25.058  0.00  0.00    +0.035 A 
ATOM     32  C   UNL     1      19.792  20.566  23.982  0.00  0.00    +0.024 A 
ATOM     33  C   UNL     1      18.671  21.470  24.058  0.00  0.00    +0.007 A 
ATOM     34  C   UNL     1      17.841  21.509  25.228  0.00  0.00    -0.029 A 
ATOM     35  C   UNL     1      16.648  22.493  25.252  0.00  0.00    +0.045 C 
ENDROOT
BRANCH  10   9
ATOM      4  C   UNL     1      14.362  19.179  28.893  0.00  0.00    +0.077 A 
ATOM      5  C   UNL     1      13.849  18.400  27.803  0.00  0.00    +0.048 A 
ATOM      6  C   UNL     1      14.591  18.399  26.600  0.00  0.00    +0.116 A 
ATOM      7  N   UNL     1      15.757  19.127  26.506  0.00  0.00    -0.223 NA
ATOM      8  C   UNL     1      16.223  19.869  27.576  0.00  0.00    +0.220 A 
ATOM      9  N   UNL     1      17.398  20.602  27.506  0.00  0.00    -0.283 N 
ATOM     36  H   UNL     1      17.704  21.142  28.314  0.00  0.00    +0.155 HD
ATOM     37  N   UNL     1      15.533  19.887  28.734  0.00  0.00    -0.214 NA
BRANCH   4   3
ATOM      1  C   UNL     1      13.739  19.538  32.738  0.00  0.00    +0.020 A 
ATOM      2  C   UNL     1      14.433  19.448  31.474  0.00  0.00    +0.013 A 
ATOM      3  C   UNL     1      13.694  19.278  30.229  0.00  0.00    +0.019 A 
ATOM     38  C   UNL     1      12.242  19.203  30.298  0.00  0.00    +0.120 A 
ATOM     39  N   UNL     1      11.602  19.291  31.530  0.00  0.00    -0.263 NA
ATOM     40  C   UNL     1      12.302  19.453  32.735  0.00  0.00    +0.111 A 
ENDBRANCH   4   3
ENDBRANCH  10   9
BRANCH  12  13
ATOM     13  N   UNL     1      21.241  18.807  24.905  0.00  0.00    -0.281 N 
ATOM     14  C   UNL     1      22.255  18.557  25.814  0.00  0.00    +0.248 C 
ATOM     30  O   UNL     1      22.459  19.218  26.821  0.00  0.00    -0.270 OA
ATOM     31  H   UNL     1      21.301  18.307  24.017  0.00  0.00    +0.155 HD
BRANCH  14  15
ATOM     15  C   UNL     1      23.186  17.415  25.562  0.00  0.00    +0.037 A 
ATOM     16  C   UNL     1      22.792  16.034  25.855  0.00  0.00    +0.013 A 
ATOM     17  C   UNL     1      23.715  14.953  25.618  0.00  0.00    +0.005 A 
ATOM     18  C   UNL     1      25.042  15.249  25.083  0.00  0.00    -0.033 A 
ATOM     28  C   UNL     1      25.405  16.627  24.796  0.00  0.00    +0.005 A 
ATOM     29  C   UNL     1      24.503  17.689  25.028  0.00  0.00    +0.013 A 
BRANCH  18  19
ATOM     19  C   UNL     1      26.099  14.160  24.819  0.00  0.00    +0.119 C 
BRANCH  19  20
ATOM     20  N   UNL     1      27.156  14.464  23.808  0.00  0.00    -0.302 NA
ATOM     21  C   UNL     1      26.796  13.925  22.421  0.00  0.00    +0.066 C 
ATOM     22  C   UNL     1      27.902  14.271  21.371  0.00  0.00    -0.064 C 
ATOM     23  N   UNL     1      29.243  13.704  21.841  0.00  0.00    +0.379 N 
ATOM     24  C   UNL     1      30.273  13.978  20.829  0.00  0.00    -0.096 C 
ATOM     25  H   UNL     1      29.132  12.598  21.922  0.00  0.00    -0.082 HD
ATOM     26  C   UNL     1      29.607  14.233  23.221  0.00  0.00    -0.064 C 
ATOM     27  C   UNL     1      28.488  13.909  24.250  0.00  0.00    +0.066 C 
ENDBRANCH  19  20
ENDBRANCH  18  19
ENDBRANCH  14  15
ENDBRANCH  12  13
TORSDOF 6
ENDMDL
MODEL 4
REMARK VINA RESULT:      -8.3      1.419      2.090
REMARK  Name = C:\Users\Docking\Desktop\test protocol\1iep_ligandH.pdb
REMARK  8 active torsions:
REMARK  status: ('A' for Active; 'I' for Inactive)
REMARK    1  A    between atoms: _5  and  _11
REMARK    2  A    between atoms: _19  and  _21
REMARK    3  A    between atoms: _22  and  _66
REMARK    4  A    between atoms: _27  and  _30
REMARK    5  A    between atoms: _32  and  _33
REMARK    6  A    between atoms: _38  and  _43
REMARK    7  A    between atoms: _43  and  _46
REMARK    8  A    between atoms: _53  and  _55
REMARK                            x       y       z     vdW  Elec       q    Type
REMARK                         _______ _______ _______ _____ _____    ______ ____
ROOT
ATOM     10  C   UNL     1      21.757  23.729  20.062  0.00  0.00    +0.038 A 
ATOM     11  C   UNL     1      20.771  23.193  20.930  0.00  0.00    +0.047 A 
ATOM     12  C   UNL     1      21.130  22.643  22.227  0.00  0.00    +0.035 A 
ATOM     32  C   UNL     1      22.503  22.657  22.611  0.00  0.00    +0.024 A 
ATOM     33  C   UNL     1      23.518  23.197  21.741  0.00  0.00    +0.007 A 
ATOM     34  C   UNL     1      23.170  23.739  20.458  0.00  0.00    -0.029 A 
ATOM     35  C   UNL     1      24.301  24.299  19.564  0.00  0.00    +0.045 C 
ENDROOT
BRANCH  10   9
ATOM      4  C   UNL     1      20.857  23.261  15.371  0.00  0.00    +0.077 A 
ATOM      5  C   UNL     1      21.244  21.880  15.374  0.00  0.00    +0.048 A 
ATOM      6  C   UNL     1      21.675  21.330  16.602  0.00  0.00    +0.116 A 
ATOM      7  N   UNL     1      21.712  22.112  17.736  0.00  0.00    -0.223 NA
ATOM      8  C   UNL     1      21.334  23.441  17.698  0.00  0.00    +0.220 A 
ATOM      9  N   UNL     1      21.356  24.245  18.827  0.00  0.00    -0.283 N 
ATOM     36  H   UNL     1      21.076  25.223  18.756  0.00  0.00    +0.155 HD
ATOM     37  N   UNL     1      20.920  23.991  16.537  0.00  0.00    -0.214 NA
BRANCH   4   3
ATOM      1  C   UNL     1      19.732  26.081  12.904  0.00  0.00    +0.020 A 
ATOM      2  C   UNL     1      20.199  25.431  14.107  0.00  0.00    +0.013 A 
ATOM      3  C   UNL     1      20.376  23.985  14.152  0.00  0.00    +0.019 A 
ATOM     38  C   UNL     1      20.069  23.220  12.953  0.00  0.00    +0.120 A 
ATOM     39  N   UNL     1      19.619  23.873  11.809  0.00  0.00    -0.263 NA
ATOM     40  C   UNL     1      19.444  25.264  11.755  0.00  0.00    +0.111 A 
ENDBRANCH   4   3
ENDBRANCH  10   9
BRANCH  12  13
ATOM     13  N   UNL     1      20.174  22.078  23.147  0.00  0.00    -0.281 N 
ATOM     14  C   UNL     1      18.886  22.513  23.411  0.00  0.00    +0.248 C 
ATOM     30  O   UNL     1      18.433  23.589  23.050  0.00  0.00    -0.270 OA
ATOM     31  H   UNL     1      20.485  21.257  23.667  0.00  0.00    +0.155 HD
BRANCH  14  15
ATOM     15  C   UNL     1      17.974  21.632  24.203  0.00  0.00    +0.037 A 
ATOM     16  C   UNL     1      16.935  22.196  25.068  0.00  0.00    +0.013 A 
ATOM     17  C   UNL     1      16.080  21.325  25.834  0.00  0.00    +0.005 A 
ATOM     18  C   UNL     1      16.260  19.878  25.736  0.00  0.00    -0.033 A 
ATOM     28  C   UNL     1      17.294  19.345  24.865  0.00  0.00    +0.005 A 
ATOM     29  C   UNL     1      18.135  20.197  24.114  0.00  0.00    +0.013 A 
BRANCH  18  19
ATOM     19  C   UNL     1      15.407  18.874  26.533  0.00  0.00    +0.119 C 
BRANCH  19  20
ATOM     20  N   UNL     1      15.627  18.809  28.009  0.00  0.00    -0.302 NA
ATOM     21  C   UNL     1      14.665  19.724  28.774  0.00  0.00    +0.066 C 
ATOM     22  C   UNL     1      14.894  19.627  30.317  0.00  0.00    -0.064 C 
ATOM     23  N   UNL     1      16.348  19.980  30.637  0.00  0.00    +0.379 N 
ATOM     24  C   UNL     1      16.551  19.947  32.093  0.00  0.00    -0.096 C 
ATOM     25  H   UNL     1      16.524  21.026  30.295  0.00  0.00    -0.082 HD
ATOM     26  C   UNL     1      17.311  19.078  29.879  0.00  0.00    -0.064 C 
ATOM     27  C   UNL     1      17.055  19.159  28.348  0.00  0.00    +0.066 C 
ENDBRANCH  19  20
ENDBRANCH  18  19
ENDBRANCH  14  15
ENDBRANCH  12  13
TORSDOF 6
ENDMDL
MODEL 5
REMARK VINA RESULT:      -8.2     13.174     18.547
REMARK  Name = C:\Users\Docking\Desktop\test protocol\1iep_ligandH.pdb
REMARK  8 active torsions:
REMARK  status: ('A' for Active; 'I' for Inactive)
REMARK    1  A    between atoms: _5  and  _11
REMARK    2  A    between atoms: _19  and  _21
REMARK    3  A    between atoms: _22  and  _66
REMARK    4  A    between atoms: _27  and  _30
REMARK    5  A    between atoms: _32  and  _33
REMARK    6  A    between atoms: _38  and  _43
REMARK    7  A    between atoms: _43  and  _46
REMARK    8  A    between atoms: _53  and  _55
REMARK                            x       y       z     vdW  Elec       q    Type
REMARK                         _______ _______ _______ _____ _____    ______ ____
ROOT
ATOM     10  C   UNL     1      16.701  34.080  14.998  0.00  0.00    +0.038 A 
ATOM     11  C   UNL     1      16.563  35.457  15.313  0.00  0.00    +0.047 A 
ATOM     12  C   UNL     1      15.932  35.887  16.551  0.00  0.00    +0.035 A 
ATOM     32  C   UNL     1      15.454  34.887  17.448  0.00  0.00    +0.024 A 
ATOM     33  C   UNL     1      15.584  33.484  17.144  0.00  0.00    +0.007 A 
ATOM     34  C   UNL     1      16.204  33.054  15.923  0.00  0.00    -0.029 A 
ATOM     35  C   UNL     1      16.311  31.536  15.646  0.00  0.00    +0.045 C 
ENDROOT
BRANCH  10   9
ATOM      4  C   UNL     1      16.531  32.738  10.393  0.00  0.00    +0.077 A 
ATOM      5  C   UNL     1      15.096  32.720  10.390  0.00  0.00    +0.048 A 
ATOM      6  C   UNL     1      14.440  33.055  11.596  0.00  0.00    +0.116 A 
ATOM      7  N   UNL     1      15.174  33.383  12.715  0.00  0.00    -0.223 NA
ATOM      8  C   UNL     1      16.557  33.390  12.685  0.00  0.00    +0.220 A 
ATOM      9  N   UNL     1      17.315  33.724  13.796  0.00  0.00    -0.283 N 
ATOM     36  H   UNL     1      18.333  33.710  13.735  0.00  0.00    +0.155 HD
ATOM     37  N   UNL     1      17.207  33.072  11.546  0.00  0.00    -0.214 NA
BRANCH   4   3
ATOM      1  C   UNL     1      18.965  30.933   7.920  0.00  0.00    +0.020 A 
ATOM      2  C   UNL     1      18.175  31.202   9.099  0.00  0.00    +0.013 A 
ATOM      3  C   UNL     1      17.367  32.411   9.196  0.00  0.00    +0.019 A 
ATOM     38  C   UNL     1      17.381  33.335   8.071  0.00  0.00    +0.120 A 
ATOM     39  N   UNL     1      18.152  33.051   6.949  0.00  0.00    -0.263 NA
ATOM     40  C   UNL     1      18.934  31.891   6.846  0.00  0.00    +0.111 A 
ENDBRANCH   4   3
ENDBRANCH  10   9
BRANCH  12  13
ATOM     13  N   UNL     1      15.757  37.269  16.919  0.00  0.00    -0.281 N 
ATOM     14  C   UNL     1      16.734  38.238  17.082  0.00  0.00    +0.248 C 
ATOM     30  O   UNL     1      17.933  38.007  17.142  0.00  0.00    -0.270 OA
ATOM     31  H   UNL     1      14.796  37.571  17.081  0.00  0.00    +0.155 HD
BRANCH  14  15
ATOM     15  C   UNL     1      16.320  39.668  17.209  0.00  0.00    +0.037 A 
ATOM     16  C   UNL     1      17.044  40.734  16.513  0.00  0.00    +0.013 A 
ATOM     17  C   UNL     1      16.633  42.107  16.667  0.00  0.00    +0.005 A 
ATOM     18  C   UNL     1      15.491  42.422  17.521  0.00  0.00    -0.033 A 
ATOM     28  C   UNL     1      14.787  41.344  18.196  0.00  0.00    +0.005 A 
ATOM     29  C   UNL     1      15.187  39.997  18.048  0.00  0.00    +0.013 A 
BRANCH  18  19
ATOM     19  C   UNL     1      14.996  43.861  17.760  0.00  0.00    +0.119 C 
BRANCH  19  20
ATOM     20  N   UNL     1      13.684  44.241  17.157  0.00  0.00    -0.302 NA
ATOM     21  C   UNL     1      13.856  45.102  15.902  0.00  0.00    +0.066 C 
ATOM     22  C   UNL     1      12.474  45.473  15.272  0.00  0.00    -0.064 C 
ATOM     23  N   UNL     1      11.620  46.198  16.313  0.00  0.00    +0.379 N 
ATOM     24  C   UNL     1      10.342  46.599  15.706  0.00  0.00    -0.096 C 
ATOM     25  H   UNL     1      12.161  47.127  16.607  0.00  0.00    -0.082 HD
ATOM     26  C   UNL     1      11.446  45.350  17.565  0.00  0.00    -0.064 C 
ATOM     27  C   UNL     1      12.825  44.963  18.167  0.00  0.00    +0.066 C 
ENDBRANCH  19  20
ENDBRANCH  18  19
ENDBRANCH  14  15
ENDBRANCH  12  13
TORSDOF 6
ENDMDL
