MODEL 1
REMARK VINA RESULT:      -7.7      0.000      0.000
REMARK  Name = C:\Users\Docking\Desktop\test protocol\1iep_ligandH.pdb
REMARK  8 active torsions:
REMARK  status: ('A' for Active; 'I' for Inactive)
REMARK    1  A    between atoms: _5  and  _11
REMARK    2  A    between atoms: _19  and  _21
REMARK    3  A    between atoms: _22  and  _66
REMARK    4  A    between atoms: _27  and  _30
REMARK    5  A    between atoms: _32  and  _33
REMARK    6  A    between atoms: _38  and  _43
REMARK    7  A    between atoms: _43  and  _46
REMARK    8  A    between atoms: _53  and  _55
REMARK                            x       y       z     vdW  Elec       q    Type
REMARK                         _______ _______ _______ _____ _____    ______ ____
ROOT
ATOM     10  C   UNL     1      57.311  29.253  17.702  0.00  0.00    +0.038 A 
ATOM     11  C   UNL     1      57.068  27.858  17.772  0.00  0.00    +0.047 A 
ATOM     12  C   UNL     1      57.806  27.010  18.695  0.00  0.00    +0.035 A 
ATOM     32  C   UNL     1      58.784  27.618  19.535  0.00  0.00    +0.024 A 
ATOM     33  C   UNL     1      59.045  29.034  19.477  0.00  0.00    +0.007 A 
ATOM     34  C   UNL     1      58.321  29.875  18.567  0.00  0.00    -0.029 A 
ATOM     35  C   UNL     1      58.647  31.387  18.543  0.00  0.00    +0.045 C 
ENDROOT
BRANCH  10   9
ATOM      4  C   UNL     1      53.765  32.314  16.654  0.00  0.00    +0.077 A 
ATOM      5  C   UNL     1      53.330  32.370  18.020  0.00  0.00    +0.048 A 
ATOM      6  C   UNL     1      54.041  31.591  18.960  0.00  0.00    +0.116 A 
ATOM      7  N   UNL     1      55.106  30.817  18.553  0.00  0.00    -0.223 NA
ATOM      8  C   UNL     1      55.499  30.784  17.228  0.00  0.00    +0.220 A 
ATOM      9  N   UNL     1      56.573  30.020  16.798  0.00  0.00    -0.283 N 
ATOM     36  H   UNL     1      56.826  30.017  15.810  0.00  0.00    +0.155 HD
ATOM     37  N   UNL     1      54.836  31.518  16.310  0.00  0.00    -0.214 NA
BRANCH   4   3
ATOM      1  C   UNL     1      53.030  33.944  13.175  0.00  0.00    +0.020 A 
ATOM      2  C   UNL     1      53.697  33.189  14.211  0.00  0.00    +0.013 A 
ATOM      3  C   UNL     1      53.118  33.083  15.545  0.00  0.00    +0.019 A 
ATOM     38  C   UNL     1      51.853  33.757  15.798  0.00  0.00    +0.120 A 
ATOM     39  N   UNL     1      51.235  34.478  14.781  0.00  0.00    -0.263 NA
ATOM     40  C   UNL     1      51.784  34.588  13.495  0.00  0.00    +0.111 A 
ENDBRANCH   4   3
ENDBRANCH  10   9
BRANCH  12  13
ATOM     13  N   UNL     1      57.608  25.586  18.804  0.00  0.00    -0.281 N 
ATOM     14  C   UNL     1      58.105  24.591  17.978  0.00  0.00    +0.248 C 
ATOM     30  O   UNL     1      58.624  24.792  16.889  0.00  0.00    -0.270 OA
ATOM     31  H   UNL     1      57.031  25.273  19.584  0.00  0.00    +0.155 HD
BRANCH  14  15
ATOM     15  C   UNL     1      57.999  23.167  18.418  0.00  0.00    +0.037 A 
ATOM     16  C   UNL     1      58.968  22.160  17.976  0.00  0.00    +0.013 A 
ATOM     17  C   UNL     1      58.832  20.790  18.402  0.00  0.00    +0.005 A 
ATOM     18  C   UNL     1      57.722  20.418  19.276  0.00  0.00    -0.033 A 
ATOM     28  C   UNL     1      56.778  21.438  19.703  0.00  0.00    +0.005 A 
ATOM     29  C   UNL     1      56.908  22.782  19.287  0.00  0.00    +0.013 A 
BRANCH  18  19
ATOM     19  C   UNL     1      57.487  18.976  19.762  0.00  0.00    +0.119 C 
BRANCH  19  20
ATOM     20  N   UNL     1      58.599  17.998  19.565  0.00  0.00    -0.302 NA
ATOM     21  C   UNL     1      58.168  16.803  18.710  0.00  0.00    +0.066 C 
ATOM     22  C   UNL     1      59.350  15.802  18.495  0.00  0.00    -0.064 C 
ATOM     23  N   UNL     1      59.872  15.335  19.855  0.00  0.00    +0.379 N 
ATOM     24  C   UNL     1      60.945  14.349  19.656  0.00  0.00    -0.096 C 
ATOM     25  H   UNL     1      59.034  14.821  20.380  0.00  0.00    -0.082 HD
ATOM     26  C   UNL     1      60.300  16.517  20.712  0.00  0.00    -0.064 C 
ATOM     27  C   UNL     1      59.127  17.520  20.895  0.00  0.00    +0.066 C 
ENDBRANCH  19  20
ENDBRANCH  18  19
ENDBRANCH  14  15
ENDBRANCH  12  13
TORSDOF 6
ENDMDL
MODEL 2
REMARK VINA RESULT:      -7.6     30.056     33.803
REMARK  Name = C:\Users\Docking\Desktop\test protocol\1iep_ligandH.pdb
REMARK  8 active torsions:
REMARK  status: ('A' for Active; 'I' for Inactive)
REMARK    1  A    between atoms: _5  and  _11
REMARK    2  A    between atoms: _19  and  _21
REMARK    3  A    between atoms: _22  and  _66
REMARK    4  A    between atoms: _27  and  _30
REMARK    5  A    between atoms: _32  and  _33
REMARK    6  A    between atoms: _38  and  _43
REMARK    7  A    between atoms: _43  and  _46
REMARK    8  A    between atoms: _53  and  _55
REMARK                            x       y       z     vdW  Elec       q    Type
REMARK                         _______ _______ _______ _____ _____    ______ ____
ROOT
ATOM     10  C   UNL     1      29.077   2.260  14.645  0.00  0.00    +0.038 A 
ATOM     11  C   UNL     1      30.319   2.915  14.840  0.00  0.00    +0.047 A 
ATOM     12  C   UNL     1      31.223   2.514  15.907  0.00  0.00    +0.035 A 
ATOM     32  C   UNL     1      30.830   1.438  16.756  0.00  0.00    +0.024 A 
ATOM     33  C   UNL     1      29.571   0.761  16.573  0.00  0.00    +0.007 A 
ATOM     34  C   UNL     1      28.674   1.155  15.524  0.00  0.00    -0.029 A 
ATOM     35  C   UNL     1      27.334   0.397  15.378  0.00  0.00    +0.045 C 
ENDROOT
BRANCH  10   9
ATOM      4  C   UNL     1      27.084   5.705  11.962  0.00  0.00    +0.077 A 
ATOM      5  C   UNL     1      27.728   6.744  12.713  0.00  0.00    +0.048 A 
ATOM      6  C   UNL     1      28.558   6.350  13.787  0.00  0.00    +0.116 A 
ATOM      7  N   UNL     1      28.725   5.013  14.078  0.00  0.00    -0.223 NA
ATOM      8  C   UNL     1      28.088   4.037  13.335  0.00  0.00    +0.220 A 
ATOM      9  N   UNL     1      28.248   2.686  13.605  0.00  0.00    -0.283 N 
ATOM     36  H   UNL     1      27.755   1.997  13.039  0.00  0.00    +0.155 HD
ATOM     37  N   UNL     1      27.289   4.387  12.306  0.00  0.00    -0.214 NA
BRANCH   4   3
ATOM      1  C   UNL     1      24.452   7.327   9.567  0.00  0.00    +0.020 A 
ATOM      2  C   UNL     1      25.306   7.126  10.714  0.00  0.00    +0.013 A 
ATOM      3  C   UNL     1      26.180   5.962  10.798  0.00  0.00    +0.019 A 
ATOM     38  C   UNL     1      26.165   5.013   9.694  0.00  0.00    +0.120 A 
ATOM     39  N   UNL     1      25.330   5.233   8.602  0.00  0.00    -0.263 NA
ATOM     40  C   UNL     1      24.485   6.348   8.512  0.00  0.00    +0.111 A 
ENDBRANCH   4   3
ENDBRANCH  10   9
BRANCH  12  13
ATOM     13  N   UNL     1      32.493   3.148  16.158  0.00  0.00    -0.281 N 
ATOM     14  C   UNL     1      33.734   2.800  15.650  0.00  0.00    +0.248 C 
ATOM     30  O   UNL     1      33.973   1.753  15.066  0.00  0.00    -0.270 OA
ATOM     31  H   UNL     1      32.476   3.951  16.787  0.00  0.00    +0.155 HD
BRANCH  14  15
ATOM     15  C   UNL     1      34.878   3.745  15.828  0.00  0.00    +0.037 A 
ATOM     16  C   UNL     1      36.197   3.457  15.258  0.00  0.00    +0.013 A 
ATOM     17  C   UNL     1      37.288   4.377  15.459  0.00  0.00    +0.005 A 
ATOM     18  C   UNL     1      37.064   5.596  16.234  0.00  0.00    -0.033 A 
ATOM     28  C   UNL     1      35.744   5.859  16.783  0.00  0.00    +0.005 A 
ATOM     29  C   UNL     1      34.673   4.959  16.589  0.00  0.00    +0.013 A 
BRANCH  18  19
ATOM     19  C   UNL     1      38.176   6.624  16.516  0.00  0.00    +0.119 C 
BRANCH  19  20
ATOM     20  N   UNL     1      38.210   7.237  17.877  0.00  0.00    -0.302 NA
ATOM     21  C   UNL     1      38.093   8.763  17.823  0.00  0.00    +0.066 C 
ATOM     22  C   UNL     1      38.108   9.387  19.256  0.00  0.00    -0.064 C 
ATOM     23  N   UNL     1      39.388   8.967  19.979  0.00  0.00    +0.379 N 
ATOM     24  C   UNL     1      39.432   9.599  21.306  0.00  0.00    -0.096 C 
ATOM     25  H   UNL     1      40.252   9.355  19.390  0.00  0.00    -0.082 HD
ATOM     26  C   UNL     1      39.513   7.451  20.036  0.00  0.00    -0.064 C 
ATOM     27  C   UNL     1      39.468   6.839  18.608  0.00  0.00    +0.066 C 
ENDBRANCH  19  20
ENDBRANCH  18  19
ENDBRANCH  14  15
ENDBRANCH  12  13
TORSDOF 6
ENDMDL
MODEL 3
REMARK VINA RESULT:      -7.4      2.978     13.997
REMARK  Name = C:\Users\Docking\Desktop\test protocol\1iep_ligandH.pdb
REMARK  8 active torsions:
REMARK  status: ('A' for Active; 'I' for Inactive)
REMARK    1  A    between atoms: _5  and  _11
REMARK    2  A    between atoms: _19  and  _21
REMARK    3  A    between atoms: _22  and  _66
REMARK    4  A    between atoms: _27  and  _30
REMARK    5  A    between atoms: _32  and  _33
REMARK    6  A    between atoms: _38  and  _43
REMARK    7  A    between atoms: _43  and  _46
REMARK    8  A    between atoms: _53  and  _55
REMARK                            x       y       z     vdW  Elec       q    Type
REMARK                         _______ _______ _______ _____ _____    ______ ____
ROOT
ATOM     10  C   UNL     1      57.547  19.481  19.004  0.00  0.00    +0.038 A 
ATOM     11  C   UNL     1      57.103  20.807  19.246  0.00  0.00    +0.047 A 
ATOM     12  C   UNL     1      57.777  21.947  18.645  0.00  0.00    +0.035 A 
ATOM     32  C   UNL     1      58.899  21.701  17.800  0.00  0.00    +0.024 A 
ATOM     33  C   UNL     1      59.364  20.361  17.544  0.00  0.00    +0.007 A 
ATOM     34  C   UNL     1      58.704  19.232  18.136  0.00  0.00    -0.029 A 
ATOM     35  C   UNL     1      59.250  17.817  17.832  0.00  0.00    +0.045 C 
ENDROOT
BRANCH  10   9
ATOM      4  C   UNL     1      56.921  16.328  22.567  0.00  0.00    +0.077 A 
ATOM      5  C   UNL     1      58.071  16.811  23.276  0.00  0.00    +0.048 A 
ATOM      6  C   UNL     1      58.801  17.867  22.686  0.00  0.00    +0.116 A 
ATOM      7  N   UNL     1      58.400  18.394  21.477  0.00  0.00    -0.223 NA
ATOM      8  C   UNL     1      57.288  17.903  20.819  0.00  0.00    +0.220 A 
ATOM      9  N   UNL     1      56.862  18.423  19.606  0.00  0.00    -0.283 N 
ATOM     36  H   UNL     1      56.041  18.029  19.149  0.00  0.00    +0.155 HD
ATOM     37  N   UNL     1      56.575  16.894  21.361  0.00  0.00    -0.214 NA
BRANCH   4   3
ATOM      1  C   UNL     1      54.323  13.408  22.724  0.00  0.00    +0.020 A 
ATOM      2  C   UNL     1      55.146  14.471  22.195  0.00  0.00    +0.013 A 
ATOM      3  C   UNL     1      56.047  15.218  23.063  0.00  0.00    +0.019 A 
ATOM     38  C   UNL     1      56.091  14.863  24.474  0.00  0.00    +0.120 A 
ATOM     39  N   UNL     1      55.285  13.836  24.955  0.00  0.00    -0.263 NA
ATOM     40  C   UNL     1      54.414  13.110  24.129  0.00  0.00    +0.111 A 
ENDBRANCH   4   3
ENDBRANCH  10   9
BRANCH  12  13
ATOM     13  N   UNL     1      57.377  23.315  18.861  0.00  0.00    -0.281 N 
ATOM     14  C   UNL     1      57.639  24.116  19.961  0.00  0.00    +0.248 C 
ATOM     30  O   UNL     1      58.077  23.706  21.026  0.00  0.00    -0.270 OA
ATOM     31  H   UNL     1      56.836  23.747  18.112  0.00  0.00    +0.155 HD
BRANCH  14  15
ATOM     15  C   UNL     1      57.360  25.581  19.871  0.00  0.00    +0.037 A 
ATOM     16  C   UNL     1      57.357  26.429  21.065  0.00  0.00    +0.013 A 
ATOM     17  C   UNL     1      57.068  27.837  20.952  0.00  0.00    +0.005 A 
ATOM     18  C   UNL     1      56.781  28.406  19.637  0.00  0.00    -0.033 A 
ATOM     28  C   UNL     1      56.795  27.542  18.468  0.00  0.00    +0.005 A 
ATOM     29  C   UNL     1      57.077  26.162  18.575  0.00  0.00    +0.013 A 
BRANCH  18  19
ATOM     19  C   UNL     1      56.441  29.893  19.425  0.00  0.00    +0.119 C 
BRANCH  19  20
ATOM     20  N   UNL     1      55.924  30.292  18.082  0.00  0.00    -0.302 NA
ATOM     21  C   UNL     1      56.935  31.139  17.305  0.00  0.00    +0.066 C 
ATOM     22  C   UNL     1      56.387  31.528  15.894  0.00  0.00    -0.064 C 
ATOM     23  N   UNL     1      55.062  32.277  16.053  0.00  0.00    +0.379 N 
ATOM     24  C   UNL     1      54.573  32.695  14.731  0.00  0.00    -0.096 C 
ATOM     25  H   UNL     1      55.264  33.199  16.646  0.00  0.00    -0.082 HD
ATOM     26  C   UNL     1      54.052  31.442  16.827  0.00  0.00    -0.064 C 
ATOM     27  C   UNL     1      54.618  31.036  18.216  0.00  0.00    +0.066 C 
ENDBRANCH  19  20
ENDBRANCH  18  19
ENDBRANCH  14  15
ENDBRANCH  12  13
TORSDOF 6
ENDMDL
MODEL 4
REMARK VINA RESULT:      -7.1     20.549     24.205
REMARK  Name = C:\Users\Docking\Desktop\test protocol\1iep_ligandH.pdb
REMARK  8 active torsions:
REMARK  status: ('A' for Active; 'I' for Inactive)
REMARK    1  A    between atoms: _5  and  _11
REMARK    2  A    between atoms: _19  and  _21
REMARK    3  A    between atoms: _22  and  _66
REMARK    4  A    between atoms: _27  and  _30
REMARK    5  A    between atoms: _32  and  _33
REMARK    6  A    between atoms: _38  and  _43
REMARK    7  A    between atoms: _43  and  _46
REMARK    8  A    between atoms: _53  and  _55
REMARK                            x       y       z     vdW  Elec       q    Type
REMARK                         _______ _______ _______ _____ _____    ______ ____
ROOT
ATOM     10  C   UNL     1      54.599   8.829   8.619  0.00  0.00    +0.038 A 
ATOM     11  C   UNL     1      53.302   9.191   8.172  0.00  0.00    +0.047 A 
ATOM     12  C   UNL     1      53.071   9.614   6.799  0.00  0.00    +0.035 A 
ATOM     32  C   UNL     1      54.182   9.653   5.908  0.00  0.00    +0.024 A 
ATOM     33  C   UNL     1      55.507   9.290   6.346  0.00  0.00    +0.007 A 
ATOM     34  C   UNL     1      55.742   8.874   7.699  0.00  0.00    -0.029 A 
ATOM     35  C   UNL     1      57.184   8.502   8.115  0.00  0.00    +0.045 C 
ENDROOT
BRANCH  10   9
ATOM      4  C   UNL     1      54.770   5.466  12.039  0.00  0.00    +0.077 A 
ATOM      5  C   UNL     1      54.478   4.417  11.105  0.00  0.00    +0.048 A 
ATOM      6  C   UNL     1      54.284   4.786   9.755  0.00  0.00    +0.116 A 
ATOM      7  N   UNL     1      54.377   6.108   9.379  0.00  0.00    -0.223 NA
ATOM      8  C   UNL     1      54.658   7.095  10.305  0.00  0.00    +0.220 A 
ATOM      9  N   UNL     1      54.764   8.430   9.947  0.00  0.00    -0.283 N 
ATOM     36  H   UNL     1      54.965   9.130  10.662  0.00  0.00    +0.155 HD
ATOM     37  N   UNL     1      54.846   6.769  11.601  0.00  0.00    -0.214 NA
BRANCH   4   3
ATOM      1  C   UNL     1      56.486   5.133  15.539  0.00  0.00    +0.020 A 
ATOM      2  C   UNL     1      56.314   5.367  14.123  0.00  0.00    +0.013 A 
ATOM      3  C   UNL     1      55.003   5.235  13.500  0.00  0.00    +0.019 A 
ATOM     38  C   UNL     1      53.877   4.863  14.344  0.00  0.00    +0.120 A 
ATOM     39  N   UNL     1      54.073   4.643  15.704  0.00  0.00    -0.263 NA
ATOM     40  C   UNL     1      55.330   4.765  16.314  0.00  0.00    +0.111 A 
ENDBRANCH   4   3
ENDBRANCH  10   9
BRANCH  12  13
ATOM     13  N   UNL     1      51.778  10.001   6.290  0.00  0.00    -0.281 N 
ATOM     14  C   UNL     1      50.903   9.246   5.527  0.00  0.00    +0.248 C 
ATOM     30  O   UNL     1      51.193   8.191   4.983  0.00  0.00    -0.270 OA
ATOM     31  H   UNL     1      51.471  10.946   6.521  0.00  0.00    +0.155 HD
BRANCH  14  15
ATOM     15  C   UNL     1      49.507   9.742   5.327  0.00  0.00    +0.037 A 
ATOM     16  C   UNL     1      48.730   9.368   4.142  0.00  0.00    +0.013 A 
ATOM     17  C   UNL     1      47.392   9.874   3.965  0.00  0.00    +0.005 A 
ATOM     18  C   UNL     1      46.822  10.759   4.978  0.00  0.00    -0.033 A 
ATOM     28  C   UNL     1      47.613  11.110   6.146  0.00  0.00    +0.005 A 
ATOM     29  C   UNL     1      48.925  10.617   6.322  0.00  0.00    +0.013 A 
BRANCH  18  19
ATOM     19  C   UNL     1      45.410  11.363   4.861  0.00  0.00    +0.119 C 
BRANCH  19  20
ATOM     20  N   UNL     1      44.258  10.413   4.848  0.00  0.00    -0.302 NA
ATOM     21  C   UNL     1      42.932  11.121   4.559  0.00  0.00    +0.066 C 
ATOM     22  C   UNL     1      41.741  10.108   4.526  0.00  0.00    -0.064 C 
ATOM     23  N   UNL     1      41.676   9.358   5.858  0.00  0.00    +0.379 N 
ATOM     24  C   UNL     1      40.523   8.447   5.852  0.00  0.00    -0.096 C 
ATOM     25  H   UNL     1      41.508  10.112   6.662  0.00  0.00    -0.082 HD
ATOM     26  C   UNL     1      42.992   8.653   6.154  0.00  0.00    -0.064 C 
ATOM     27  C   UNL     1      44.173   9.664   6.155  0.00  0.00    +0.066 C 
ENDBRANCH  19  20
ENDBRANCH  18  19
ENDBRANCH  14  15
ENDBRANCH  12  13
TORSDOF 6
ENDMDL
MODEL 5
REMARK VINA RESULT:      -7.1     25.776     33.350
REMARK  Name = C:\Users\Docking\Desktop\test protocol\1iep_ligandH.pdb
REMARK  8 active torsions:
REMARK  status: ('A' for Active; 'I' for Inactive)
REMARK    1  A    between atoms: _5  and  _11
REMARK    2  A    between atoms: _19  and  _21
REMARK    3  A    between atoms: _22  and  _66
REMARK    4  A    between atoms: _27  and  _30
REMARK    5  A    between atoms: _32  and  _33
REMARK    6  A    between atoms: _38  and  _43
REMARK    7  A    between atoms: _43  and  _46
REMARK    8  A    between atoms: _53  and  _55
REMARK                            x       y       z     vdW  Elec       q    Type
REMARK                         _______ _______ _______ _____ _____    ______ ____
ROOT
ATOM     10  C   UNL     1      33.230  31.743   2.607  0.00  0.00    +0.038 A 
ATOM     11  C   UNL     1      31.850  32.055   2.711  0.00  0.00    +0.047 A 
ATOM     12  C   UNL     1      30.889  31.546   1.745  0.00  0.00    +0.035 A 
ATOM     32  C   UNL     1      31.368  30.719   0.688  0.00  0.00    +0.024 A 
ATOM     33  C   UNL     1      32.767  30.392   0.567  0.00  0.00    +0.007 A 
ATOM     34  C   UNL     1      33.720  30.894   1.515  0.00  0.00    -0.029 A 
ATOM     35  C   UNL     1      35.209  30.518   1.333  0.00  0.00    +0.045 C 
ENDROOT
BRANCH  10   9
ATOM      4  C   UNL     1      35.863  35.310   4.447  0.00  0.00    +0.077 A 
ATOM      5  C   UNL     1      35.476  36.214   3.402  0.00  0.00    +0.048 A 
ATOM      6  C   UNL     1      34.604  35.719   2.406  0.00  0.00    +0.116 A 
ATOM      7  N   UNL     1      34.158  34.417   2.462  0.00  0.00    -0.223 NA
ATOM      8  C   UNL     1      34.551  33.571   3.482  0.00  0.00    +0.220 A 
ATOM      9  N   UNL     1      34.108  32.260   3.562  0.00  0.00    -0.283 N 
ATOM     36  H   UNL     1      34.428  31.665   4.327  0.00  0.00    +0.155 HD
ATOM     37  N   UNL     1      35.385  34.019   4.444  0.00  0.00    -0.214 NA
BRANCH   4   3
ATOM      1  C   UNL     1      37.874  37.372   7.094  0.00  0.00    +0.020 A 
ATOM      2  C   UNL     1      36.981  37.063   6.001  0.00  0.00    +0.013 A 
ATOM      3  C   UNL     1      36.776  35.685   5.572  0.00  0.00    +0.019 A 
ATOM     38  C   UNL     1      37.495  34.634   6.277  0.00  0.00    +0.120 A 
ATOM     39  N   UNL     1      38.350  34.962   7.325  0.00  0.00    -0.263 NA
ATOM     40  C   UNL     1      38.556  36.284   7.745  0.00  0.00    +0.111 A 
ENDBRANCH   4   3
ENDBRANCH  10   9
BRANCH  12  13
ATOM     13  N   UNL     1      29.477  31.835   1.795  0.00  0.00    -0.281 N 
ATOM     14  C   UNL     1      28.711  32.502   0.853  0.00  0.00    +0.248 C 
ATOM     30  O   UNL     1      29.168  33.141  -0.083  0.00  0.00    -0.270 OA
ATOM     31  H   UNL     1      28.983  31.509   2.625  0.00  0.00    +0.155 HD
BRANCH  14  15
ATOM     15  C   UNL     1      27.222  32.465   0.976  0.00  0.00    +0.037 A 
ATOM     16  C   UNL     1      26.505  31.200   1.155  0.00  0.00    +0.013 A 
ATOM     17  C   UNL     1      25.067  31.191   1.254  0.00  0.00    +0.005 A 
ATOM     18  C   UNL     1      24.336  32.453   1.175  0.00  0.00    -0.033 A 
ATOM     28  C   UNL     1      25.073  33.694   1.002  0.00  0.00    +0.005 A 
ATOM     29  C   UNL     1      26.482  33.707   0.904  0.00  0.00    +0.013 A 
BRANCH  18  19
ATOM     19  C   UNL     1      22.800  32.536   1.250  0.00  0.00    +0.119 C 
BRANCH  19  20
ATOM     20  N   UNL     1      22.042  31.250   1.188  0.00  0.00    -0.302 NA
ATOM     21  C   UNL     1      21.616  30.902  -0.241  0.00  0.00    +0.066 C 
ATOM     22  C   UNL     1      20.844  29.544  -0.290  0.00  0.00    -0.064 C 
ATOM     23  N   UNL     1      19.628  29.618   0.635  0.00  0.00    +0.379 N 
ATOM     24  C   UNL     1      18.868  28.363   0.547  0.00  0.00    -0.096 C 
ATOM     25  H   UNL     1      18.971  30.438   0.264  0.00  0.00    -0.082 HD
ATOM     26  C   UNL     1      20.042  29.966   2.057  0.00  0.00    -0.064 C 
ATOM     27  C   UNL     1      20.834  31.303   2.091  0.00  0.00    +0.066 C 
ENDBRANCH  19  20
ENDBRANCH  18  19
ENDBRANCH  14  15
ENDBRANCH  12  13
TORSDOF 6
ENDMDL
