MODEL 1
REMARK VINA RESULT:      -7.9      0.000      0.000
REMARK  Name = C:\Users\Docking\Desktop\test protocol\1iep_ligandH.pdb
REMARK  8 active torsions:
REMARK  status: ('A' for Active; 'I' for Inactive)
REMARK    1  A    between atoms: _5  and  _11
REMARK    2  A    between atoms: _19  and  _21
REMARK    3  A    between atoms: _22  and  _66
REMARK    4  A    between atoms: _27  and  _30
REMARK    5  A    between atoms: _32  and  _33
REMARK    6  A    between atoms: _38  and  _43
REMARK    7  A    between atoms: _43  and  _46
REMARK    8  A    between atoms: _53  and  _55
REMARK                            x       y       z     vdW  Elec       q    Type
REMARK                         _______ _______ _______ _____ _____    ______ ____
ROOT
ATOM     10  C   UNL     1      30.265   5.290  31.440  0.00  0.00    +0.038 A 
ATOM     11  C   UNL     1      29.510   5.160  30.247  0.00  0.00    +0.047 A 
ATOM     12  C   UNL     1      28.800   3.929  29.936  0.00  0.00    +0.035 A 
ATOM     32  C   UNL     1      28.879   2.850  30.865  0.00  0.00    +0.024 A 
ATOM     33  C   UNL     1      29.643   2.965  32.082  0.00  0.00    +0.007 A 
ATOM     34  C   UNL     1      30.348   4.176  32.393  0.00  0.00    -0.029 A 
ATOM     35  C   UNL     1      31.157   4.240  33.709  0.00  0.00    +0.045 C 
ENDROOT
BRANCH  10   9
ATOM      4  C   UNL     1      33.523   8.635  30.332  0.00  0.00    +0.077 A 
ATOM      5  C   UNL     1      33.963   7.909  29.175  0.00  0.00    +0.048 A 
ATOM      6  C   UNL     1      33.330   6.675  28.905  0.00  0.00    +0.116 A 
ATOM      7  N   UNL     1      32.332   6.212  29.735  0.00  0.00    -0.223 NA
ATOM      8  C   UNL     1      31.933   6.937  30.843  0.00  0.00    +0.220 A 
ATOM      9  N   UNL     1      30.927   6.494  31.688  0.00  0.00    -0.283 N 
ATOM     36  H   UNL     1      30.667   7.055  32.499  0.00  0.00    +0.155 HD
ATOM     37  N   UNL     1      32.524   8.117  31.124  0.00  0.00    -0.214 NA
BRANCH   4   3
ATOM      1  C   UNL     1      33.875  12.398  31.340  0.00  0.00    +0.020 A 
ATOM      2  C   UNL     1      33.275  11.147  30.937  0.00  0.00    +0.013 A 
ATOM      3  C   UNL     1      34.093   9.956  30.748  0.00  0.00    +0.019 A 
ATOM     38  C   UNL     1      35.526  10.065  30.977  0.00  0.00    +0.120 A 
ATOM     39  N   UNL     1      36.076  11.283  31.363  0.00  0.00    -0.263 NA
ATOM     40  C   UNL     1      35.299  12.437  31.547  0.00  0.00    +0.111 A 
ENDBRANCH   4   3
ENDBRANCH  10   9
BRANCH  12  13
ATOM     13  N   UNL     1      28.023   3.736  28.736  0.00  0.00    -0.281 N 
ATOM     14  C   UNL     1      28.115   2.700  27.820  0.00  0.00    +0.248 C 
ATOM     30  O   UNL     1      29.029   1.891  27.781  0.00  0.00    -0.270 OA
ATOM     31  H   UNL     1      27.321   4.449  28.539  0.00  0.00    +0.155 HD
BRANCH  14  15
ATOM     15  C   UNL     1      27.042   2.552  26.789  0.00  0.00    +0.037 A 
ATOM     16  C   UNL     1      26.083   1.446  26.845  0.00  0.00    +0.013 A 
ATOM     17  C   UNL     1      25.069   1.316  25.828  0.00  0.00    +0.005 A 
ATOM     18  C   UNL     1      25.009   2.298  24.748  0.00  0.00    -0.033 A 
ATOM     28  C   UNL     1      25.970   3.388  24.720  0.00  0.00    +0.005 A 
ATOM     29  C   UNL     1      26.966   3.518  25.714  0.00  0.00    +0.013 A 
BRANCH  18  19
ATOM     19  C   UNL     1      23.975   2.226  23.609  0.00  0.00    +0.119 C 
BRANCH  19  20
ATOM     20  N   UNL     1      23.849   0.928  22.880  0.00  0.00    -0.302 NA
ATOM     21  C   UNL     1      23.907   1.115  21.361  0.00  0.00    +0.066 C 
ATOM     22  C   UNL     1      23.797  -0.255  20.615  0.00  0.00    -0.064 C 
ATOM     23  N   UNL     1      22.500  -0.954  21.026  0.00  0.00    +0.379 N 
ATOM     24  C   UNL     1      22.365  -2.215  20.283  0.00  0.00    -0.096 C 
ATOM     25  H   UNL     1      21.652  -0.294  20.729  0.00  0.00    -0.082 HD
ATOM     26  C   UNL     1      22.433  -1.141  22.535  0.00  0.00    -0.064 C 
ATOM     27  C   UNL     1      22.573   0.223  23.268  0.00  0.00    +0.066 C 
ENDBRANCH  19  20
ENDBRANCH  18  19
ENDBRANCH  14  15
ENDBRANCH  12  13
TORSDOF 6
ENDMDL
MODEL 2
REMARK VINA RESULT:      -7.9      2.465     12.823
REMARK  Name = C:\Users\Docking\Desktop\test protocol\1iep_ligandH.pdb
REMARK  8 active torsions:
REMARK  status: ('A' for Active; 'I' for Inactive)
REMARK    1  A    between atoms: _5  and  _11
REMARK    2  A    between atoms: _19  and  _21
REMARK    3  A    between atoms: _22  and  _66
REMARK    4  A    between atoms: _27  and  _30
REMARK    5  A    between atoms: _32  and  _33
REMARK    6  A    between atoms: _38  and  _43
REMARK    7  A    between atoms: _43  and  _46
REMARK    8  A    between atoms: _53  and  _55
REMARK                            x       y       z     vdW  Elec       q    Type
REMARK                         _______ _______ _______ _____ _____    ______ ____
ROOT
ATOM     10  C   UNL     1      28.104   2.784  29.244  0.00  0.00    +0.038 A 
ATOM     11  C   UNL     1      28.752   4.026  29.468  0.00  0.00    +0.047 A 
ATOM     12  C   UNL     1      29.698   4.195  30.560  0.00  0.00    +0.035 A 
ATOM     32  C   UNL     1      29.963   3.077  31.403  0.00  0.00    +0.024 A 
ATOM     33  C   UNL     1      29.312   1.808  31.191  0.00  0.00    +0.007 A 
ATOM     34  C   UNL     1      28.376   1.636  30.117  0.00  0.00    -0.029 A 
ATOM     35  C   UNL     1      27.704   0.255  29.940  0.00  0.00    +0.045 C 
ENDROOT
BRANCH  10   9
ATOM      4  C   UNL     1      27.018   1.594  24.723  0.00  0.00    +0.077 A 
ATOM      5  C   UNL     1      28.362   1.174  24.448  0.00  0.00    +0.048 A 
ATOM      6  C   UNL     1      29.304   1.287  25.495  0.00  0.00    +0.116 A 
ATOM      7  N   UNL     1      28.919   1.784  26.721  0.00  0.00    -0.223 NA
ATOM      8  C   UNL     1      27.616   2.182  26.952  0.00  0.00    +0.220 A 
ATOM      9  N   UNL     1      27.205   2.678  28.180  0.00  0.00    -0.283 N 
ATOM     36  H   UNL     1      26.236   2.968  28.309  0.00  0.00    +0.155 HD
ATOM     37  N   UNL     1      26.697   2.086  25.968  0.00  0.00    -0.214 NA
BRANCH   4   3
ATOM      1  C   UNL     1      23.467   1.434  23.089  0.00  0.00    +0.020 A 
ATOM      2  C   UNL     1      24.501   1.492  24.097  0.00  0.00    +0.013 A 
ATOM      3  C   UNL     1      25.908   1.533  23.720  0.00  0.00    +0.019 A 
ATOM     38  C   UNL     1      26.238   1.516  22.303  0.00  0.00    +0.120 A 
ATOM     39  N   UNL     1      25.222   1.458  21.354  0.00  0.00    -0.263 NA
ATOM     40  C   UNL     1      23.864   1.416  21.705  0.00  0.00    +0.111 A 
ENDBRANCH   4   3
ENDBRANCH  10   9
BRANCH  12  13
ATOM     13  N   UNL     1      30.380   5.434  30.840  0.00  0.00    -0.281 N 
ATOM     14  C   UNL     1      31.699   5.760  30.571  0.00  0.00    +0.248 C 
ATOM     30  O   UNL     1      32.556   4.955  30.238  0.00  0.00    -0.270 OA
ATOM     31  H   UNL     1      29.823   6.159  31.293  0.00  0.00    +0.155 HD
BRANCH  14  15
ATOM     15  C   UNL     1      32.133   7.184  30.704  0.00  0.00    +0.037 A 
ATOM     16  C   UNL     1      32.579   7.726  31.990  0.00  0.00    +0.013 A 
ATOM     17  C   UNL     1      32.975   9.108  32.095  0.00  0.00    +0.005 A 
ATOM     18  C   UNL     1      32.929   9.958  30.908  0.00  0.00    -0.033 A 
ATOM     28  C   UNL     1      32.487   9.393  29.643  0.00  0.00    +0.005 A 
ATOM     29  C   UNL     1      32.097   8.040  29.537  0.00  0.00    +0.013 A 
BRANCH  18  19
ATOM     19  C   UNL     1      33.314  11.449  30.931  0.00  0.00    +0.119 C 
BRANCH  19  20
ATOM     20  N   UNL     1      32.918  12.238  32.136  0.00  0.00    -0.302 NA
ATOM     21  C   UNL     1      31.407  12.478  32.195  0.00  0.00    +0.066 C 
ATOM     22  C   UNL     1      31.008  13.285  33.473  0.00  0.00    -0.064 C 
ATOM     23  N   UNL     1      31.768  14.613  33.492  0.00  0.00    +0.379 N 
ATOM     24  C   UNL     1      31.352  15.399  34.662  0.00  0.00    -0.096 C 
ATOM     25  H   UNL     1      31.476  15.182  32.579  0.00  0.00    -0.082 HD
ATOM     26  C   UNL     1      33.272  14.384  33.430  0.00  0.00    -0.064 C 
ATOM     27  C   UNL     1      33.654  13.555  32.172  0.00  0.00    +0.066 C 
ENDBRANCH  19  20
ENDBRANCH  18  19
ENDBRANCH  14  15
ENDBRANCH  12  13
TORSDOF 6
ENDMDL
MODEL 3
REMARK VINA RESULT:      -7.9     44.346     46.119
REMARK  Name = C:\Users\Docking\Desktop\test protocol\1iep_ligandH.pdb
REMARK  8 active torsions:
REMARK  status: ('A' for Active; 'I' for Inactive)
REMARK    1  A    between atoms: _5  and  _11
REMARK    2  A    between atoms: _19  and  _21
REMARK    3  A    between atoms: _22  and  _66
REMARK    4  A    between atoms: _27  and  _30
REMARK    5  A    between atoms: _32  and  _33
REMARK    6  A    between atoms: _38  and  _43
REMARK    7  A    between atoms: _43  and  _46
REMARK    8  A    between atoms: _53  and  _55
REMARK                            x       y       z     vdW  Elec       q    Type
REMARK                         _______ _______ _______ _____ _____    ______ ____
ROOT
ATOM     10  C   UNL     1      -1.881  33.591  34.156  0.00  0.00    +0.038 A 
ATOM     11  C   UNL     1      -2.334  33.493  35.496  0.00  0.00    +0.047 A 
ATOM     12  C   UNL     1      -1.398  33.325  36.597  0.00  0.00    +0.035 A 
ATOM     32  C   UNL     1      -0.006  33.264  36.296  0.00  0.00    +0.024 A 
ATOM     33  C   UNL     1       0.472  33.361  34.940  0.00  0.00    +0.007 A 
ATOM     34  C   UNL     1      -0.447  33.524  33.850  0.00  0.00    -0.029 A 
ATOM     35  C   UNL     1       0.122  33.616  32.414  0.00  0.00    +0.045 C 
ENDROOT
BRANCH  10   9
ATOM      4  C   UNL     1      -5.047  36.230  31.696  0.00  0.00    +0.077 A 
ATOM      5  C   UNL     1      -4.823  37.379  32.526  0.00  0.00    +0.048 A 
ATOM      6  C   UNL     1      -3.891  37.247  33.579  0.00  0.00    +0.116 A 
ATOM      7  N   UNL     1      -3.237  36.051  33.778  0.00  0.00    -0.223 NA
ATOM      8  C   UNL     1      -3.476  34.962  32.960  0.00  0.00    +0.220 A 
ATOM      9  N   UNL     1      -2.823  33.752  33.138  0.00  0.00    -0.283 N 
ATOM     36  H   UNL     1      -3.034  32.970  32.518  0.00  0.00    +0.155 HD
ATOM     37  N   UNL     1      -4.363  35.062  31.948  0.00  0.00    -0.214 NA
BRANCH   4   3
ATOM      1  C   UNL     1      -7.847  37.223  29.152  0.00  0.00    +0.020 A 
ATOM      2  C   UNL     1      -6.950  37.288  30.282  0.00  0.00    +0.013 A 
ATOM      3  C   UNL     1      -5.999  36.214  30.540  0.00  0.00    +0.019 A 
ATOM     38  C   UNL     1      -5.980  35.080  29.628  0.00  0.00    +0.120 A 
ATOM     39  N   UNL     1      -6.858  35.045  28.548  0.00  0.00    -0.263 NA
ATOM     40  C   UNL     1      -7.778  36.072  28.291  0.00  0.00    +0.111 A 
ENDBRANCH   4   3
ENDBRANCH  10   9
BRANCH  12  13
ATOM     13  N   UNL     1      -1.801  33.212  37.977  0.00  0.00    -0.281 N 
ATOM     14  C   UNL     1      -2.788  33.924  38.637  0.00  0.00    +0.248 C 
ATOM     30  O   UNL     1      -3.334  34.924  38.193  0.00  0.00    -0.270 OA
ATOM     31  H   UNL     1      -1.297  32.522  38.534  0.00  0.00    +0.155 HD
BRANCH  14  15
ATOM     15  C   UNL     1      -3.222  33.470  39.993  0.00  0.00    +0.037 A 
ATOM     16  C   UNL     1      -4.261  34.185  40.738  0.00  0.00    +0.013 A 
ATOM     17  C   UNL     1      -4.649  33.736  42.052  0.00  0.00    +0.005 A 
ATOM     18  C   UNL     1      -3.997  32.562  42.628  0.00  0.00    -0.033 A 
ATOM     28  C   UNL     1      -2.973  31.868  41.865  0.00  0.00    +0.005 A 
ATOM     29  C   UNL     1      -2.590  32.306  40.578  0.00  0.00    +0.013 A 
BRANCH  18  19
ATOM     19  C   UNL     1      -4.333  32.024  44.032  0.00  0.00    +0.119 C 
BRANCH  19  20
ATOM     20  N   UNL     1      -5.226  30.829  44.111  0.00  0.00    -0.302 NA
ATOM     21  C   UNL     1      -6.566  31.156  44.776  0.00  0.00    +0.066 C 
ATOM     22  C   UNL     1      -7.496  29.901  44.829  0.00  0.00    -0.064 C 
ATOM     23  N   UNL     1      -6.782  28.772  45.576  0.00  0.00    +0.379 N 
ATOM     24  C   UNL     1      -7.676  27.610  45.679  0.00  0.00    -0.096 C 
ATOM     25  H   UNL     1      -6.573  29.131  46.610  0.00  0.00    -0.082 HD
ATOM     26  C   UNL     1      -5.447  28.443  44.923  0.00  0.00    -0.064 C 
ATOM     27  C   UNL     1      -4.542  29.704  44.848  0.00  0.00    +0.066 C 
ENDBRANCH  19  20
ENDBRANCH  18  19
ENDBRANCH  14  15
ENDBRANCH  12  13
TORSDOF 6
ENDMDL
MODEL 4
REMARK VINA RESULT:      -7.9     31.339     36.449
REMARK  Name = C:\Users\Docking\Desktop\test protocol\1iep_ligandH.pdb
REMARK  8 active torsions:
REMARK  status: ('A' for Active; 'I' for Inactive)
REMARK    1  A    between atoms: _5  and  _11
REMARK    2  A    between atoms: _19  and  _21
REMARK    3  A    between atoms: _22  and  _66
REMARK    4  A    between atoms: _27  and  _30
REMARK    5  A    between atoms: _32  and  _33
REMARK    6  A    between atoms: _38  and  _43
REMARK    7  A    between atoms: _43  and  _46
REMARK    8  A    between atoms: _53  and  _55
REMARK                            x       y       z     vdW  Elec       q    Type
REMARK                         _______ _______ _______ _____ _____    ______ ____
ROOT
ATOM     10  C   UNL     1      11.608  36.174  38.573  0.00  0.00    +0.038 A 
ATOM     11  C   UNL     1      12.737  35.371  38.271  0.00  0.00    +0.047 A 
ATOM     12  C   UNL     1      13.853  35.263  39.197  0.00  0.00    +0.035 A 
ATOM     32  C   UNL     1      13.786  35.986  40.424  0.00  0.00    +0.024 A 
ATOM     33  C   UNL     1      12.647  36.809  40.747  0.00  0.00    +0.007 A 
ATOM     34  C   UNL     1      11.543  36.920  39.836  0.00  0.00    -0.029 A 
ATOM     35  C   UNL     1      10.350  37.822  40.231  0.00  0.00    +0.045 C 
ENDROOT
BRANCH  10   9
ATOM      4  C   UNL     1       7.748  34.320  36.406  0.00  0.00    +0.077 A 
ATOM      5  C   UNL     1       7.834  33.104  37.162  0.00  0.00    +0.048 A 
ATOM      6  C   UNL     1       8.891  32.993  38.093  0.00  0.00    +0.116 A 
ATOM      7  N   UNL     1       9.788  34.027  38.249  0.00  0.00    -0.223 NA
ATOM      8  C   UNL     1       9.677  35.186  37.502  0.00  0.00    +0.220 A 
ATOM      9  N   UNL     1      10.564  36.241  37.648  0.00  0.00    -0.283 N 
ATOM     36  H   UNL     1      10.453  37.076  37.073  0.00  0.00    +0.155 HD
ATOM     37  N   UNL     1       8.678  35.316  36.605  0.00  0.00    -0.214 NA
BRANCH   4   3
ATOM      1  C   UNL     1       5.922  35.164  33.051  0.00  0.00    +0.020 A 
ATOM      2  C   UNL     1       6.985  34.913  33.996  0.00  0.00    +0.013 A 
ATOM      3  C   UNL     1       6.686  34.589  35.385  0.00  0.00    +0.019 A 
ATOM     38  C   UNL     1       5.289  34.525  35.788  0.00  0.00    +0.120 A 
ATOM     39  N   UNL     1       4.286  34.773  34.856  0.00  0.00    -0.263 NA
ATOM     40  C   UNL     1       4.563  35.087  33.517  0.00  0.00    +0.111 A 
ENDBRANCH   4   3
ENDBRANCH  10   9
BRANCH  12  13
ATOM     13  N   UNL     1      15.030  34.469  38.941  0.00  0.00    -0.281 N 
ATOM     14  C   UNL     1      16.257  34.896  38.462  0.00  0.00    +0.248 C 
ATOM     30  O   UNL     1      16.464  35.998  37.976  0.00  0.00    -0.270 OA
ATOM     31  H   UNL     1      14.947  33.472  39.137  0.00  0.00    +0.155 HD
BRANCH  14  15
ATOM     15  C   UNL     1      17.420  33.958  38.517  0.00  0.00    +0.037 A 
ATOM     16  C   UNL     1      18.282  33.886  39.699  0.00  0.00    +0.013 A 
ATOM     17  C   UNL     1      19.407  32.985  39.720  0.00  0.00    +0.005 A 
ATOM     18  C   UNL     1      19.674  32.146  38.554  0.00  0.00    -0.033 A 
ATOM     28  C   UNL     1      18.799  32.234  37.396  0.00  0.00    +0.005 A 
ATOM     29  C   UNL     1      17.696  33.117  37.372  0.00  0.00    +0.013 A 
BRANCH  18  19
ATOM     19  C   UNL     1      20.864  31.171  38.480  0.00  0.00    +0.119 C 
BRANCH  19  20
ATOM     20  N   UNL     1      21.747  31.077  39.680  0.00  0.00    -0.302 NA
ATOM     21  C   UNL     1      23.048  31.866  39.500  0.00  0.00    +0.066 C 
ATOM     22  C   UNL     1      23.949  31.776  40.774  0.00  0.00    -0.064 C 
ATOM     23  N   UNL     1      24.245  30.307  41.083  0.00  0.00    +0.379 N 
ATOM     24  C   UNL     1      25.140  30.221  42.246  0.00  0.00    -0.096 C 
ATOM     25  H   UNL     1      24.786  29.880  40.207  0.00  0.00    -0.082 HD
ATOM     26  C   UNL     1      22.957  29.515  41.261  0.00  0.00    -0.064 C 
ATOM     27  C   UNL     1      22.055  29.636  40.001  0.00  0.00    +0.066 C 
ENDBRANCH  19  20
ENDBRANCH  18  19
ENDBRANCH  14  15
ENDBRANCH  12  13
TORSDOF 6
ENDMDL
MODEL 5
REMARK VINA RESULT:      -7.8     28.277     31.073
REMARK  Name = C:\Users\Docking\Desktop\test protocol\1iep_ligandH.pdb
REMARK  8 active torsions:
REMARK  status: ('A' for Active; 'I' for Inactive)
REMARK    1  A    between atoms: _5  and  _11
REMARK    2  A    between atoms: _19  and  _21
REMARK    3  A    between atoms: _22  and  _66
REMARK    4  A    between atoms: _27  and  _30
REMARK    5  A    between atoms: _32  and  _33
REMARK    6  A    between atoms: _38  and  _43
REMARK    7  A    between atoms: _43  and  _46
REMARK    8  A    between atoms: _53  and  _55
REMARK                            x       y       z     vdW  Elec       q    Type
REMARK                         _______ _______ _______ _____ _____    ______ ____
ROOT
ATOM     10  C   UNL     1      18.557  33.532  37.996  0.00  0.00    +0.038 A 
ATOM     11  C   UNL     1      18.488  33.352  36.590  0.00  0.00    +0.047 A 
ATOM     12  C   UNL     1      17.630  34.189  35.766  0.00  0.00    +0.035 A 
ATOM     32  C   UNL     1      16.858  35.201  36.406  0.00  0.00    +0.024 A 
ATOM     33  C   UNL     1      16.915  35.397  37.833  0.00  0.00    +0.007 A 
ATOM     34  C   UNL     1      17.758  34.573  38.652  0.00  0.00    -0.029 A 
ATOM     35  C   UNL     1      17.774  34.824  40.178  0.00  0.00    +0.045 C 
ENDROOT
BRANCH  10   9
ATOM      4  C   UNL     1      22.814  32.464  39.939  0.00  0.00    +0.077 A 
ATOM      5  C   UNL     1      23.421  33.650  39.407  0.00  0.00    +0.048 A 
ATOM      6  C   UNL     1      22.605  34.504  38.632  0.00  0.00    +0.116 A 
ATOM      7  N   UNL     1      21.282  34.187  38.413  0.00  0.00    -0.223 NA
ATOM      8  C   UNL     1      20.729  33.035  38.940  0.00  0.00    +0.220 A 
ATOM      9  N   UNL     1      19.398  32.700  38.739  0.00  0.00    -0.283 N 
ATOM     36  H   UNL     1      19.030  31.837  39.138  0.00  0.00    +0.155 HD
ATOM     37  N   UNL     1      21.487  32.201  39.682  0.00  0.00    -0.214 NA
BRANCH   4   3
ATOM      1  C   UNL     1      25.476  30.754  42.240  0.00  0.00    +0.020 A 
ATOM      2  C   UNL     1      24.812  31.756  41.438  0.00  0.00    +0.013 A 
ATOM      3  C   UNL     1      23.545  31.463  40.780  0.00  0.00    +0.019 A 
ATOM     38  C   UNL     1      22.972  30.137  40.954  0.00  0.00    +0.120 A 
ATOM     39  N   UNL     1      23.636  29.192  41.731  0.00  0.00    -0.263 NA
ATOM     40  C   UNL     1      24.856  29.462  42.368  0.00  0.00    +0.111 A 
ENDBRANCH   4   3
ENDBRANCH  10   9
BRANCH  12  13
ATOM     13  N   UNL     1      17.513  34.048  34.336  0.00  0.00    -0.281 N 
ATOM     14  C   UNL     1      18.249  34.690  33.354  0.00  0.00    +0.248 C 
ATOM     30  O   UNL     1      18.980  35.649  33.553  0.00  0.00    -0.270 OA
ATOM     31  H   UNL     1      16.801  33.395  34.008  0.00  0.00    +0.155 HD
BRANCH  14  15
ATOM     15  C   UNL     1      18.147  34.206  31.943  0.00  0.00    +0.037 A 
ATOM     16  C   UNL     1      18.636  35.017  30.825  0.00  0.00    +0.013 A 
ATOM     17  C   UNL     1      18.510  34.534  29.472  0.00  0.00    +0.005 A 
ATOM     18  C   UNL     1      17.893  33.232  29.231  0.00  0.00    -0.033 A 
ATOM     28  C   UNL     1      17.422  32.446  30.360  0.00  0.00    +0.005 A 
ATOM     29  C   UNL     1      17.543  32.916  31.686  0.00  0.00    +0.013 A 
BRANCH  18  19
ATOM     19  C   UNL     1      17.699  32.647  27.820  0.00  0.00    +0.119 C 
BRANCH  19  20
ATOM     20  N   UNL     1      16.618  31.631  27.643  0.00  0.00    -0.302 NA
ATOM     21  C   UNL     1      16.915  30.672  26.488  0.00  0.00    +0.066 C 
ATOM     22  C   UNL     1      15.786  29.602  26.332  0.00  0.00    -0.064 C 
ATOM     23  N   UNL     1      14.445  30.307  26.120  0.00  0.00    +0.379 N 
ATOM     24  C   UNL     1      13.390  29.303  25.915  0.00  0.00    -0.096 C 
ATOM     25  H   UNL     1      14.524  30.910  25.185  0.00  0.00    -0.082 HD
ATOM     26  C   UNL     1      14.143  31.265  27.263  0.00  0.00    -0.064 C 
ATOM     27  C   UNL     1      15.286  32.306  27.428  0.00  0.00    +0.066 C 
ENDBRANCH  19  20
ENDBRANCH  18  19
ENDBRANCH  14  15
ENDBRANCH  12  13
TORSDOF 6
ENDMDL
