MODEL 1
REMARK VINA RESULT:      -8.9      0.000      0.000
REMARK  Name = C:\Users\Docking\Desktop\test protocol\1iep_ligandH.pdb
REMARK  8 active torsions:
REMARK  status: ('A' for Active; 'I' for Inactive)
REMARK    1  A    between atoms: _5  and  _11
REMARK    2  A    between atoms: _19  and  _21
REMARK    3  A    between atoms: _22  and  _66
REMARK    4  A    between atoms: _27  and  _30
REMARK    5  A    between atoms: _32  and  _33
REMARK    6  A    between atoms: _38  and  _43
REMARK    7  A    between atoms: _43  and  _46
REMARK    8  A    between atoms: _53  and  _55
REMARK                            x       y       z     vdW  Elec       q    Type
REMARK                         _______ _______ _______ _____ _____    ______ ____
ROOT
ATOM     10  C   UNL     1      53.872 -14.800  64.498  0.00  0.00    +0.038 A 
ATOM     11  C   UNL     1      54.796 -14.654  65.564  0.00  0.00    +0.047 A 
ATOM     12  C   UNL     1      54.524 -15.214  66.878  0.00  0.00    +0.035 A 
ATOM     32  C   UNL     1      53.300 -15.919  67.072  0.00  0.00    +0.024 A 
ATOM     33  C   UNL     1      52.349 -16.076  66.001  0.00  0.00    +0.007 A 
ATOM     34  C   UNL     1      52.611 -15.524  64.702  0.00  0.00    -0.029 A 
ATOM     35  C   UNL     1      51.552 -15.717  63.592  0.00  0.00    +0.045 C 
ENDROOT
BRANCH  10   9
ATOM      4  C   UNL     1      53.652 -11.250  61.276  0.00  0.00    +0.077 A 
ATOM      5  C   UNL     1      52.821 -10.449  62.128  0.00  0.00    +0.048 A 
ATOM      6  C   UNL     1      52.467 -10.990  63.384  0.00  0.00    +0.116 A 
ATOM      7  N   UNL     1      52.916 -12.240  63.751  0.00  0.00    -0.223 NA
ATOM      8  C   UNL     1      53.715 -12.987  62.905  0.00  0.00    +0.220 A 
ATOM      9  N   UNL     1      54.185 -14.243  63.256  0.00  0.00    -0.283 N 
ATOM     36  H   UNL     1      54.765 -14.766  62.601  0.00  0.00    +0.155 HD
ATOM     37  N   UNL     1      54.065 -12.493  61.699  0.00  0.00    -0.214 NA
BRANCH   4   3
ATOM      1  C   UNL     1      54.944  -9.076  58.292  0.00  0.00    +0.020 A 
ATOM      2  C   UNL     1      54.505  -9.444  59.618  0.00  0.00    +0.013 A 
ATOM      3  C   UNL     1      54.113 -10.815  59.920  0.00  0.00    +0.019 A 
ATOM     38  C   UNL     1      54.177 -11.797  58.848  0.00  0.00    +0.120 A 
ATOM     39  N   UNL     1      54.602 -11.414  57.580  0.00  0.00    -0.263 NA
ATOM     40  C   UNL     1      54.981 -10.097  57.278  0.00  0.00    +0.111 A 
ENDBRANCH   4   3
ENDBRANCH  10   9
BRANCH  12  13
ATOM     13  N   UNL     1      55.421 -15.091  68.000  0.00  0.00    -0.281 N 
ATOM     14  C   UNL     1      56.714 -15.576  68.115  0.00  0.00    +0.248 C 
ATOM     30  O   UNL     1      57.221 -16.379  67.345  0.00  0.00    -0.270 OA
ATOM     31  H   UNL     1      55.060 -14.584  68.809  0.00  0.00    +0.155 HD
BRANCH  14  15
ATOM     15  C   UNL     1      57.560 -15.113  69.256  0.00  0.00    +0.037 A 
ATOM     16  C   UNL     1      57.902 -13.699  69.424  0.00  0.00    +0.013 A 
ATOM     17  C   UNL     1      58.735 -13.282  70.525  0.00  0.00    +0.005 A 
ATOM     18  C   UNL     1      59.230 -14.282  71.467  0.00  0.00    -0.033 A 
ATOM     28  C   UNL     1      58.872 -15.678  71.279  0.00  0.00    +0.005 A 
ATOM     29  C   UNL     1      58.057 -16.091  70.201  0.00  0.00    +0.013 A 
BRANCH  18  19
ATOM     19  C   UNL     1      60.142 -13.930  72.658  0.00  0.00    +0.119 C 
BRANCH  19  20
ATOM     20  N   UNL     1      61.153 -12.851  72.450  0.00  0.00    -0.302 NA
ATOM     21  C   UNL     1      62.365 -13.345  71.656  0.00  0.00    +0.066 C 
ATOM     22  C   UNL     1      63.402 -12.197  71.428  0.00  0.00    -0.064 C 
ATOM     23  N   UNL     1      63.835 -11.629  72.780  0.00  0.00    +0.379 N 
ATOM     24  C   UNL     1      64.854 -10.589  72.572  0.00  0.00    -0.096 C 
ATOM     25  H   UNL     1      64.310 -12.456  73.358  0.00  0.00    -0.082 HD
ATOM     26  C   UNL     1      62.636 -11.138  73.578  0.00  0.00    -0.064 C 
ATOM     27  C   UNL     1      61.598 -12.279  73.773  0.00  0.00    +0.066 C 
ENDBRANCH  19  20
ENDBRANCH  18  19
ENDBRANCH  14  15
ENDBRANCH  12  13
TORSDOF 6
ENDMDL
MODEL 2
REMARK VINA RESULT:      -8.7     11.253     17.582
REMARK  Name = C:\Users\Docking\Desktop\test protocol\1iep_ligandH.pdb
REMARK  8 active torsions:
REMARK  status: ('A' for Active; 'I' for Inactive)
REMARK    1  A    between atoms: _5  and  _11
REMARK    2  A    between atoms: _19  and  _21
REMARK    3  A    between atoms: _22  and  _66
REMARK    4  A    between atoms: _27  and  _30
REMARK    5  A    between atoms: _32  and  _33
REMARK    6  A    between atoms: _38  and  _43
REMARK    7  A    between atoms: _43  and  _46
REMARK    8  A    between atoms: _53  and  _55
REMARK                            x       y       z     vdW  Elec       q    Type
REMARK                         _______ _______ _______ _____ _____    ______ ____
ROOT
ATOM     10  C   UNL     1      55.255  -4.517  58.618  0.00  0.00    +0.038 A 
ATOM     11  C   UNL     1      55.232  -3.374  57.779  0.00  0.00    +0.047 A 
ATOM     12  C   UNL     1      56.000  -2.183  58.109  0.00  0.00    +0.035 A 
ATOM     32  C   UNL     1      56.782  -2.193  59.301  0.00  0.00    +0.024 A 
ATOM     33  C   UNL     1      56.816  -3.346  60.165  0.00  0.00    +0.007 A 
ATOM     34  C   UNL     1      56.059  -4.523  59.846  0.00  0.00    -0.029 A 
ATOM     35  C   UNL     1      56.127  -5.728  60.813  0.00  0.00    +0.045 C 
ENDROOT
BRANCH  10   9
ATOM      4  C   UNL     1      51.185  -7.063  58.634  0.00  0.00    +0.077 A 
ATOM      5  C   UNL     1      50.518  -6.101  59.463  0.00  0.00    +0.048 A 
ATOM      6  C   UNL     1      51.259  -4.969  59.869  0.00  0.00    +0.116 A 
ATOM      7  N   UNL     1      52.569  -4.820  59.470  0.00  0.00    -0.223 NA
ATOM      8  C   UNL     1      53.184  -5.767  58.672  0.00  0.00    +0.220 A 
ATOM      9  N   UNL     1      54.498  -5.633  58.253  0.00  0.00    -0.283 N 
ATOM     36  H   UNL     1      54.918  -6.358  57.670  0.00  0.00    +0.155 HD
ATOM     37  N   UNL     1      52.498  -6.858  58.272  0.00  0.00    -0.214 NA
BRANCH   4   3
ATOM      1  C   UNL     1      48.682  -9.536  56.925  0.00  0.00    +0.020 A 
ATOM      2  C   UNL     1      49.268  -8.303  57.401  0.00  0.00    +0.013 A 
ATOM      3  C   UNL     1      50.535  -8.310  58.121  0.00  0.00    +0.019 A 
ATOM     38  C   UNL     1      51.189  -9.590  58.345  0.00  0.00    +0.120 A 
ATOM     39  N   UNL     1      50.601 -10.761  57.877  0.00  0.00    -0.263 NA
ATOM     40  C   UNL     1      49.381 -10.767  57.184  0.00  0.00    +0.111 A 
ENDBRANCH   4   3
ENDBRANCH  10   9
BRANCH  12  13
ATOM     13  N   UNL     1      56.010  -0.990  57.300  0.00  0.00    -0.281 N 
ATOM     14  C   UNL     1      55.177   0.113  57.399  0.00  0.00    +0.248 C 
ATOM     30  O   UNL     1      54.153   0.148  58.065  0.00  0.00    -0.270 OA
ATOM     31  H   UNL     1      56.716  -0.953  56.566  0.00  0.00    +0.155 HD
BRANCH  14  15
ATOM     15  C   UNL     1      55.524   1.351  56.637  0.00  0.00    +0.037 A 
ATOM     16  C   UNL     1      54.641   1.871  55.590  0.00  0.00    +0.013 A 
ATOM     17  C   UNL     1      55.008   3.057  54.858  0.00  0.00    +0.005 A 
ATOM     18  C   UNL     1      56.265   3.732  55.172  0.00  0.00    -0.033 A 
ATOM     28  C   UNL     1      57.120   3.198  56.219  0.00  0.00    +0.005 A 
ATOM     29  C   UNL     1      56.764   2.034  56.938  0.00  0.00    +0.013 A 
BRANCH  18  19
ATOM     19  C   UNL     1      56.747   4.992  54.427  0.00  0.00    +0.119 C 
BRANCH  19  20
ATOM     20  N   UNL     1      56.721   6.282  55.179  0.00  0.00    -0.302 NA
ATOM     21  C   UNL     1      57.971   6.469  56.043  0.00  0.00    +0.066 C 
ATOM     22  C   UNL     1      57.938   7.834  56.804  0.00  0.00    -0.064 C 
ATOM     23  N   UNL     1      56.672   7.907  57.660  0.00  0.00    +0.379 N 
ATOM     24  C   UNL     1      56.666   9.164  58.422  0.00  0.00    -0.096 C 
ATOM     25  H   UNL     1      56.710   7.067  58.393  0.00  0.00    -0.082 HD
ATOM     26  C   UNL     1      55.424   7.719  56.809  0.00  0.00    -0.064 C 
ATOM     27  C   UNL     1      55.481   6.373  56.034  0.00  0.00    +0.066 C 
ENDBRANCH  19  20
ENDBRANCH  18  19
ENDBRANCH  14  15
ENDBRANCH  12  13
TORSDOF 6
ENDMDL
MODEL 3
REMARK VINA RESULT:      -8.4      4.204      6.500
REMARK  Name = C:\Users\Docking\Desktop\test protocol\1iep_ligandH.pdb
REMARK  8 active torsions:
REMARK  status: ('A' for Active; 'I' for Inactive)
REMARK    1  A    between atoms: _5  and  _11
REMARK    2  A    between atoms: _19  and  _21
REMARK    3  A    between atoms: _22  and  _66
REMARK    4  A    between atoms: _27  and  _30
REMARK    5  A    between atoms: _32  and  _33
REMARK    6  A    between atoms: _38  and  _43
REMARK    7  A    between atoms: _43  and  _46
REMARK    8  A    between atoms: _53  and  _55
REMARK                            x       y       z     vdW  Elec       q    Type
REMARK                         _______ _______ _______ _____ _____    ______ ____
ROOT
ATOM     10  C   UNL     1      53.076 -10.881  61.453  0.00  0.00    +0.038 A 
ATOM     11  C   UNL     1      53.710 -11.675  62.443  0.00  0.00    +0.047 A 
ATOM     12  C   UNL     1      53.395 -13.087  62.590  0.00  0.00    +0.035 A 
ATOM     32  C   UNL     1      52.431 -13.660  61.710  0.00  0.00    +0.024 A 
ATOM     33  C   UNL     1      51.776 -12.868  60.699  0.00  0.00    +0.007 A 
ATOM     34  C   UNL     1      52.081 -11.473  60.551  0.00  0.00    -0.029 A 
ATOM     35  C   UNL     1      51.343 -10.671  59.454  0.00  0.00    +0.045 C 
ENDROOT
BRANCH  10   9
ATOM      4  C   UNL     1      55.417  -7.246  59.370  0.00  0.00    +0.077 A 
ATOM      5  C   UNL     1      56.034  -8.116  58.411  0.00  0.00    +0.048 A 
ATOM      6  C   UNL     1      55.729  -9.493  58.492  0.00  0.00    +0.116 A 
ATOM      7  N   UNL     1      54.868  -9.954  59.464  0.00  0.00    -0.223 NA
ATOM      8  C   UNL     1      54.291  -9.089  60.375  0.00  0.00    +0.220 A 
ATOM      9  N   UNL     1      53.416  -9.530  61.356  0.00  0.00    -0.283 N 
ATOM     36  H   UNL     1      53.017  -8.861  62.014  0.00  0.00    +0.155 HD
ATOM     37  N   UNL     1      54.568  -7.770  60.319  0.00  0.00    -0.214 NA
BRANCH   4   3
ATOM      1  C   UNL     1      55.790  -3.497  58.319  0.00  0.00    +0.020 A 
ATOM      2  C   UNL     1      55.570  -4.921  58.225  0.00  0.00    +0.013 A 
ATOM      3  C   UNL     1      55.637  -5.766  59.411  0.00  0.00    +0.019 A 
ATOM     38  C   UNL     1      55.932  -5.132  60.687  0.00  0.00    +0.120 A 
ATOM     39  N   UNL     1      56.142  -3.758  60.747  0.00  0.00    -0.263 NA
ATOM     40  C   UNL     1      56.081  -2.935  59.612  0.00  0.00    +0.111 A 
ENDBRANCH   4   3
ENDBRANCH  10   9
BRANCH  12  13
ATOM     13  N   UNL     1      54.000 -13.941  63.582  0.00  0.00    -0.281 N 
ATOM     14  C   UNL     1      53.464 -14.356  64.790  0.00  0.00    +0.248 C 
ATOM     30  O   UNL     1      52.461 -13.881  65.301  0.00  0.00    -0.270 OA
ATOM     31  H   UNL     1      54.938 -14.281  63.368  0.00  0.00    +0.155 HD
BRANCH  14  15
ATOM     15  C   UNL     1      54.149 -15.448  65.547  0.00  0.00    +0.037 A 
ATOM     16  C   UNL     1      55.306 -15.169  66.401  0.00  0.00    +0.013 A 
ATOM     17  C   UNL     1      55.959 -16.243  67.107  0.00  0.00    +0.005 A 
ATOM     18  C   UNL     1      55.454 -17.607  66.963  0.00  0.00    -0.033 A 
ATOM     28  C   UNL     1      54.301 -17.854  66.113  0.00  0.00    +0.005 A 
ATOM     29  C   UNL     1      53.659 -16.804  65.419  0.00  0.00    +0.013 A 
BRANCH  18  19
ATOM     19  C   UNL     1      56.102 -18.817  67.662  0.00  0.00    +0.119 C 
BRANCH  19  20
ATOM     20  N   UNL     1      57.469 -18.626  68.232  0.00  0.00    -0.302 NA
ATOM     21  C   UNL     1      58.389 -19.812  67.926  0.00  0.00    +0.066 C 
ATOM     22  C   UNL     1      59.821 -19.586  68.510  0.00  0.00    -0.064 C 
ATOM     23  N   UNL     1      59.723 -19.352  70.018  0.00  0.00    +0.379 N 
ATOM     24  C   UNL     1      61.073 -19.197  70.580  0.00  0.00    -0.096 C 
ATOM     25  H   UNL     1      59.270 -20.263  70.473  0.00  0.00    -0.082 HD
ATOM     26  C   UNL     1      58.808 -18.176  70.331  0.00  0.00    -0.064 C 
ATOM     27  C   UNL     1      57.396 -18.397  69.721  0.00  0.00    +0.066 C 
ENDBRANCH  19  20
ENDBRANCH  18  19
ENDBRANCH  14  15
ENDBRANCH  12  13
TORSDOF 6
ENDMDL
MODEL 4
REMARK VINA RESULT:      -8.4     19.517     26.017
REMARK  Name = C:\Users\Docking\Desktop\test protocol\1iep_ligandH.pdb
REMARK  8 active torsions:
REMARK  status: ('A' for Active; 'I' for Inactive)
REMARK    1  A    between atoms: _5  and  _11
REMARK    2  A    between atoms: _19  and  _21
REMARK    3  A    between atoms: _22  and  _66
REMARK    4  A    between atoms: _27  and  _30
REMARK    5  A    between atoms: _32  and  _33
REMARK    6  A    between atoms: _38  and  _43
REMARK    7  A    between atoms: _43  and  _46
REMARK    8  A    between atoms: _53  and  _55
REMARK                            x       y       z     vdW  Elec       q    Type
REMARK                         _______ _______ _______ _____ _____    ______ ____
ROOT
ATOM     10  C   UNL     1      70.517  -3.290  53.493  0.00  0.00    +0.038 A 
ATOM     11  C   UNL     1      69.999  -2.503  52.432  0.00  0.00    +0.047 A 
ATOM     12  C   UNL     1      70.847  -1.573  51.702  0.00  0.00    +0.035 A 
ATOM     32  C   UNL     1      72.218  -1.472  52.077  0.00  0.00    +0.024 A 
ATOM     33  C   UNL     1      72.761  -2.264  53.153  0.00  0.00    +0.007 A 
ATOM     34  C   UNL     1      71.929  -3.181  53.878  0.00  0.00    -0.029 A 
ATOM     35  C   UNL     1      72.563  -3.999  55.027  0.00  0.00    +0.045 C 
ENDROOT
BRANCH  10   9
ATOM      4  C   UNL     1      67.792  -7.238  53.659  0.00  0.00    +0.077 A 
ATOM      5  C   UNL     1      68.083  -7.567  52.293  0.00  0.00    +0.048 A 
ATOM      6  C   UNL     1      68.932  -6.691  51.581  0.00  0.00    +0.116 A 
ATOM      7  N   UNL     1      69.447  -5.572  52.198  0.00  0.00    -0.223 NA
ATOM      8  C   UNL     1      69.145  -5.282  53.516  0.00  0.00    +0.220 A 
ATOM      9  N   UNL     1      69.658  -4.166  54.159  0.00  0.00    -0.283 N 
ATOM     36  H   UNL     1      69.406  -3.984  55.130  0.00  0.00    +0.155 HD
ATOM     37  N   UNL     1      68.335  -6.102  54.218  0.00  0.00    -0.214 NA
BRANCH   4   3
ATOM      1  C   UNL     1      65.783 -10.231  55.176  0.00  0.00    +0.020 A 
ATOM      2  C   UNL     1      66.638  -9.475  54.290  0.00  0.00    +0.013 A 
ATOM      3  C   UNL     1      66.914  -8.067  54.544  0.00  0.00    +0.019 A 
ATOM     38  C   UNL     1      66.306  -7.449  55.712  0.00  0.00    +0.120 A 
ATOM     39  N   UNL     1      65.486  -8.201  56.547  0.00  0.00    -0.263 NA
ATOM     40  C   UNL     1      65.211  -9.557  56.312  0.00  0.00    +0.111 A 
ENDBRANCH   4   3
ENDBRANCH  10   9
BRANCH  12  13
ATOM     13  N   UNL     1      70.375  -0.742  50.622  0.00  0.00    -0.281 N 
ATOM     14  C   UNL     1      69.889   0.553  50.694  0.00  0.00    +0.248 C 
ATOM     30  O   UNL     1      69.585   1.121  51.732  0.00  0.00    -0.270 OA
ATOM     31  H   UNL     1      70.403  -1.159  49.692  0.00  0.00    +0.155 HD
BRANCH  14  15
ATOM     15  C   UNL     1      69.700   1.324  49.428  0.00  0.00    +0.037 A 
ATOM     16  C   UNL     1      70.590   2.433  49.073  0.00  0.00    +0.013 A 
ATOM     17  C   UNL     1      70.375   3.171  47.854  0.00  0.00    +0.005 A 
ATOM     18  C   UNL     1      69.265   2.802  46.979  0.00  0.00    -0.033 A 
ATOM     28  C   UNL     1      68.400   1.695  47.353  0.00  0.00    +0.005 A 
ATOM     29  C   UNL     1      68.607   0.970  48.547  0.00  0.00    +0.013 A 
BRANCH  18  19
ATOM     19  C   UNL     1      68.948   3.548  45.670  0.00  0.00    +0.119 C 
BRANCH  19  20
ATOM     20  N   UNL     1      70.025   3.604  44.636  0.00  0.00    -0.302 NA
ATOM     21  C   UNL     1      69.509   4.139  43.297  0.00  0.00    +0.066 C 
ATOM     22  C   UNL     1      70.654   4.211  42.235  0.00  0.00    -0.064 C 
ATOM     23  N   UNL     1      71.274   2.824  42.062  0.00  0.00    +0.379 N 
ATOM     24  C   UNL     1      72.312   2.877  41.021  0.00  0.00    -0.096 C 
ATOM     25  H   UNL     1      70.472   2.137  41.705  0.00  0.00    -0.082 HD
ATOM     26  C   UNL     1      71.787   2.283  43.389  0.00  0.00    -0.064 C 
ATOM     27  C   UNL     1      70.648   2.243  44.446  0.00  0.00    +0.066 C 
ENDBRANCH  19  20
ENDBRANCH  18  19
ENDBRANCH  14  15
ENDBRANCH  12  13
TORSDOF 6
ENDMDL
MODEL 5
REMARK VINA RESULT:      -8.4      5.059     11.725
REMARK  Name = C:\Users\Docking\Desktop\test protocol\1iep_ligandH.pdb
REMARK  8 active torsions:
REMARK  status: ('A' for Active; 'I' for Inactive)
REMARK    1  A    between atoms: _5  and  _11
REMARK    2  A    between atoms: _19  and  _21
REMARK    3  A    between atoms: _22  and  _66
REMARK    4  A    between atoms: _27  and  _30
REMARK    5  A    between atoms: _32  and  _33
REMARK    6  A    between atoms: _38  and  _43
REMARK    7  A    between atoms: _43  and  _46
REMARK    8  A    between atoms: _53  and  _55
REMARK                            x       y       z     vdW  Elec       q    Type
REMARK                         _______ _______ _______ _____ _____    ______ ____
ROOT
ATOM     10  C   UNL     1      53.811 -15.456  65.805  0.00  0.00    +0.038 A 
ATOM     11  C   UNL     1      54.264 -14.560  64.803  0.00  0.00    +0.047 A 
ATOM     12  C   UNL     1      53.327 -13.865  63.935  0.00  0.00    +0.035 A 
ATOM     32  C   UNL     1      51.933 -14.104  64.117  0.00  0.00    +0.024 A 
ATOM     33  C   UNL     1      51.455 -15.012  65.130  0.00  0.00    +0.007 A 
ATOM     34  C   UNL     1      52.375 -15.703  65.987  0.00  0.00    -0.029 A 
ATOM     35  C   UNL     1      51.806 -16.670  67.051  0.00  0.00    +0.045 C 
ENDROOT
BRANCH  10   9
ATOM      4  C   UNL     1      56.651 -19.181  66.853  0.00  0.00    +0.077 A 
ATOM      5  C   UNL     1      56.195 -19.925  65.714  0.00  0.00    +0.048 A 
ATOM      6  C   UNL     1      55.224 -19.316  64.887  0.00  0.00    +0.116 A 
ATOM      7  N   UNL     1      54.751 -18.057  65.187  0.00  0.00    -0.223 NA
ATOM      8  C   UNL     1      55.211 -17.368  66.294  0.00  0.00    +0.220 A 
ATOM      9  N   UNL     1      54.755 -16.097  66.611  0.00  0.00    -0.283 N 
ATOM     36  H   UNL     1      55.113 -15.625  67.440  0.00  0.00    +0.155 HD
ATOM     37  N   UNL     1      56.137 -17.928  67.100  0.00  0.00    -0.214 NA
BRANCH   4   3
ATOM      1  C   UNL     1      59.869 -19.506  69.053  0.00  0.00    +0.020 A 
ATOM      2  C   UNL     1      58.911 -18.972  68.111  0.00  0.00    +0.013 A 
ATOM      3  C   UNL     1      57.676 -19.688  67.819  0.00  0.00    +0.019 A 
ATOM     38  C   UNL     1      57.438 -20.951  68.502  0.00  0.00    +0.120 A 
ATOM     39  N   UNL     1      58.378 -21.440  69.402  0.00  0.00    -0.263 NA
ATOM     40  C   UNL     1      59.571 -20.761  69.691  0.00  0.00    +0.111 A 
ENDBRANCH   4   3
ENDBRANCH  10   9
BRANCH  12  13
ATOM     13  N   UNL     1      53.729 -12.950  62.896  0.00  0.00    -0.281 N 
ATOM     14  C   UNL     1      53.698 -13.151  61.526  0.00  0.00    +0.248 C 
ATOM     30  O   UNL     1      53.518 -14.235  60.990  0.00  0.00    -0.270 OA
ATOM     31  H   UNL     1      54.079 -12.044  63.208  0.00  0.00    +0.155 HD
BRANCH  14  15
ATOM     15  C   UNL     1      53.911 -11.982  60.619  0.00  0.00    +0.037 A 
ATOM     16  C   UNL     1      54.154 -12.166  59.186  0.00  0.00    +0.013 A 
ATOM     17  C   UNL     1      54.374 -11.022  58.337  0.00  0.00    +0.005 A 
ATOM     18  C   UNL     1      54.350  -9.683  58.920  0.00  0.00    -0.033 A 
ATOM     28  C   UNL     1      54.102  -9.529  60.344  0.00  0.00    +0.005 A 
ATOM     29  C   UNL     1      53.887 -10.648  61.179  0.00  0.00    +0.013 A 
BRANCH  18  19
ATOM     19  C   UNL     1      54.596  -8.406  58.094  0.00  0.00    +0.119 C 
BRANCH  19  20
ATOM     20  N   UNL     1      54.795  -7.132  58.846  0.00  0.00    -0.302 NA
ATOM     21  C   UNL     1      54.412  -5.906  58.012  0.00  0.00    +0.066 C 
ATOM     22  C   UNL     1      54.605  -4.583  58.823  0.00  0.00    -0.064 C 
ATOM     23  N   UNL     1      56.057  -4.485  59.295  0.00  0.00    +0.379 N 
ATOM     24  C   UNL     1      56.256  -3.215  60.008  0.00  0.00    -0.096 C 
ATOM     25  H   UNL     1      56.707  -4.471  58.390  0.00  0.00    -0.082 HD
ATOM     26  C   UNL     1      56.446  -5.701  60.124  0.00  0.00    -0.064 C 
ATOM     27  C   UNL     1      56.223  -7.012  59.319  0.00  0.00    +0.066 C 
ENDBRANCH  19  20
ENDBRANCH  18  19
ENDBRANCH  14  15
ENDBRANCH  12  13
TORSDOF 6
ENDMDL
