MODEL 1
REMARK VINA RESULT:      -8.3      0.000      0.000
REMARK  Name = C:\Users\Docking\Desktop\test protocol\1iep_ligandH.pdb
REMARK  8 active torsions:
REMARK  status: ('A' for Active; 'I' for Inactive)
REMARK    1  A    between atoms: _5  and  _11
REMARK    2  A    between atoms: _19  and  _21
REMARK    3  A    between atoms: _22  and  _66
REMARK    4  A    between atoms: _27  and  _30
REMARK    5  A    between atoms: _32  and  _33
REMARK    6  A    between atoms: _38  and  _43
REMARK    7  A    between atoms: _43  and  _46
REMARK    8  A    between atoms: _53  and  _55
REMARK                            x       y       z     vdW  Elec       q    Type
REMARK                         _______ _______ _______ _____ _____    ______ ____
ROOT
ATOM     10  C   UNL     1      19.087  23.954  -0.857  0.00  0.00    +0.038 A 
ATOM     11  C   UNL     1      18.314  22.770  -0.747  0.00  0.00    +0.047 A 
ATOM     12  C   UNL     1      16.865  22.824  -0.635  0.00  0.00    +0.035 A 
ATOM     32  C   UNL     1      16.234  24.103  -0.641  0.00  0.00    +0.024 A 
ATOM     33  C   UNL     1      17.004  25.317  -0.751  0.00  0.00    +0.007 A 
ATOM     34  C   UNL     1      18.434  25.269  -0.859  0.00  0.00    -0.029 A 
ATOM     35  C   UNL     1      19.209  26.603  -0.968  0.00  0.00    +0.045 C 
ENDROOT
BRANCH  10   9
ATOM      4  C   UNL     1      23.180  24.246  -3.345  0.00  0.00    +0.077 A 
ATOM      5  C   UNL     1      22.493  24.625  -4.546  0.00  0.00    +0.048 A 
ATOM      6  C   UNL     1      21.085  24.727  -4.483  0.00  0.00    +0.116 A 
ATOM      7  N   UNL     1      20.424  24.467  -3.301  0.00  0.00    -0.223 NA
ATOM      8  C   UNL     1      21.118  24.102  -2.162  0.00  0.00    +0.220 A 
ATOM      9  N   UNL     1      20.475  23.844  -0.961  0.00  0.00    -0.283 N 
ATOM     36  H   UNL     1      21.022  23.570  -0.145  0.00  0.00    +0.155 HD
ATOM     37  N   UNL     1      22.463  23.996  -2.197  0.00  0.00    -0.214 NA
BRANCH   4   3
ATOM      1  C   UNL     1      26.792  22.743  -3.366  0.00  0.00    +0.020 A 
ATOM      2  C   UNL     1      25.353  22.831  -3.467  0.00  0.00    +0.013 A 
ATOM      3  C   UNL     1      24.667  24.099  -3.252  0.00  0.00    +0.019 A 
ATOM     38  C   UNL     1      25.473  25.269  -2.935  0.00  0.00    +0.120 A 
ATOM     39  N   UNL     1      26.856  25.154  -2.842  0.00  0.00    -0.263 NA
ATOM     40  C   UNL     1      27.527  23.938  -3.045  0.00  0.00    +0.111 A 
ENDBRANCH   4   3
ENDBRANCH  10   9
BRANCH  12  13
ATOM     13  N   UNL     1      16.029  21.656  -0.513  0.00  0.00    -0.281 N 
ATOM     14  C   UNL     1      15.497  20.880  -1.529  0.00  0.00    +0.248 C 
ATOM     30  O   UNL     1      15.483  21.199  -2.708  0.00  0.00    -0.270 OA
ATOM     31  H   UNL     1      15.803  21.366   0.438  0.00  0.00    +0.155 HD
BRANCH  14  15
ATOM     15  C   UNL     1      14.877  19.564  -1.184  0.00  0.00    +0.037 A 
ATOM     16  C   UNL     1      15.211  18.347  -1.928  0.00  0.00    +0.013 A 
ATOM     17  C   UNL     1      14.586  17.095  -1.585  0.00  0.00    +0.005 A 
ATOM     18  C   UNL     1      13.620  17.053  -0.490  0.00  0.00    -0.033 A 
ATOM     28  C   UNL     1      13.310  18.274   0.235  0.00  0.00    +0.005 A 
ATOM     29  C   UNL     1      13.920  19.504  -0.099  0.00  0.00    +0.013 A 
BRANCH  18  19
ATOM     19  C   UNL     1      12.888  15.764  -0.070  0.00  0.00    +0.119 C 
BRANCH  19  20
ATOM     20  N   UNL     1      11.663  15.917   0.771  0.00  0.00    -0.302 NA
ATOM     21  C   UNL     1      11.949  15.666   2.254  0.00  0.00    +0.066 C 
ATOM     22  C   UNL     1      10.662  15.852   3.122  0.00  0.00    -0.064 C 
ATOM     23  N   UNL     1       9.568  14.911   2.614  0.00  0.00    +0.379 N 
ATOM     24  C   UNL     1       8.376  15.041   3.464  0.00  0.00    -0.096 C 
ATOM     25  H   UNL     1       9.945  13.867   2.719  0.00  0.00    -0.082 HD
ATOM     26  C   UNL     1       9.279  15.152   1.140  0.00  0.00    -0.064 C 
ATOM     27  C   UNL     1      10.571  14.994   0.290  0.00  0.00    +0.066 C 
ENDBRANCH  19  20
ENDBRANCH  18  19
ENDBRANCH  14  15
ENDBRANCH  12  13
TORSDOF 6
ENDMDL
MODEL 2
REMARK VINA RESULT:      -7.9      1.524      2.107
REMARK  Name = C:\Users\Docking\Desktop\test protocol\1iep_ligandH.pdb
REMARK  8 active torsions:
REMARK  status: ('A' for Active; 'I' for Inactive)
REMARK    1  A    between atoms: _5  and  _11
REMARK    2  A    between atoms: _19  and  _21
REMARK    3  A    between atoms: _22  and  _66
REMARK    4  A    between atoms: _27  and  _30
REMARK    5  A    between atoms: _32  and  _33
REMARK    6  A    between atoms: _38  and  _43
REMARK    7  A    between atoms: _43  and  _46
REMARK    8  A    between atoms: _53  and  _55
REMARK                            x       y       z     vdW  Elec       q    Type
REMARK                         _______ _______ _______ _____ _____    ______ ____
ROOT
ATOM     10  C   UNL     1      18.917  23.889  -0.798  0.00  0.00    +0.038 A 
ATOM     11  C   UNL     1      18.138  22.714  -0.639  0.00  0.00    +0.047 A 
ATOM     12  C   UNL     1      16.685  22.773  -0.608  0.00  0.00    +0.035 A 
ATOM     32  C   UNL     1      16.057  24.045  -0.745  0.00  0.00    +0.024 A 
ATOM     33  C   UNL     1      16.833  25.250  -0.906  0.00  0.00    +0.007 A 
ATOM     34  C   UNL     1      18.267  25.198  -0.934  0.00  0.00    -0.029 A 
ATOM     35  C   UNL     1      19.048  26.522  -1.103  0.00  0.00    +0.045 C 
ENDROOT
BRANCH  10   9
ATOM      4  C   UNL     1      23.140  24.046  -3.073  0.00  0.00    +0.077 A 
ATOM      5  C   UNL     1      22.519  24.355  -4.329  0.00  0.00    +0.048 A 
ATOM      6  C   UNL     1      21.110  24.458  -4.348  0.00  0.00    +0.116 A 
ATOM      7  N   UNL     1      20.386  24.264  -3.191  0.00  0.00    -0.223 NA
ATOM      8  C   UNL     1      21.016  23.966  -1.997  0.00  0.00    +0.220 A 
ATOM      9  N   UNL     1      20.309  23.775  -0.821  0.00  0.00    -0.283 N 
ATOM     36  H   UNL     1      20.810  23.549   0.038  0.00  0.00    +0.155 HD
ATOM     37  N   UNL     1      22.361  23.860  -1.953  0.00  0.00    -0.214 NA
BRANCH   4   3
ATOM      1  C   UNL     1      26.832  22.782  -3.344  0.00  0.00    +0.020 A 
ATOM      2  C   UNL     1      25.405  22.873  -3.553  0.00  0.00    +0.013 A 
ATOM      3  C   UNL     1      24.620  23.907  -2.892  0.00  0.00    +0.019 A 
ATOM     38  C   UNL     1      25.313  24.841  -2.018  0.00  0.00    +0.120 A 
ATOM     39  N   UNL     1      26.688  24.729  -1.835  0.00  0.00    -0.263 NA
ATOM     40  C   UNL     1      27.454  23.737  -2.465  0.00  0.00    +0.111 A 
ENDBRANCH   4   3
ENDBRANCH  10   9
BRANCH  12  13
ATOM     13  N   UNL     1      15.843  21.615  -0.442  0.00  0.00    -0.281 N 
ATOM     14  C   UNL     1      15.369  20.758  -1.422  0.00  0.00    +0.248 C 
ATOM     30  O   UNL     1      15.423  20.984  -2.622  0.00  0.00    -0.270 OA
ATOM     31  H   UNL     1      15.562  21.400   0.515  0.00  0.00    +0.155 HD
BRANCH  14  15
ATOM     15  C   UNL     1      14.729  19.472  -1.009  0.00  0.00    +0.037 A 
ATOM     16  C   UNL     1      13.827  19.408   0.143  0.00  0.00    +0.013 A 
ATOM     17  C   UNL     1      13.236  18.151   0.530  0.00  0.00    +0.005 A 
ATOM     18  C   UNL     1      13.546  16.947  -0.238  0.00  0.00    -0.033 A 
ATOM     28  C   UNL     1      14.440  17.041  -1.381  0.00  0.00    +0.005 A 
ATOM     29  C   UNL     1      15.021  18.271  -1.762  0.00  0.00    +0.013 A 
BRANCH  18  19
ATOM     19  C   UNL     1      12.978  15.560   0.115  0.00  0.00    +0.119 C 
BRANCH  19  20
ATOM     20  N   UNL     1      12.131  14.886  -0.913  0.00  0.00    -0.302 NA
ATOM     21  C   UNL     1      10.821  15.639  -1.163  0.00  0.00    +0.066 C 
ATOM     22  C   UNL     1       9.958  14.932  -2.258  0.00  0.00    -0.064 C 
ATOM     23  N   UNL     1       9.680  13.489  -1.832  0.00  0.00    +0.379 N 
ATOM     24  C   UNL     1       8.820  12.839  -2.831  0.00  0.00    -0.096 C 
ATOM     25  H   UNL     1       9.116  13.524  -0.871  0.00  0.00    -0.082 HD
ATOM     26  C   UNL     1      10.977  12.734  -1.579  0.00  0.00    -0.064 C 
ATOM     27  C   UNL     1      11.841  13.461  -0.510  0.00  0.00    +0.066 C 
ENDBRANCH  19  20
ENDBRANCH  18  19
ENDBRANCH  14  15
ENDBRANCH  12  13
TORSDOF 6
ENDMDL
MODEL 3
REMARK VINA RESULT:      -7.7      3.525     14.712
REMARK  Name = C:\Users\Docking\Desktop\test protocol\1iep_ligandH.pdb
REMARK  8 active torsions:
REMARK  status: ('A' for Active; 'I' for Inactive)
REMARK    1  A    between atoms: _5  and  _11
REMARK    2  A    between atoms: _19  and  _21
REMARK    3  A    between atoms: _22  and  _66
REMARK    4  A    between atoms: _27  and  _30
REMARK    5  A    between atoms: _32  and  _33
REMARK    6  A    between atoms: _38  and  _43
REMARK    7  A    between atoms: _43  and  _46
REMARK    8  A    between atoms: _53  and  _55
REMARK                            x       y       z     vdW  Elec       q    Type
REMARK                         _______ _______ _______ _____ _____    ______ ____
ROOT
ATOM     10  C   UNL     1      11.569  13.867   0.318  0.00  0.00    +0.038 A 
ATOM     11  C   UNL     1      12.314  15.050   0.556  0.00  0.00    +0.047 A 
ATOM     12  C   UNL     1      12.188  16.208  -0.316  0.00  0.00    +0.035 A 
ATOM     32  C   UNL     1      11.290  16.127  -1.420  0.00  0.00    +0.024 A 
ATOM     33  C   UNL     1      10.525  14.932  -1.678  0.00  0.00    +0.007 A 
ATOM     34  C   UNL     1      10.648  13.786  -0.822  0.00  0.00    -0.029 A 
ATOM     35  C   UNL     1       9.808  12.529  -1.150  0.00  0.00    +0.045 C 
ENDROOT
BRANCH  10   9
ATOM      4  C   UNL     1      10.175  11.199   4.056  0.00  0.00    +0.077 A 
ATOM      5  C   UNL     1       9.046  12.045   4.315  0.00  0.00    +0.048 A 
ATOM      6  C   UNL     1       8.864  13.161   3.468  0.00  0.00    +0.116 A 
ATOM      7  N   UNL     1       9.750  13.403   2.441  0.00  0.00    -0.223 NA
ATOM      8  C   UNL     1      10.830  12.567   2.219  0.00  0.00    +0.220 A 
ATOM      9  N   UNL     1      11.729  12.786   1.187  0.00  0.00    -0.283 N 
ATOM     36  H   UNL     1      12.516  12.151   1.061  0.00  0.00    +0.155 HD
ATOM     37  N   UNL     1      11.026  11.495   3.015  0.00  0.00    -0.214 NA
BRANCH   4   3
ATOM      1  C   UNL     1      12.095   8.511   6.151  0.00  0.00    +0.020 A 
ATOM      2  C   UNL     1      11.834   9.703   5.378  0.00  0.00    +0.013 A 
ATOM      3  C   UNL     1      10.499   9.979   4.861  0.00  0.00    +0.019 A 
ATOM     38  C   UNL     1       9.442   9.021   5.148  0.00  0.00    +0.120 A 
ATOM     39  N   UNL     1       9.723   7.881   5.894  0.00  0.00    -0.263 NA
ATOM     40  C   UNL     1      11.004   7.604   6.395  0.00  0.00    +0.111 A 
ENDBRANCH   4   3
ENDBRANCH  10   9
BRANCH  12  13
ATOM     13  N   UNL     1      12.925  17.433  -0.129  0.00  0.00    -0.281 N 
ATOM     14  C   UNL     1      14.046  17.865  -0.818  0.00  0.00    +0.248 C 
ATOM     30  O   UNL     1      14.716  17.162  -1.560  0.00  0.00    -0.270 OA
ATOM     31  H   UNL     1      12.578  18.057   0.599  0.00  0.00    +0.155 HD
BRANCH  14  15
ATOM     15  C   UNL     1      14.497  19.280  -0.647  0.00  0.00    +0.037 A 
ATOM     16  C   UNL     1      13.934  20.136   0.401  0.00  0.00    +0.013 A 
ATOM     17  C   UNL     1      14.375  21.502   0.533  0.00  0.00    +0.005 A 
ATOM     18  C   UNL     1      15.386  22.020  -0.385  0.00  0.00    -0.033 A 
ATOM     28  C   UNL     1      15.932  21.148  -1.412  0.00  0.00    +0.005 A 
ATOM     29  C   UNL     1      15.502  19.809  -1.545  0.00  0.00    +0.013 A 
BRANCH  18  19
ATOM     19  C   UNL     1      15.900  23.471  -0.330  0.00  0.00    +0.119 C 
BRANCH  19  20
ATOM     20  N   UNL     1      16.861  23.897  -1.392  0.00  0.00    -0.302 NA
ATOM     21  C   UNL     1      18.317  23.687  -0.966  0.00  0.00    +0.066 C 
ATOM     22  C   UNL     1      19.308  24.116  -2.096  0.00  0.00    -0.064 C 
ATOM     23  N   UNL     1      19.056  25.580  -2.463  0.00  0.00    +0.379 N 
ATOM     24  C   UNL     1      20.025  26.003  -3.484  0.00  0.00    -0.096 C 
ATOM     25  H   UNL     1      19.238  26.192  -1.549  0.00  0.00    -0.082 HD
ATOM     26  C   UNL     1      17.610  25.798  -2.884  0.00  0.00    -0.064 C 
ATOM     27  C   UNL     1      16.633  25.341  -1.766  0.00  0.00    +0.066 C 
ENDBRANCH  19  20
ENDBRANCH  18  19
ENDBRANCH  14  15
ENDBRANCH  12  13
TORSDOF 6
ENDMDL
MODEL 4
REMARK VINA RESULT:      -7.7      2.721     12.561
REMARK  Name = C:\Users\Docking\Desktop\test protocol\1iep_ligandH.pdb
REMARK  8 active torsions:
REMARK  status: ('A' for Active; 'I' for Inactive)
REMARK    1  A    between atoms: _5  and  _11
REMARK    2  A    between atoms: _19  and  _21
REMARK    3  A    between atoms: _22  and  _66
REMARK    4  A    between atoms: _27  and  _30
REMARK    5  A    between atoms: _32  and  _33
REMARK    6  A    between atoms: _38  and  _43
REMARK    7  A    between atoms: _43  and  _46
REMARK    8  A    between atoms: _53  and  _55
REMARK                            x       y       z     vdW  Elec       q    Type
REMARK                         _______ _______ _______ _____ _____    ______ ____
ROOT
ATOM     10  C   UNL     1      15.344  22.257  -0.723  0.00  0.00    +0.038 A 
ATOM     11  C   UNL     1      16.760  22.293  -0.654  0.00  0.00    +0.047 A 
ATOM     12  C   UNL     1      17.518  23.349  -1.307  0.00  0.00    +0.035 A 
ATOM     32  C   UNL     1      16.801  24.353  -2.021  0.00  0.00    +0.024 A 
ATOM     33  C   UNL     1      15.362  24.331  -2.102  0.00  0.00    +0.007 A 
ATOM     34  C   UNL     1      14.609  23.291  -1.462  0.00  0.00    -0.029 A 
ATOM     35  C   UNL     1      13.068  23.313  -1.588  0.00  0.00    +0.045 C 
ENDROOT
BRANCH  10   9
ATOM      4  C   UNL     1      13.922  17.684  -0.400  0.00  0.00    +0.077 A 
ATOM      5  C   UNL     1      14.561  17.336  -1.637  0.00  0.00    +0.048 A 
ATOM      6  C   UNL     1      15.238  18.365  -2.329  0.00  0.00    +0.116 A 
ATOM      7  N   UNL     1      15.269  19.642  -1.813  0.00  0.00    -0.223 NA
ATOM      8  C   UNL     1      14.642  19.944  -0.619  0.00  0.00    +0.220 A 
ATOM      9  N   UNL     1      14.666  21.220  -0.077  0.00  0.00    -0.283 N 
ATOM     36  H   UNL     1      14.185  21.404   0.803  0.00  0.00    +0.155 HD
ATOM     37  N   UNL     1      13.987  18.980   0.061  0.00  0.00    -0.214 NA
BRANCH   4   3
ATOM      1  C   UNL     1      12.093  14.461   0.852  0.00  0.00    +0.020 A 
ATOM      2  C   UNL     1      12.820  15.367  -0.007  0.00  0.00    +0.013 A 
ATOM      3  C   UNL     1      13.170  16.707   0.448  0.00  0.00    +0.019 A 
ATOM     38  C   UNL     1      12.766  17.102   1.789  0.00  0.00    +0.120 A 
ATOM     39  N   UNL     1      12.065  16.209   2.594  0.00  0.00    -0.263 NA
ATOM     40  C   UNL     1      11.721  14.918   2.166  0.00  0.00    +0.111 A 
ENDBRANCH   4   3
ENDBRANCH  10   9
BRANCH  12  13
ATOM     13  N   UNL     1      18.957  23.434  -1.278  0.00  0.00    -0.281 N 
ATOM     14  C   UNL     1      19.810  23.806  -2.305  0.00  0.00    +0.248 C 
ATOM     30  O   UNL     1      19.474  23.918  -3.475  0.00  0.00    -0.270 OA
ATOM     31  H   UNL     1      19.402  23.189  -0.393  0.00  0.00    +0.155 HD
BRANCH  14  15
ATOM     15  C   UNL     1      21.245  24.079  -1.989  0.00  0.00    +0.037 A 
ATOM     16  C   UNL     1      22.324  23.463  -2.764  0.00  0.00    +0.013 A 
ATOM     17  C   UNL     1      23.700  23.730  -2.428  0.00  0.00    +0.005 A 
ATOM     18  C   UNL     1      24.004  24.620  -1.310  0.00  0.00    -0.033 A 
ATOM     28  C   UNL     1      22.914  25.222  -0.561  0.00  0.00    +0.005 A 
ATOM     29  C   UNL     1      21.564  24.962  -0.888  0.00  0.00    +0.013 A 
BRANCH  18  19
ATOM     19  C   UNL     1      25.443  24.945  -0.867  0.00  0.00    +0.119 C 
BRANCH  19  20
ATOM     20  N   UNL     1      25.953  24.258   0.357  0.00  0.00    -0.302 NA
ATOM     21  C   UNL     1      26.920  25.141   1.151  0.00  0.00    +0.066 C 
ATOM     22  C   UNL     1      27.426  24.415   2.440  0.00  0.00    -0.064 C 
ATOM     23  N   UNL     1      28.094  23.095   2.049  0.00  0.00    +0.379 N 
ATOM     24  C   UNL     1      28.623  22.438   3.253  0.00  0.00    -0.096 C 
ATOM     25  H   UNL     1      28.959  23.337   1.388  0.00  0.00    -0.082 HD
ATOM     26  C   UNL     1      27.141  22.212   1.257  0.00  0.00    -0.064 C 
ATOM     27  C   UNL     1      26.621  22.954  -0.006  0.00  0.00    +0.066 C 
ENDBRANCH  19  20
ENDBRANCH  18  19
ENDBRANCH  14  15
ENDBRANCH  12  13
TORSDOF 6
ENDMDL
MODEL 5
REMARK VINA RESULT:      -7.6      7.006     13.539
REMARK  Name = C:\Users\Docking\Desktop\test protocol\1iep_ligandH.pdb
REMARK  8 active torsions:
REMARK  status: ('A' for Active; 'I' for Inactive)
REMARK    1  A    between atoms: _5  and  _11
REMARK    2  A    between atoms: _19  and  _21
REMARK    3  A    between atoms: _22  and  _66
REMARK    4  A    between atoms: _27  and  _30
REMARK    5  A    between atoms: _32  and  _33
REMARK    6  A    between atoms: _38  and  _43
REMARK    7  A    between atoms: _43  and  _46
REMARK    8  A    between atoms: _53  and  _55
REMARK                            x       y       z     vdW  Elec       q    Type
REMARK                         _______ _______ _______ _____ _____    ______ ____
ROOT
ATOM     10  C   UNL     1       9.199  13.932   1.212  0.00  0.00    +0.038 A 
ATOM     11  C   UNL     1       9.610  12.737   1.859  0.00  0.00    +0.047 A 
ATOM     12  C   UNL     1       8.687  11.974   2.685  0.00  0.00    +0.035 A 
ATOM     32  C   UNL     1       7.353  12.454   2.829  0.00  0.00    +0.024 A 
ATOM     33  C   UNL     1       6.920  13.666   2.180  0.00  0.00    +0.007 A 
ATOM     34  C   UNL     1       7.826  14.425   1.366  0.00  0.00    -0.029 A 
ATOM     35  C   UNL     1       7.308  15.721   0.699  0.00  0.00    +0.045 C 
ENDROOT
BRANCH  10   9
ATOM      4  C   UNL     1      12.797  17.067   0.697  0.00  0.00    +0.077 A 
ATOM      5  C   UNL     1      12.813  17.369   2.100  0.00  0.00    +0.048 A 
ATOM      6  C   UNL     1      11.875  16.701   2.918  0.00  0.00    +0.116 A 
ATOM      7  N   UNL     1      10.991  15.800   2.365  0.00  0.00    -0.223 NA
ATOM      8  C   UNL     1      11.001  15.533   1.008  0.00  0.00    +0.220 A 
ATOM      9  N   UNL     1      10.126  14.625   0.431  0.00  0.00    -0.283 N 
ATOM     36  H   UNL     1      10.161  14.461  -0.575  0.00  0.00    +0.155 HD
ATOM     37  N   UNL     1      11.886  16.159   0.205  0.00  0.00    -0.214 NA
BRANCH   4   3
ATOM      1  C   UNL     1      15.313  17.567  -2.256  0.00  0.00    +0.020 A 
ATOM      2  C   UNL     1      14.423  16.918  -1.320  0.00  0.00    +0.013 A 
ATOM      3  C   UNL     1      13.729  17.688  -0.296  0.00  0.00    +0.019 A 
ATOM     38  C   UNL     1      13.957  19.125  -0.246  0.00  0.00    +0.120 A 
ATOM     39  N   UNL     1      14.820  19.722  -1.159  0.00  0.00    -0.263 NA
ATOM     40  C   UNL     1      15.495  18.991  -2.148  0.00  0.00    +0.111 A 
ENDBRANCH   4   3
ENDBRANCH  10   9
BRANCH  12  13
ATOM     13  N   UNL     1       9.049  10.759   3.372  0.00  0.00    -0.281 N 
ATOM     14  C   UNL     1      10.169  10.523   4.152  0.00  0.00    +0.248 C 
ATOM     30  O   UNL     1      11.143  11.259   4.203  0.00  0.00    -0.270 OA
ATOM     31  H   UNL     1       8.401   9.978   3.270  0.00  0.00    +0.155 HD
BRANCH  14  15
ATOM     15  C   UNL     1      10.221   9.283   4.984  0.00  0.00    +0.037 A 
ATOM     16  C   UNL     1       9.064   8.391   5.092  0.00  0.00    +0.013 A 
ATOM     17  C   UNL     1       9.135   7.210   5.915  0.00  0.00    +0.005 A 
ATOM     18  C   UNL     1      10.370   6.914   6.638  0.00  0.00    -0.033 A 
ATOM     28  C   UNL     1      11.505   7.813   6.509  0.00  0.00    +0.005 A 
ATOM     29  C   UNL     1      11.438   8.972   5.703  0.00  0.00    +0.013 A 
BRANCH  18  19
ATOM     19  C   UNL     1      10.528   5.687   7.556  0.00  0.00    +0.119 C 
BRANCH  19  20
ATOM     20  N   UNL     1      10.851   5.945   8.991  0.00  0.00    -0.302 NA
ATOM     21  C   UNL     1      11.069   4.646   9.773  0.00  0.00    +0.066 C 
ATOM     22  C   UNL     1      11.428   4.935  11.267  0.00  0.00    -0.064 C 
ATOM     23  N   UNL     1      10.316   5.770  11.903  0.00  0.00    +0.379 N 
ATOM     24  C   UNL     1      10.623   5.994  13.324  0.00  0.00    -0.096 C 
ATOM     25  H   UNL     1       9.374   5.176  11.850  0.00  0.00    -0.082 HD
ATOM     26  C   UNL     1      10.091   7.062  11.131  0.00  0.00    -0.064 C 
ATOM     27  C   UNL     1       9.764   6.765   9.640  0.00  0.00    +0.066 C 
ENDBRANCH  19  20
ENDBRANCH  18  19
ENDBRANCH  14  15
ENDBRANCH  12  13
TORSDOF 6
ENDMDL
