MODEL 1
REMARK VINA RESULT:      -8.7      0.000      0.000
REMARK  Name = C:\Users\Docking\Desktop\test protocol\1iep_ligandH.pdb
REMARK  8 active torsions:
REMARK  status: ('A' for Active; 'I' for Inactive)
REMARK    1  A    between atoms: _5  and  _11
REMARK    2  A    between atoms: _19  and  _21
REMARK    3  A    between atoms: _22  and  _66
REMARK    4  A    between atoms: _27  and  _30
REMARK    5  A    between atoms: _32  and  _33
REMARK    6  A    between atoms: _38  and  _43
REMARK    7  A    between atoms: _43  and  _46
REMARK    8  A    between atoms: _53  and  _55
REMARK                            x       y       z     vdW  Elec       q    Type
REMARK                         _______ _______ _______ _____ _____    ______ ____
ROOT
ATOM     10  C   UNL     1     109.597 102.819  25.074  0.00  0.00    +0.038 A 
ATOM     11  C   UNL     1     108.888 103.833  24.380  0.00  0.00    +0.047 A 
ATOM     12  C   UNL     1     108.276 104.945  25.091  0.00  0.00    +0.035 A 
ATOM     32  C   UNL     1     108.408 104.994  26.510  0.00  0.00    +0.024 A 
ATOM     33  C   UNL     1     109.125 103.972  27.231  0.00  0.00    +0.007 A 
ATOM     34  C   UNL     1     109.728 102.871  26.535  0.00  0.00    -0.029 A 
ATOM     35  C   UNL     1     110.479 101.800  27.360  0.00  0.00    +0.045 C 
ENDROOT
BRANCH  10   9
ATOM      4  C   UNL     1     109.475  98.393  23.223  0.00  0.00    +0.077 A 
ATOM      5  C   UNL     1     108.182  98.129  23.786  0.00  0.00    +0.048 A 
ATOM      6  C   UNL     1     107.586  99.156  24.552  0.00  0.00    +0.116 A 
ATOM      7  N   UNL     1     108.243 100.354  24.733  0.00  0.00    -0.223 NA
ATOM      8  C   UNL     1     109.490 100.575  24.178  0.00  0.00    +0.220 A 
ATOM      9  N   UNL     1     110.165 101.775  24.341  0.00  0.00    -0.283 N 
ATOM     36  H   UNL     1     111.086 101.896  23.921  0.00  0.00    +0.155 HD
ATOM     37  N   UNL     1     110.081  99.610  23.443  0.00  0.00    -0.214 NA
BRANCH   4   3
ATOM      1  C   UNL     1     112.357  96.254  21.666  0.00  0.00    +0.020 A 
ATOM      2  C   UNL     1     111.674  97.219  22.497  0.00  0.00    +0.013 A 
ATOM      3  C   UNL     1     110.233  97.408  22.387  0.00  0.00    +0.019 A 
ATOM     38  C   UNL     1     109.507  96.599  21.419  0.00  0.00    +0.120 A 
ATOM     39  N   UNL     1     110.192  95.679  20.632  0.00  0.00    -0.263 NA
ATOM     40  C   UNL     1     111.579  95.489  20.728  0.00  0.00    +0.111 A 
ENDBRANCH   4   3
ENDBRANCH  10   9
BRANCH  12  13
ATOM     13  N   UNL     1     107.537 105.998  24.441  0.00  0.00    -0.281 N 
ATOM     14  C   UNL     1     106.303 105.914  23.817  0.00  0.00    +0.248 C 
ATOM     30  O   UNL     1     105.742 104.865  23.535  0.00  0.00    -0.270 OA
ATOM     31  H   UNL     1     107.977 106.919  24.442  0.00  0.00    +0.155 HD
BRANCH  14  15
ATOM     15  C   UNL     1     105.597 107.175  23.439  0.00  0.00    +0.037 A 
ATOM     16  C   UNL     1     104.895 107.983  24.439  0.00  0.00    +0.013 A 
ATOM     17  C   UNL     1     104.207 109.187  24.044  0.00  0.00    +0.005 A 
ATOM     18  C   UNL     1     104.221 109.591  22.641  0.00  0.00    -0.033 A 
ATOM     28  C   UNL     1     104.930 108.775  21.670  0.00  0.00    +0.005 A 
ATOM     29  C   UNL     1     105.604 107.593  22.053  0.00  0.00    +0.013 A 
BRANCH  18  19
ATOM     19  C   UNL     1     103.497 110.849  22.126  0.00  0.00    +0.119 C 
BRANCH  19  20
ATOM     20  N   UNL     1     102.662 110.703  20.896  0.00  0.00    -0.302 NA
ATOM     21  C   UNL     1     103.250 111.468  19.708  0.00  0.00    +0.066 C 
ATOM     22  C   UNL     1     102.377 111.286  18.424  0.00  0.00    -0.064 C 
ATOM     23  N   UNL     1     100.948 111.750  18.713  0.00  0.00    +0.379 N 
ATOM     24  C   UNL     1     100.138 111.634  17.491  0.00  0.00    -0.096 C 
ATOM     25  H   UNL     1     100.992 112.829  18.989  0.00  0.00    -0.082 HD
ATOM     26  C   UNL     1     100.356 110.995  19.895  0.00  0.00    -0.064 C 
ATOM     27  C   UNL     1     101.247 111.159  21.158  0.00  0.00    +0.066 C 
ENDBRANCH  19  20
ENDBRANCH  18  19
ENDBRANCH  14  15
ENDBRANCH  12  13
TORSDOF 6
ENDMDL
MODEL 2
REMARK VINA RESULT:      -8.6      1.475      1.835
REMARK  Name = C:\Users\Docking\Desktop\test protocol\1iep_ligandH.pdb
REMARK  8 active torsions:
REMARK  status: ('A' for Active; 'I' for Inactive)
REMARK    1  A    between atoms: _5  and  _11
REMARK    2  A    between atoms: _19  and  _21
REMARK    3  A    between atoms: _22  and  _66
REMARK    4  A    between atoms: _27  and  _30
REMARK    5  A    between atoms: _32  and  _33
REMARK    6  A    between atoms: _38  and  _43
REMARK    7  A    between atoms: _43  and  _46
REMARK    8  A    between atoms: _53  and  _55
REMARK                            x       y       z     vdW  Elec       q    Type
REMARK                         _______ _______ _______ _____ _____    ______ ____
ROOT
ATOM     10  C   UNL     1     109.695 103.069  25.316  0.00  0.00    +0.038 A 
ATOM     11  C   UNL     1     108.952 103.760  24.325  0.00  0.00    +0.047 A 
ATOM     12  C   UNL     1     108.220 104.976  24.645  0.00  0.00    +0.035 A 
ATOM     32  C   UNL     1     108.268 105.461  25.984  0.00  0.00    +0.024 A 
ATOM     33  C   UNL     1     109.017 104.770  27.004  0.00  0.00    +0.007 A 
ATOM     34  C   UNL     1     109.740 103.569  26.695  0.00  0.00    -0.029 A 
ATOM     35  C   UNL     1     110.521 102.867  27.830  0.00  0.00    +0.045 C 
ENDROOT
BRANCH  10   9
ATOM      4  C   UNL     1     109.915  98.321  24.648  0.00  0.00    +0.077 A 
ATOM      5  C   UNL     1     108.561  98.137  25.084  0.00  0.00    +0.048 A 
ATOM      6  C   UNL     1     107.844  99.289  25.478  0.00  0.00    +0.116 A 
ATOM      7  N   UNL     1     108.447 100.528  25.436  0.00  0.00    -0.223 NA
ATOM      8  C   UNL     1     109.756 100.670  25.012  0.00  0.00    +0.220 A 
ATOM      9  N   UNL     1     110.379 101.906  24.953  0.00  0.00    -0.283 N 
ATOM     36  H   UNL     1     111.348 101.968  24.642  0.00  0.00    +0.155 HD
ATOM     37  N   UNL     1     110.462  99.585  24.631  0.00  0.00    -0.214 NA
BRANCH   4   3
ATOM      1  C   UNL     1     112.134  95.973  22.443  0.00  0.00    +0.020 A 
ATOM      2  C   UNL     1     111.280  97.073  22.827  0.00  0.00    +0.013 A 
ATOM      3  C   UNL     1     110.801  97.201  24.197  0.00  0.00    +0.019 A 
ATOM     38  C   UNL     1     111.208  96.191  25.162  0.00  0.00    +0.120 A 
ATOM     39  N   UNL     1     112.030  95.142  24.764  0.00  0.00    -0.263 NA
ATOM     40  C   UNL     1     112.496  95.007  23.447  0.00  0.00    +0.111 A 
ENDBRANCH   4   3
ENDBRANCH  10   9
BRANCH  12  13
ATOM     13  N   UNL     1     107.442 105.716  23.682  0.00  0.00    -0.281 N 
ATOM     14  C   UNL     1     106.326 106.503  23.914  0.00  0.00    +0.248 C 
ATOM     30  O   UNL     1     105.697 106.519  24.962  0.00  0.00    -0.270 OA
ATOM     31  H   UNL     1     107.752 105.652  22.713  0.00  0.00    +0.155 HD
BRANCH  14  15
ATOM     15  C   UNL     1     105.828 107.391  22.819  0.00  0.00    +0.037 A 
ATOM     16  C   UNL     1     104.871 108.466  23.089  0.00  0.00    +0.013 A 
ATOM     17  C   UNL     1     104.394 109.297  22.012  0.00  0.00    +0.005 A 
ATOM     18  C   UNL     1     104.876 109.056  20.654  0.00  0.00    -0.033 A 
ATOM     28  C   UNL     1     105.830 107.986  20.416  0.00  0.00    +0.005 A 
ATOM     29  C   UNL     1     106.299 107.169  21.469  0.00  0.00    +0.013 A 
BRANCH  18  19
ATOM     19  C   UNL     1     104.406 109.879  19.441  0.00  0.00    +0.119 C 
BRANCH  19  20
ATOM     20  N   UNL     1     103.175 110.708  19.612  0.00  0.00    -0.302 NA
ATOM     21  C   UNL     1     101.904 109.926  19.269  0.00  0.00    +0.066 C 
ATOM     22  C   UNL     1     100.624 110.801  19.476  0.00  0.00    -0.064 C 
ATOM     23  N   UNL     1     100.730 112.065  18.621  0.00  0.00    +0.379 N 
ATOM     24  C   UNL     1      99.504 112.861  18.769  0.00  0.00    -0.096 C 
ATOM     25  H   UNL     1     100.801 111.747  17.555  0.00  0.00    -0.082 HD
ATOM     26  C   UNL     1     101.993 112.847  18.954  0.00  0.00    -0.064 C 
ATOM     27  C   UNL     1     103.257 111.959  18.773  0.00  0.00    +0.066 C 
ENDBRANCH  19  20
ENDBRANCH  18  19
ENDBRANCH  14  15
ENDBRANCH  12  13
TORSDOF 6
ENDMDL
MODEL 3
REMARK VINA RESULT:      -8.6      2.636      3.257
REMARK  Name = C:\Users\Docking\Desktop\test protocol\1iep_ligandH.pdb
REMARK  8 active torsions:
REMARK  status: ('A' for Active; 'I' for Inactive)
REMARK    1  A    between atoms: _5  and  _11
REMARK    2  A    between atoms: _19  and  _21
REMARK    3  A    between atoms: _22  and  _66
REMARK    4  A    between atoms: _27  and  _30
REMARK    5  A    between atoms: _32  and  _33
REMARK    6  A    between atoms: _38  and  _43
REMARK    7  A    between atoms: _43  and  _46
REMARK    8  A    between atoms: _53  and  _55
REMARK                            x       y       z     vdW  Elec       q    Type
REMARK                         _______ _______ _______ _____ _____    ______ ____
ROOT
ATOM     10  C   UNL     1     108.997 101.482  26.468  0.00  0.00    +0.038 A 
ATOM     11  C   UNL     1     108.260 102.246  25.527  0.00  0.00    +0.047 A 
ATOM     12  C   UNL     1     108.602 103.632  25.250  0.00  0.00    +0.035 A 
ATOM     32  C   UNL     1     109.704 104.208  25.947  0.00  0.00    +0.024 A 
ATOM     33  C   UNL     1     110.464 103.447  26.907  0.00  0.00    +0.007 A 
ATOM     34  C   UNL     1     110.129 102.080  27.187  0.00  0.00    -0.029 A 
ATOM     35  C   UNL     1     110.974 101.314  28.231  0.00  0.00    +0.045 C 
ENDROOT
BRANCH  10   9
ATOM      4  C   UNL     1     109.218  96.793  25.469  0.00  0.00    +0.077 A 
ATOM      5  C   UNL     1     110.132  97.007  24.384  0.00  0.00    +0.048 A 
ATOM      6  C   UNL     1     110.515  98.339  24.111  0.00  0.00    +0.116 A 
ATOM      7  N   UNL     1     110.015  99.373  24.873  0.00  0.00    -0.223 NA
ATOM      8  C   UNL     1     109.134  99.132  25.912  0.00  0.00    +0.220 A 
ATOM      9  N   UNL     1     108.625 100.156  26.696  0.00  0.00    -0.283 N 
ATOM     36  H   UNL     1     107.972  99.937  27.448  0.00  0.00    +0.155 HD
ATOM     37  N   UNL     1     108.752  97.869  26.191  0.00  0.00    -0.214 NA
BRANCH   4   3
ATOM      1  C   UNL     1     108.984  92.946  26.135  0.00  0.00    +0.020 A 
ATOM      2  C   UNL     1     109.509  94.226  25.718  0.00  0.00    +0.013 A 
ATOM      3  C   UNL     1     108.723  95.442  25.882  0.00  0.00    +0.019 A 
ATOM     38  C   UNL     1     107.399  95.328  26.476  0.00  0.00    +0.120 A 
ATOM     39  N   UNL     1     106.919  94.081  26.865  0.00  0.00    -0.263 NA
ATOM     40  C   UNL     1     107.666  92.904  26.711  0.00  0.00    +0.111 A 
ENDBRANCH   4   3
ENDBRANCH  10   9
BRANCH  12  13
ATOM     13  N   UNL     1     107.885 104.459  24.311  0.00  0.00    -0.281 N 
ATOM     14  C   UNL     1     106.985 105.475  24.586  0.00  0.00    +0.248 C 
ATOM     30  O   UNL     1     106.496 105.686  25.686  0.00  0.00    -0.270 OA
ATOM     31  H   UNL     1     108.063 104.272  23.324  0.00  0.00    +0.155 HD
BRANCH  14  15
ATOM     15  C   UNL     1     106.555 106.379  23.476  0.00  0.00    +0.037 A 
ATOM     16  C   UNL     1     105.628 107.488  23.715  0.00  0.00    +0.013 A 
ATOM     17  C   UNL     1     105.217 108.335  22.623  0.00  0.00    +0.005 A 
ATOM     18  C   UNL     1     105.734 108.075  21.281  0.00  0.00    -0.033 A 
ATOM     28  C   UNL     1     106.656 106.971  21.074  0.00  0.00    +0.005 A 
ATOM     29  C   UNL     1     107.061 106.139  22.141  0.00  0.00    +0.013 A 
BRANCH  18  19
ATOM     19  C   UNL     1     105.332 108.914  20.054  0.00  0.00    +0.119 C 
BRANCH  19  20
ATOM     20  N   UNL     1     103.884 109.238  19.891  0.00  0.00    -0.302 NA
ATOM     21  C   UNL     1     103.097 108.070  19.290  0.00  0.00    +0.066 C 
ATOM     22  C   UNL     1     101.580 108.418  19.148  0.00  0.00    -0.064 C 
ATOM     23  N   UNL     1     101.426 109.674  18.288  0.00  0.00    +0.379 N 
ATOM     24  C   UNL     1      99.998 109.971  18.104  0.00  0.00    -0.096 C 
ATOM     25  H   UNL     1     101.857 109.451  17.284  0.00  0.00    -0.082 HD
ATOM     26  C   UNL     1     102.207 110.840  18.877  0.00  0.00    -0.064 C 
ATOM     27  C   UNL     1     103.708 110.473  19.042  0.00  0.00    +0.066 C 
ENDBRANCH  19  20
ENDBRANCH  18  19
ENDBRANCH  14  15
ENDBRANCH  12  13
TORSDOF 6
ENDMDL
MODEL 4
REMARK VINA RESULT:      -8.4      2.231      2.653
REMARK  Name = C:\Users\Docking\Desktop\test protocol\1iep_ligandH.pdb
REMARK  8 active torsions:
REMARK  status: ('A' for Active; 'I' for Inactive)
REMARK    1  A    between atoms: _5  and  _11
REMARK    2  A    between atoms: _19  and  _21
REMARK    3  A    between atoms: _22  and  _66
REMARK    4  A    between atoms: _27  and  _30
REMARK    5  A    between atoms: _32  and  _33
REMARK    6  A    between atoms: _38  and  _43
REMARK    7  A    between atoms: _43  and  _46
REMARK    8  A    between atoms: _53  and  _55
REMARK                            x       y       z     vdW  Elec       q    Type
REMARK                         _______ _______ _______ _____ _____    ______ ____
ROOT
ATOM     10  C   UNL     1     110.127 101.294  25.811  0.00  0.00    +0.038 A 
ATOM     11  C   UNL     1     109.454 102.077  24.838  0.00  0.00    +0.047 A 
ATOM     12  C   UNL     1     108.804 103.327  25.198  0.00  0.00    +0.035 A 
ATOM     32  C   UNL     1     108.860 103.751  26.557  0.00  0.00    +0.024 A 
ATOM     33  C   UNL     1     109.539 102.967  27.559  0.00  0.00    +0.007 A 
ATOM     34  C   UNL     1     110.181 101.732  27.211  0.00  0.00    -0.029 A 
ATOM     35  C   UNL     1     110.888 100.929  28.327  0.00  0.00    +0.045 C 
ENDROOT
BRANCH  10   9
ATOM      4  C   UNL     1     110.130  96.528  25.238  0.00  0.00    +0.077 A 
ATOM      5  C   UNL     1     108.821  96.399  25.810  0.00  0.00    +0.048 A 
ATOM      6  C   UNL     1     108.184  97.583  26.246  0.00  0.00    +0.116 A 
ATOM      7  N   UNL     1     108.818  98.799  26.114  0.00  0.00    -0.223 NA
ATOM      8  C   UNL     1     110.082  98.888  25.560  0.00  0.00    +0.220 A 
ATOM      9  N   UNL     1     110.735 100.102  25.410  0.00  0.00    -0.283 N 
ATOM     36  H   UNL     1     111.670 100.124  25.003  0.00  0.00    +0.155 HD
ATOM     37  N   UNL     1     110.712  97.772  25.137  0.00  0.00    -0.214 NA
BRANCH   4   3
ATOM      1  C   UNL     1     113.037  93.986  24.613  0.00  0.00    +0.020 A 
ATOM      2  C   UNL     1     112.308  95.119  25.134  0.00  0.00    +0.013 A 
ATOM      3  C   UNL     1     110.931  95.370  24.729  0.00  0.00    +0.019 A 
ATOM     38  C   UNL     1     110.315  94.447  23.787  0.00  0.00    +0.120 A 
ATOM     39  N   UNL     1     111.042  93.365  23.300  0.00  0.00    -0.263 NA
ATOM     40  C   UNL     1     112.368  93.115  23.682  0.00  0.00    +0.111 A 
ENDBRANCH   4   3
ENDBRANCH  10   9
BRANCH  12  13
ATOM     13  N   UNL     1     108.098 104.160  24.256  0.00  0.00    -0.281 N 
ATOM     14  C   UNL     1     107.010 104.982  24.494  0.00  0.00    +0.248 C 
ATOM     30  O   UNL     1     106.340 104.963  25.516  0.00  0.00    -0.270 OA
ATOM     31  H   UNL     1     108.444 104.141  23.296  0.00  0.00    +0.155 HD
BRANCH  14  15
ATOM     15  C   UNL     1     106.596 105.957  23.439  0.00  0.00    +0.037 A 
ATOM     16  C   UNL     1     107.083 105.839  22.063  0.00  0.00    +0.013 A 
ATOM     17  C   UNL     1     106.683 106.803  21.069  0.00  0.00    +0.005 A 
ATOM     18  C   UNL     1     105.787 107.894  21.448  0.00  0.00    -0.033 A 
ATOM     28  C   UNL     1     105.315 107.984  22.820  0.00  0.00    +0.005 A 
ATOM     29  C   UNL     1     105.707 107.041  23.797  0.00  0.00    +0.013 A 
BRANCH  18  19
ATOM     19  C   UNL     1     105.325 108.979  20.459  0.00  0.00    +0.119 C 
BRANCH  19  20
ATOM     20  N   UNL     1     103.866 109.043  20.147  0.00  0.00    -0.302 NA
ATOM     21  C   UNL     1     103.390 107.812  19.370  0.00  0.00    +0.066 C 
ATOM     22  C   UNL     1     101.857 107.885  19.072  0.00  0.00    -0.064 C 
ATOM     23  N   UNL     1     101.552 109.167  18.295  0.00  0.00    +0.379 N 
ATOM     24  C   UNL     1     100.120 109.210  17.962  0.00  0.00    -0.096 C 
ATOM     25  H   UNL     1     102.121 109.124  17.337  0.00  0.00    -0.082 HD
ATOM     26  C   UNL     1     102.024 110.396  19.058  0.00  0.00    -0.064 C 
ATOM     27  C   UNL     1     103.543 110.299  19.375  0.00  0.00    +0.066 C 
ENDBRANCH  19  20
ENDBRANCH  18  19
ENDBRANCH  14  15
ENDBRANCH  12  13
TORSDOF 6
ENDMDL
MODEL 5
REMARK VINA RESULT:      -8.4     21.931     26.888
REMARK  Name = C:\Users\Docking\Desktop\test protocol\1iep_ligandH.pdb
REMARK  8 active torsions:
REMARK  status: ('A' for Active; 'I' for Inactive)
REMARK    1  A    between atoms: _5  and  _11
REMARK    2  A    between atoms: _19  and  _21
REMARK    3  A    between atoms: _22  and  _66
REMARK    4  A    between atoms: _27  and  _30
REMARK    5  A    between atoms: _32  and  _33
REMARK    6  A    between atoms: _38  and  _43
REMARK    7  A    between atoms: _43  and  _46
REMARK    8  A    between atoms: _53  and  _55
REMARK                            x       y       z     vdW  Elec       q    Type
REMARK                         _______ _______ _______ _____ _____    ______ ____
ROOT
ATOM     10  C   UNL     1     128.089  91.343  22.420  0.00  0.00    +0.038 A 
ATOM     11  C   UNL     1     127.249  90.227  22.665  0.00  0.00    +0.047 A 
ATOM     12  C   UNL     1     127.266  89.539  23.946  0.00  0.00    +0.035 A 
ATOM     32  C   UNL     1     128.150  90.016  24.958  0.00  0.00    +0.024 A 
ATOM     33  C   UNL     1     129.011  91.149  24.726  0.00  0.00    +0.007 A 
ATOM     34  C   UNL     1     129.000  91.830  23.463  0.00  0.00    -0.029 A 
ATOM     35  C   UNL     1     129.950  93.035  23.267  0.00  0.00    +0.045 C 
ENDROOT
BRANCH  10   9
ATOM      4  C   UNL     1     125.858  94.035  19.131  0.00  0.00    +0.077 A 
ATOM      5  C   UNL     1     124.698  94.192  19.961  0.00  0.00    +0.048 A 
ATOM      6  C   UNL     1     124.712  93.557  21.223  0.00  0.00    +0.116 A 
ATOM      7  N   UNL     1     125.811  92.824  21.617  0.00  0.00    -0.223 NA
ATOM      8  C   UNL     1     126.913  92.692  20.792  0.00  0.00    +0.220 A 
ATOM      9  N   UNL     1     128.032  91.966  21.171  0.00  0.00    -0.283 N 
ATOM     36  H   UNL     1     128.821  91.886  20.531  0.00  0.00    +0.155 HD
ATOM     37  N   UNL     1     126.923  93.287  19.581  0.00  0.00    -0.214 NA
BRANCH   4   3
ATOM      1  C   UNL     1     125.346  96.317  15.996  0.00  0.00    +0.020 A 
ATOM      2  C   UNL     1     125.173  95.763  17.319  0.00  0.00    +0.013 A 
ATOM      3  C   UNL     1     125.995  94.647  17.772  0.00  0.00    +0.019 A 
ATOM     38  C   UNL     1     126.991  94.113  16.855  0.00  0.00    +0.120 A 
ATOM     39  N   UNL     1     127.134  94.667  15.587  0.00  0.00    -0.263 NA
ATOM     40  C   UNL     1     126.347  95.739  15.139  0.00  0.00    +0.111 A 
ENDBRANCH   4   3
ENDBRANCH  10   9
BRANCH  12  13
ATOM     13  N   UNL     1     126.442  88.395  24.250  0.00  0.00    -0.281 N 
ATOM     14  C   UNL     1     125.063  88.294  24.170  0.00  0.00    +0.248 C 
ATOM     30  O   UNL     1     124.307  89.245  24.029  0.00  0.00    -0.270 OA
ATOM     31  H   UNL     1     126.936  87.558  24.561  0.00  0.00    +0.155 HD
BRANCH  14  15
ATOM     15  C   UNL     1     124.430  86.944  24.277  0.00  0.00    +0.037 A 
ATOM     16  C   UNL     1     124.083  86.171  23.082  0.00  0.00    +0.013 A 
ATOM     17  C   UNL     1     123.458  84.879  23.213  0.00  0.00    +0.005 A 
ATOM     18  C   UNL     1     123.177  84.351  24.546  0.00  0.00    -0.033 A 
ATOM     28  C   UNL     1     123.537  85.137  25.714  0.00  0.00    +0.005 A 
ATOM     29  C   UNL     1     124.149  86.404  25.590  0.00  0.00    +0.013 A 
BRANCH  18  19
ATOM     19  C   UNL     1     122.494  82.991  24.780  0.00  0.00    +0.119 C 
BRANCH  19  20
ATOM     20  N   UNL     1     123.363  81.852  25.202  0.00  0.00    -0.302 NA
ATOM     21  C   UNL     1     123.536  81.795  26.723  0.00  0.00    +0.066 C 
ATOM     22  C   UNL     1     124.430  80.586  27.149  0.00  0.00    -0.064 C 
ATOM     23  N   UNL     1     125.788  80.688  26.453  0.00  0.00    +0.379 N 
ATOM     24  C   UNL     1     126.651  79.584  26.896  0.00  0.00    -0.096 C 
ATOM     25  H   UNL     1     126.264  81.642  26.780  0.00  0.00    -0.082 HD
ATOM     26  C   UNL     1     125.625  80.748  24.941  0.00  0.00    -0.064 C 
ATOM     27  C   UNL     1     124.712  81.936  24.530  0.00  0.00    +0.066 C 
ENDBRANCH  19  20
ENDBRANCH  18  19
ENDBRANCH  14  15
ENDBRANCH  12  13
TORSDOF 6
ENDMDL
