MODEL 1
REMARK VINA RESULT:      -9.2      0.000      0.000
REMARK  Name = C:\Users\Docking\Desktop\test protocol\1iep_ligandH.pdb
REMARK  8 active torsions:
REMARK  status: ('A' for Active; 'I' for Inactive)
REMARK    1  A    between atoms: _5  and  _11
REMARK    2  A    between atoms: _19  and  _21
REMARK    3  A    between atoms: _22  and  _66
REMARK    4  A    between atoms: _27  and  _30
REMARK    5  A    between atoms: _32  and  _33
REMARK    6  A    between atoms: _38  and  _43
REMARK    7  A    between atoms: _43  and  _46
REMARK    8  A    between atoms: _53  and  _55
REMARK                            x       y       z     vdW  Elec       q    Type
REMARK                         _______ _______ _______ _____ _____    ______ ____
ROOT
ATOM     10  C   UNL     1       3.773 -10.798  39.187  0.00  0.00    +0.038 A 
ATOM     11  C   UNL     1       2.478 -10.402  38.767  0.00  0.00    +0.047 A 
ATOM     12  C   UNL     1       1.492  -9.921  39.722  0.00  0.00    +0.035 A 
ATOM     32  C   UNL     1       1.860  -9.855  41.098  0.00  0.00    +0.024 A 
ATOM     33  C   UNL     1       3.172 -10.255  41.542  0.00  0.00    +0.007 A 
ATOM     34  C   UNL     1       4.148 -10.732  40.604  0.00  0.00    -0.029 A 
ATOM     35  C   UNL     1       5.537 -11.153  41.138  0.00  0.00    +0.045 C 
ENDROOT
BRANCH  10   9
ATOM      4  C   UNL     1       7.437 -10.103  36.165  0.00  0.00    +0.077 A 
ATOM      5  C   UNL     1       7.534  -8.714  36.508  0.00  0.00    +0.048 A 
ATOM      6  C   UNL     1       6.618  -8.215  37.461  0.00  0.00    +0.116 A 
ATOM      7  N   UNL     1       5.679  -9.053  38.023  0.00  0.00    -0.223 NA
ATOM      8  C   UNL     1       5.612 -10.388  37.669  0.00  0.00    +0.220 A 
ATOM      9  N   UNL     1       4.681 -11.251  38.227  0.00  0.00    -0.283 N 
ATOM     36  H   UNL     1       4.659 -12.227  37.933  0.00  0.00    +0.155 HD
ATOM     37  N   UNL     1       6.475 -10.888  36.760  0.00  0.00    -0.214 NA
BRANCH   4   3
ATOM      1  C   UNL     1      10.354 -10.833  33.663  0.00  0.00    +0.020 A 
ATOM      2  C   UNL     1       9.518 -10.137  34.614  0.00  0.00    +0.013 A 
ATOM      3  C   UNL     1       8.337 -10.778  35.177  0.00  0.00    +0.019 A 
ATOM     38  C   UNL     1       8.027 -12.136  34.755  0.00  0.00    +0.120 A 
ATOM     39  N   UNL     1       8.850 -12.781  33.836  0.00  0.00    -0.263 NA
ATOM     40  C   UNL     1       9.988 -12.173  33.286  0.00  0.00    +0.111 A 
ENDBRANCH   4   3
ENDBRANCH  10   9
BRANCH  12  13
ATOM     13  N   UNL     1       0.158  -9.513  39.356  0.00  0.00    -0.281 N 
ATOM     14  C   UNL     1      -1.035 -10.164  39.622  0.00  0.00    +0.248 C 
ATOM     30  O   UNL     1      -1.120 -11.312  40.033  0.00  0.00    -0.270 OA
ATOM     31  H   UNL     1       0.085  -8.638  38.837  0.00  0.00    +0.155 HD
BRANCH  14  15
ATOM     15  C   UNL     1      -2.321  -9.441  39.384  0.00  0.00    +0.037 A 
ATOM     16  C   UNL     1      -2.446  -8.005  39.649  0.00  0.00    +0.013 A 
ATOM     17  C   UNL     1      -3.703  -7.335  39.427  0.00  0.00    +0.005 A 
ATOM     18  C   UNL     1      -4.846  -8.101  38.935  0.00  0.00    -0.033 A 
ATOM     28  C   UNL     1      -4.693  -9.523  38.676  0.00  0.00    +0.005 A 
ATOM     29  C   UNL     1      -3.463 -10.183  38.893  0.00  0.00    +0.013 A 
BRANCH  18  19
ATOM     19  C   UNL     1      -6.230  -7.473  38.690  0.00  0.00    +0.119 C 
BRANCH  19  20
ATOM     20  N   UNL     1      -7.356  -8.402  38.372  0.00  0.00    -0.302 NA
ATOM     21  C   UNL     1      -7.702  -8.397  36.881  0.00  0.00    +0.066 C 
ATOM     22  C   UNL     1      -8.866  -9.391  36.563  0.00  0.00    -0.064 C 
ATOM     23  N   UNL     1     -10.090  -9.023  37.404  0.00  0.00    +0.379 N 
ATOM     24  C   UNL     1     -11.205  -9.920  37.065  0.00  0.00    -0.096 C 
ATOM     25  H   UNL     1     -10.392  -7.987  37.125  0.00  0.00    -0.082 HD
ATOM     26  C   UNL     1      -9.754  -9.023  38.888  0.00  0.00    -0.064 C 
ATOM     27  C   UNL     1      -8.577  -8.054  39.189  0.00  0.00    +0.066 C 
ENDBRANCH  19  20
ENDBRANCH  18  19
ENDBRANCH  14  15
ENDBRANCH  12  13
TORSDOF 6
ENDMDL
MODEL 2
REMARK VINA RESULT:      -9.1      2.350     13.036
REMARK  Name = C:\Users\Docking\Desktop\test protocol\1iep_ligandH.pdb
REMARK  8 active torsions:
REMARK  status: ('A' for Active; 'I' for Inactive)
REMARK    1  A    between atoms: _5  and  _11
REMARK    2  A    between atoms: _19  and  _21
REMARK    3  A    between atoms: _22  and  _66
REMARK    4  A    between atoms: _27  and  _30
REMARK    5  A    between atoms: _32  and  _33
REMARK    6  A    between atoms: _38  and  _43
REMARK    7  A    between atoms: _43  and  _46
REMARK    8  A    between atoms: _53  and  _55
REMARK                            x       y       z     vdW  Elec       q    Type
REMARK                         _______ _______ _______ _____ _____    ______ ____
ROOT
ATOM     10  C   UNL     1       2.043 -10.008  40.007  0.00  0.00    +0.038 A 
ATOM     11  C   UNL     1       2.880 -10.233  38.885  0.00  0.00    +0.047 A 
ATOM     12  C   UNL     1       4.131 -10.964  39.013  0.00  0.00    +0.035 A 
ATOM     32  C   UNL     1       4.497 -11.455  40.300  0.00  0.00    +0.024 A 
ATOM     33  C   UNL     1       3.658 -11.235  41.452  0.00  0.00    +0.007 A 
ATOM     34  C   UNL     1       2.424 -10.512  41.332  0.00  0.00    -0.029 A 
ATOM     35  C   UNL     1       1.568 -10.300  42.602  0.00  0.00    +0.045 C 
ENDROOT
BRANCH  10   9
ATOM      4  C   UNL     1      -2.684  -9.810  39.195  0.00  0.00    +0.077 A 
ATOM      5  C   UNL     1      -2.787 -11.237  39.095  0.00  0.00    +0.048 A 
ATOM      6  C   UNL     1      -1.598 -11.986  39.252  0.00  0.00    +0.116 A 
ATOM      7  N   UNL     1      -0.403 -11.344  39.491  0.00  0.00    -0.223 NA
ATOM      8  C   UNL     1      -0.338  -9.966  39.579  0.00  0.00    +0.220 A 
ATOM      9  N   UNL     1       0.853  -9.300  39.826  0.00  0.00    -0.283 N 
ATOM     36  H   UNL     1       0.860  -8.281  39.877  0.00  0.00    +0.155 HD
ATOM     37  N   UNL     1      -1.458  -9.228  39.431  0.00  0.00    -0.214 NA
BRANCH   4   3
ATOM      1  C   UNL     1      -4.992  -6.658  39.392  0.00  0.00    +0.020 A 
ATOM      2  C   UNL     1      -3.838  -7.513  39.553  0.00  0.00    +0.013 A 
ATOM      3  C   UNL     1      -3.851  -8.882  39.055  0.00  0.00    +0.019 A 
ATOM     38  C   UNL     1      -5.055  -9.359  38.392  0.00  0.00    +0.120 A 
ATOM     39  N   UNL     1      -6.151  -8.514  38.253  0.00  0.00    -0.263 NA
ATOM     40  C   UNL     1      -6.151  -7.195  38.730  0.00  0.00    +0.111 A 
ENDBRANCH   4   3
ENDBRANCH  10   9
BRANCH  12  13
ATOM     13  N   UNL     1       5.025 -11.216  37.911  0.00  0.00    -0.281 N 
ATOM     14  C   UNL     1       5.996 -10.375  37.393  0.00  0.00    +0.248 C 
ATOM     30  O   UNL     1       6.098  -9.188  37.664  0.00  0.00    -0.270 OA
ATOM     31  H   UNL     1       4.932 -12.125  37.458  0.00  0.00    +0.155 HD
BRANCH  14  15
ATOM     15  C   UNL     1       6.988 -10.929  36.422  0.00  0.00    +0.037 A 
ATOM     16  C   UNL     1       7.478 -10.129  35.296  0.00  0.00    +0.013 A 
ATOM     17  C   UNL     1       8.422 -10.693  34.364  0.00  0.00    +0.005 A 
ATOM     18  C   UNL     1       8.884 -12.066  34.556  0.00  0.00    -0.033 A 
ATOM     28  C   UNL     1       8.386 -12.835  35.684  0.00  0.00    +0.005 A 
ATOM     29  C   UNL     1       7.460 -12.286  36.599  0.00  0.00    +0.013 A 
BRANCH  18  19
ATOM     19  C   UNL     1       9.874 -12.756  33.599  0.00  0.00    +0.119 C 
BRANCH  19  20
ATOM     20  N   UNL     1       9.380 -13.948  32.847  0.00  0.00    -0.302 NA
ATOM     21  C   UNL     1      10.528 -14.836  32.359  0.00  0.00    +0.066 C 
ATOM     22  C   UNL     1       9.992 -16.090  31.594  0.00  0.00    -0.064 C 
ATOM     23  N   UNL     1       9.122 -15.635  30.421  0.00  0.00    +0.379 N 
ATOM     24  C   UNL     1       8.664 -16.810  29.665  0.00  0.00    -0.096 C 
ATOM     25  H   UNL     1       9.763 -15.025  29.742  0.00  0.00    -0.082 HD
ATOM     26  C   UNL     1       7.980 -14.750  30.897  0.00  0.00    -0.064 C 
ATOM     27  C   UNL     1       8.522 -13.522  31.681  0.00  0.00    +0.066 C 
ENDBRANCH  19  20
ENDBRANCH  18  19
ENDBRANCH  14  15
ENDBRANCH  12  13
TORSDOF 6
ENDMDL
MODEL 3
REMARK VINA RESULT:      -8.9      5.201      7.504
REMARK  Name = C:\Users\Docking\Desktop\test protocol\1iep_ligandH.pdb
REMARK  8 active torsions:
REMARK  status: ('A' for Active; 'I' for Inactive)
REMARK    1  A    between atoms: _5  and  _11
REMARK    2  A    between atoms: _19  and  _21
REMARK    3  A    between atoms: _22  and  _66
REMARK    4  A    between atoms: _27  and  _30
REMARK    5  A    between atoms: _32  and  _33
REMARK    6  A    between atoms: _38  and  _43
REMARK    7  A    between atoms: _43  and  _46
REMARK    8  A    between atoms: _53  and  _55
REMARK                            x       y       z     vdW  Elec       q    Type
REMARK                         _______ _______ _______ _____ _____    ______ ____
ROOT
ATOM     10  C   UNL     1       8.235 -11.251  35.954  0.00  0.00    +0.038 A 
ATOM     11  C   UNL     1       7.144 -11.311  36.858  0.00  0.00    +0.047 A 
ATOM     12  C   UNL     1       6.556 -10.099  37.409  0.00  0.00    +0.035 A 
ATOM     32  C   UNL     1       7.103  -8.843  37.014  0.00  0.00    +0.024 A 
ATOM     33  C   UNL     1       8.212  -8.765  36.096  0.00  0.00    +0.007 A 
ATOM     34  C   UNL     1       8.798  -9.957  35.552  0.00  0.00    -0.029 A 
ATOM     35  C   UNL     1       9.990  -9.813  34.577  0.00  0.00    +0.045 C 
ENDROOT
BRANCH  10   9
ATOM      4  C   UNL     1       8.836 -14.476  32.450  0.00  0.00    +0.077 A 
ATOM      5  C   UNL     1       8.011 -13.732  31.542  0.00  0.00    +0.048 A 
ATOM      6  C   UNL     1       7.445 -12.528  32.019  0.00  0.00    +0.116 A 
ATOM      7  N   UNL     1       7.693 -12.109  33.308  0.00  0.00    -0.223 NA
ATOM      8  C   UNL     1       8.492 -12.852  34.158  0.00  0.00    +0.220 A 
ATOM      9  N   UNL     1       8.760 -12.446  35.456  0.00  0.00    -0.283 N 
ATOM     36  H   UNL     1       9.349 -13.026  36.054  0.00  0.00    +0.155 HD
ATOM     37  N   UNL     1       9.042 -14.006  33.728  0.00  0.00    -0.214 NA
BRANCH   4   3
ATOM      1  C   UNL     1      10.256 -17.513  30.435  0.00  0.00    +0.020 A 
ATOM      2  C   UNL     1       9.596 -16.261  30.725  0.00  0.00    +0.013 A 
ATOM      3  C   UNL     1       9.507 -15.766  32.093  0.00  0.00    +0.019 A 
ATOM     38  C   UNL     1      10.101 -16.568  33.152  0.00  0.00    +0.120 A 
ATOM     39  N   UNL     1      10.728 -17.771  32.842  0.00  0.00    -0.263 NA
ATOM     40  C   UNL     1      10.819 -18.258  31.530  0.00  0.00    +0.111 A 
ENDBRANCH   4   3
ENDBRANCH  10   9
BRANCH  12  13
ATOM     13  N   UNL     1       5.453 -10.098  38.337  0.00  0.00    -0.281 N 
ATOM     14  C   UNL     1       4.137 -10.457  38.097  0.00  0.00    +0.248 C 
ATOM     30  O   UNL     1       3.660 -10.632  36.985  0.00  0.00    -0.270 OA
ATOM     31  H   UNL     1       5.669  -9.795  39.287  0.00  0.00    +0.155 HD
BRANCH  14  15
ATOM     15  C   UNL     1       3.213 -10.633  39.258  0.00  0.00    +0.037 A 
ATOM     16  C   UNL     1       3.714 -10.634  40.635  0.00  0.00    +0.013 A 
ATOM     17  C   UNL     1       2.804 -10.823  41.736  0.00  0.00    +0.005 A 
ATOM     18  C   UNL     1       1.381 -11.011  41.464  0.00  0.00    -0.033 A 
ATOM     28  C   UNL     1       0.910 -11.001  40.089  0.00  0.00    +0.005 A 
ATOM     29  C   UNL     1       1.799 -10.817  39.007  0.00  0.00    +0.013 A 
BRANCH  18  19
ATOM     19  C   UNL     1       0.340 -11.241  42.576  0.00  0.00    +0.119 C 
BRANCH  19  20
ATOM     20  N   UNL     1      -0.195 -10.033  43.272  0.00  0.00    -0.302 NA
ATOM     21  C   UNL     1      -0.217  -8.805  42.357  0.00  0.00    +0.066 C 
ATOM     22  C   UNL     1      -0.800  -7.556  43.094  0.00  0.00    -0.064 C 
ATOM     23  N   UNL     1       0.024  -7.279  44.353  0.00  0.00    +0.379 N 
ATOM     24  C   UNL     1      -0.486  -6.071  45.017  0.00  0.00    -0.096 C 
ATOM     25  H   UNL     1       1.071  -7.072  44.032  0.00  0.00    -0.082 HD
ATOM     26  C   UNL     1       0.053  -8.495  45.267  0.00  0.00    -0.064 C 
ATOM     27  C   UNL     1       0.607  -9.738  44.516  0.00  0.00    +0.066 C 
ENDBRANCH  19  20
ENDBRANCH  18  19
ENDBRANCH  14  15
ENDBRANCH  12  13
TORSDOF 6
ENDMDL
MODEL 4
REMARK VINA RESULT:      -8.8      4.731     12.660
REMARK  Name = C:\Users\Docking\Desktop\test protocol\1iep_ligandH.pdb
REMARK  8 active torsions:
REMARK  status: ('A' for Active; 'I' for Inactive)
REMARK    1  A    between atoms: _5  and  _11
REMARK    2  A    between atoms: _19  and  _21
REMARK    3  A    between atoms: _22  and  _66
REMARK    4  A    between atoms: _27  and  _30
REMARK    5  A    between atoms: _32  and  _33
REMARK    6  A    between atoms: _38  and  _43
REMARK    7  A    between atoms: _43  and  _46
REMARK    8  A    between atoms: _53  and  _55
REMARK                            x       y       z     vdW  Elec       q    Type
REMARK                         _______ _______ _______ _____ _____    ______ ____
ROOT
ATOM     10  C   UNL     1       4.890 -10.701  38.574  0.00  0.00    +0.038 A 
ATOM     11  C   UNL     1       4.942 -11.268  37.275  0.00  0.00    +0.047 A 
ATOM     12  C   UNL     1       6.039 -12.136  36.877  0.00  0.00    +0.035 A 
ATOM     32  C   UNL     1       7.065 -12.408  37.828  0.00  0.00    +0.024 A 
ATOM     33  C   UNL     1       7.028 -11.839  39.153  0.00  0.00    +0.007 A 
ATOM     34  C   UNL     1       5.949 -10.980  39.550  0.00  0.00    -0.029 A 
ATOM     35  C   UNL     1       5.964 -10.393  40.981  0.00  0.00    +0.045 C 
ENDROOT
BRANCH  10   9
ATOM      4  C   UNL     1       0.460  -9.999  40.283  0.00  0.00    +0.077 A 
ATOM      5  C   UNL     1       0.264 -11.401  40.516  0.00  0.00    +0.048 A 
ATOM      6  C   UNL     1       1.325 -12.270  40.175  0.00  0.00    +0.116 A 
ATOM      7  N   UNL     1       2.490 -11.764  39.643  0.00  0.00    -0.223 NA
ATOM      8  C   UNL     1       2.646 -10.406  39.430  0.00  0.00    +0.220 A 
ATOM      9  N   UNL     1       3.813  -9.874  38.903  0.00  0.00    -0.283 N 
ATOM     36  H   UNL     1       3.886  -8.868  38.754  0.00  0.00    +0.155 HD
ATOM     37  N   UNL     1       1.647  -9.556  39.745  0.00  0.00    -0.214 NA
BRANCH   4   3
ATOM      1  C   UNL     1      -1.557  -7.162  42.066  0.00  0.00    +0.020 A 
ATOM      2  C   UNL     1      -0.542  -8.158  41.814  0.00  0.00    +0.013 A 
ATOM      3  C   UNL     1      -0.567  -8.955  40.594  0.00  0.00    +0.019 A 
ATOM     38  C   UNL     1      -1.641  -8.717  39.642  0.00  0.00    +0.120 A 
ATOM     39  N   UNL     1      -2.606  -7.752  39.913  0.00  0.00    -0.263 NA
ATOM     40  C   UNL     1      -2.593  -6.980  41.084  0.00  0.00    +0.111 A 
ENDBRANCH   4   3
ENDBRANCH  10   9
BRANCH  12  13
ATOM     13  N   UNL     1       6.151 -12.734  35.569  0.00  0.00    -0.281 N 
ATOM     14  C   UNL     1       6.822 -12.241  34.462  0.00  0.00    +0.248 C 
ATOM     30  O   UNL     1       7.254 -11.102  34.366  0.00  0.00    -0.270 OA
ATOM     31  H   UNL     1       5.677 -13.628  35.445  0.00  0.00    +0.155 HD
BRANCH  14  15
ATOM     15  C   UNL     1       7.033 -13.140  33.287  0.00  0.00    +0.037 A 
ATOM     16  C   UNL     1       8.256 -13.067  32.483  0.00  0.00    +0.013 A 
ATOM     17  C   UNL     1       8.426 -13.933  31.344  0.00  0.00    +0.005 A 
ATOM     18  C   UNL     1       7.370 -14.883  31.003  0.00  0.00    -0.033 A 
ATOM     28  C   UNL     1       6.169 -14.939  31.820  0.00  0.00    +0.005 A 
ATOM     29  C   UNL     1       5.998 -14.090  32.937  0.00  0.00    +0.013 A 
BRANCH  18  19
ATOM     19  C   UNL     1       7.457 -15.832  29.793  0.00  0.00    +0.119 C 
BRANCH  19  20
ATOM     20  N   UNL     1       6.436 -16.918  29.700  0.00  0.00    -0.302 NA
ATOM     21  C   UNL     1       7.049 -18.303  29.931  0.00  0.00    +0.066 C 
ATOM     22  C   UNL     1       5.963 -19.425  29.853  0.00  0.00    -0.064 C 
ATOM     23  N   UNL     1       5.264 -19.362  28.494  0.00  0.00    +0.379 N 
ATOM     24  C   UNL     1       4.283 -20.452  28.396  0.00  0.00    -0.096 C 
ATOM     25  H   UNL     1       6.037 -19.530  27.709  0.00  0.00    -0.082 HD
ATOM     26  C   UNL     1       4.655 -17.988  28.255  0.00  0.00    -0.064 C 
ATOM     27  C   UNL     1       5.737 -16.877  28.364  0.00  0.00    +0.066 C 
ENDBRANCH  19  20
ENDBRANCH  18  19
ENDBRANCH  14  15
ENDBRANCH  12  13
TORSDOF 6
ENDMDL
MODEL 5
REMARK VINA RESULT:      -8.7      1.185      1.715
REMARK  Name = C:\Users\Docking\Desktop\test protocol\1iep_ligandH.pdb
REMARK  8 active torsions:
REMARK  status: ('A' for Active; 'I' for Inactive)
REMARK    1  A    between atoms: _5  and  _11
REMARK    2  A    between atoms: _19  and  _21
REMARK    3  A    between atoms: _22  and  _66
REMARK    4  A    between atoms: _27  and  _30
REMARK    5  A    between atoms: _32  and  _33
REMARK    6  A    between atoms: _38  and  _43
REMARK    7  A    between atoms: _43  and  _46
REMARK    8  A    between atoms: _53  and  _55
REMARK                            x       y       z     vdW  Elec       q    Type
REMARK                         _______ _______ _______ _____ _____    ______ ____
ROOT
ATOM     10  C   UNL     1       3.163 -10.254  40.101  0.00  0.00    +0.038 A 
ATOM     11  C   UNL     1       1.963  -9.649  39.647  0.00  0.00    +0.047 A 
ATOM     12  C   UNL     1       0.696  -9.892  40.319  0.00  0.00    +0.035 A 
ATOM     32  C   UNL     1       0.688 -10.754  41.454  0.00  0.00    +0.024 A 
ATOM     33  C   UNL     1       1.898 -11.378  41.929  0.00  0.00    +0.007 A 
ATOM     34  C   UNL     1       3.150 -11.145  41.268  0.00  0.00    -0.029 A 
ATOM     35  C   UNL     1       4.415 -11.845  41.817  0.00  0.00    +0.045 C 
ENDROOT
BRANCH  10   9
ATOM      4  C   UNL     1       6.258 -11.053  36.521  0.00  0.00    +0.077 A 
ATOM      5  C   UNL     1       5.453 -12.112  35.983  0.00  0.00    +0.048 A 
ATOM      6  C   UNL     1       4.254 -12.424  36.661  0.00  0.00    +0.116 A 
ATOM      7  N   UNL     1       3.896 -11.724  37.792  0.00  0.00    -0.223 NA
ATOM      8  C   UNL     1       4.695 -10.709  38.286  0.00  0.00    +0.220 A 
ATOM      9  N   UNL     1       4.351  -9.986  39.417  0.00  0.00    -0.283 N 
ATOM     36  H   UNL     1       4.971  -9.251  39.754  0.00  0.00    +0.155 HD
ATOM     37  N   UNL     1       5.846 -10.393  37.657  0.00  0.00    -0.214 NA
BRANCH   4   3
ATOM      1  C   UNL     1       9.291  -8.850  35.405  0.00  0.00    +0.020 A 
ATOM      2  C   UNL     1       8.035  -9.232  36.007  0.00  0.00    +0.013 A 
ATOM      3  C   UNL     1       7.551 -10.604  35.915  0.00  0.00    +0.019 A 
ATOM     38  C   UNL     1       8.370 -11.572  35.202  0.00  0.00    +0.120 A 
ATOM     39  N   UNL     1       9.575 -11.175  34.631  0.00  0.00    -0.263 NA
ATOM     40  C   UNL     1      10.050  -9.857  34.711  0.00  0.00    +0.111 A 
ENDBRANCH   4   3
ENDBRANCH  10   9
BRANCH  12  13
ATOM     13  N   UNL     1      -0.555  -9.312  39.899  0.00  0.00    -0.281 N 
ATOM     14  C   UNL     1      -1.630  -9.949  39.299  0.00  0.00    +0.248 C 
ATOM     30  O   UNL     1      -1.593 -11.079  38.837  0.00  0.00    -0.270 OA
ATOM     31  H   UNL     1      -0.662  -8.311  40.063  0.00  0.00    +0.155 HD
BRANCH  14  15
ATOM     15  C   UNL     1      -2.929  -9.218  39.183  0.00  0.00    +0.037 A 
ATOM     16  C   UNL     1      -3.049  -7.814  39.583  0.00  0.00    +0.013 A 
ATOM     17  C   UNL     1      -4.318  -7.138  39.477  0.00  0.00    +0.005 A 
ATOM     18  C   UNL     1      -5.477  -7.867  38.967  0.00  0.00    -0.033 A 
ATOM     28  C   UNL     1      -5.328  -9.258  38.573  0.00  0.00    +0.005 A 
ATOM     29  C   UNL     1      -4.086  -9.924  38.676  0.00  0.00    +0.013 A 
BRANCH  18  19
ATOM     19  C   UNL     1      -6.874  -7.231  38.840  0.00  0.00    +0.119 C 
BRANCH  19  20
ATOM     20  N   UNL     1      -7.972  -8.094  38.310  0.00  0.00    -0.302 NA
ATOM     21  C   UNL     1      -8.347  -7.728  36.871  0.00  0.00    +0.066 C 
ATOM     22  C   UNL     1      -9.481  -8.655  36.325  0.00  0.00    -0.064 C 
ATOM     23  N   UNL     1     -10.700  -8.560  37.243  0.00  0.00    +0.379 N 
ATOM     24  C   UNL     1     -11.789  -9.386  36.700  0.00  0.00    -0.096 C 
ATOM     25  H   UNL     1     -11.045  -7.500  37.238  0.00  0.00    -0.082 HD
ATOM     26  C   UNL     1     -10.336  -8.920  38.676  0.00  0.00    -0.064 C 
ATOM     27  C   UNL     1      -9.188  -8.012  39.199  0.00  0.00    +0.066 C 
ENDBRANCH  19  20
ENDBRANCH  18  19
ENDBRANCH  14  15
ENDBRANCH  12  13
TORSDOF 6
ENDMDL
