MODEL 1
REMARK VINA RESULT:     -10.9      0.000      0.000
REMARK  Name = C:\Users\Docking\Desktop\test protocol\1iep_ligandH.pdb
REMARK  8 active torsions:
REMARK  status: ('A' for Active; 'I' for Inactive)
REMARK    1  A    between atoms: _5  and  _11
REMARK    2  A    between atoms: _19  and  _21
REMARK    3  A    between atoms: _22  and  _66
REMARK    4  A    between atoms: _27  and  _30
REMARK    5  A    between atoms: _32  and  _33
REMARK    6  A    between atoms: _38  and  _43
REMARK    7  A    between atoms: _43  and  _46
REMARK    8  A    between atoms: _53  and  _55
REMARK                            x       y       z     vdW  Elec       q    Type
REMARK                         _______ _______ _______ _____ _____    ______ ____
ROOT
ATOM     10  C   UNL     1       6.371  24.803  11.062  0.00  0.00    +0.038 A 
ATOM     11  C   UNL     1       7.096  24.253  12.150  0.00  0.00    +0.047 A 
ATOM     12  C   UNL     1       8.454  23.760  11.977  0.00  0.00    +0.035 A 
ATOM     32  C   UNL     1       9.043  23.843  10.682  0.00  0.00    +0.024 A 
ATOM     33  C   UNL     1       8.320  24.398   9.565  0.00  0.00    +0.007 A 
ATOM     34  C   UNL     1       6.980  24.884   9.729  0.00  0.00    -0.029 A 
ATOM     35  C   UNL     1       6.250  25.463   8.495  0.00  0.00    +0.045 C 
ENDROOT
BRANCH  10   9
ATOM      4  C   UNL     1       3.212  27.657  13.279  0.00  0.00    +0.077 A 
ATOM      5  C   UNL     1       4.235  28.265  14.081  0.00  0.00    +0.048 A 
ATOM      6  C   UNL     1       5.560  27.810  13.897  0.00  0.00    +0.116 A 
ATOM      7  N   UNL     1       5.831  26.820  12.977  0.00  0.00    -0.223 NA
ATOM      8  C   UNL     1       4.821  26.254  12.222  0.00  0.00    +0.220 A 
ATOM      9  N   UNL     1       5.071  25.262  11.285  0.00  0.00    -0.283 N 
ATOM     36  H   UNL     1       4.298  24.864  10.753  0.00  0.00    +0.155 HD
ATOM     37  N   UNL     1       3.547  26.669  12.379  0.00  0.00    -0.214 NA
BRANCH   4   3
ATOM      1  C   UNL     1      -0.644  27.810  12.639  0.00  0.00    +0.020 A 
ATOM      2  C   UNL     1       0.740  27.411  12.526  0.00  0.00    +0.013 A 
ATOM      3  C   UNL     1       1.765  28.032  13.356  0.00  0.00    +0.019 A 
ATOM     38  C   UNL     1       1.352  29.060  14.299  0.00  0.00    +0.120 A 
ATOM     39  N   UNL     1       0.012  29.424  14.385  0.00  0.00    -0.263 NA
ATOM     40  C   UNL     1      -0.982  28.835  13.590  0.00  0.00    +0.111 A 
ENDBRANCH   4   3
ENDBRANCH  10   9
BRANCH  12  13
ATOM     13  N   UNL     1       9.236  23.184  13.043  0.00  0.00    -0.281 N 
ATOM     14  C   UNL     1      10.612  23.209  13.199  0.00  0.00    +0.248 C 
ATOM     30  O   UNL     1      11.400  23.548  12.328  0.00  0.00    -0.270 OA
ATOM     31  H   UNL     1       8.711  22.699  13.771  0.00  0.00    +0.155 HD
BRANCH  14  15
ATOM     15  C   UNL     1      11.199  22.781  14.505  0.00  0.00    +0.037 A 
ATOM     16  C   UNL     1      12.361  21.891  14.561  0.00  0.00    +0.013 A 
ATOM     17  C   UNL     1      12.897  21.480  15.835  0.00  0.00    +0.005 A 
ATOM     18  C   UNL     1      12.271  21.961  17.064  0.00  0.00    -0.033 A 
ATOM     28  C   UNL     1      11.122  22.848  16.979  0.00  0.00    +0.005 A 
ATOM     29  C   UNL     1      10.594  23.252  15.733  0.00  0.00    +0.013 A 
BRANCH  18  19
ATOM     19  C   UNL     1      12.763  21.558  18.466  0.00  0.00    +0.119 C 
BRANCH  19  20
ATOM     20  N   UNL     1      14.228  21.663  18.734  0.00  0.00    -0.302 NA
ATOM     21  C   UNL     1      14.547  21.581  20.229  0.00  0.00    +0.066 C 
ATOM     22  C   UNL     1      16.086  21.671  20.489  0.00  0.00    -0.064 C 
ATOM     23  N   UNL     1      16.627  22.970  19.890  0.00  0.00    +0.379 N 
ATOM     24  C   UNL     1      18.063  23.085  20.183  0.00  0.00    -0.096 C 
ATOM     25  H   UNL     1      16.109  23.817  20.398  0.00  0.00    -0.082 HD
ATOM     26  C   UNL     1      16.312  23.061  18.404  0.00  0.00    -0.064 C 
ATOM     27  C   UNL     1      14.783  22.941  18.154  0.00  0.00    +0.066 C 
ENDBRANCH  19  20
ENDBRANCH  18  19
ENDBRANCH  14  15
ENDBRANCH  12  13
TORSDOF 6
ENDMDL
MODEL 2
REMARK VINA RESULT:     -10.7      2.180     12.751
REMARK  Name = C:\Users\Docking\Desktop\test protocol\1iep_ligandH.pdb
REMARK  8 active torsions:
REMARK  status: ('A' for Active; 'I' for Inactive)
REMARK    1  A    between atoms: _5  and  _11
REMARK    2  A    between atoms: _19  and  _21
REMARK    3  A    between atoms: _22  and  _66
REMARK    4  A    between atoms: _27  and  _30
REMARK    5  A    between atoms: _32  and  _33
REMARK    6  A    between atoms: _38  and  _43
REMARK    7  A    between atoms: _43  and  _46
REMARK    8  A    between atoms: _53  and  _55
REMARK                            x       y       z     vdW  Elec       q    Type
REMARK                         _______ _______ _______ _____ _____    ______ ____
ROOT
ATOM     10  C   UNL     1       9.316  23.174  12.433  0.00  0.00    +0.038 A 
ATOM     11  C   UNL     1       8.077  23.649  12.934  0.00  0.00    +0.047 A 
ATOM     12  C   UNL     1       7.245  24.549  12.151  0.00  0.00    +0.035 A 
ATOM     32  C   UNL     1       7.704  24.943  10.860  0.00  0.00    +0.024 A 
ATOM     33  C   UNL     1       8.961  24.470  10.336  0.00  0.00    +0.007 A 
ATOM     34  C   UNL     1       9.788  23.585  11.105  0.00  0.00    -0.029 A 
ATOM     35  C   UNL     1      11.129  23.115  10.496  0.00  0.00    +0.045 C 
ENDROOT
BRANCH  10   9
ATOM      4  C   UNL     1      12.476  22.338  15.948  0.00  0.00    +0.077 A 
ATOM      5  C   UNL     1      12.649  23.739  16.206  0.00  0.00    +0.048 A 
ATOM      6  C   UNL     1      11.912  24.641  15.407  0.00  0.00    +0.116 A 
ATOM      7  N   UNL     1      11.068  24.168  14.427  0.00  0.00    -0.223 NA
ATOM      8  C   UNL     1      10.925  22.811  14.203  0.00  0.00    +0.220 A 
ATOM      9  N   UNL     1      10.075  22.312  13.228  0.00  0.00    -0.283 N 
ATOM     36  H   UNL     1      10.004  21.304  13.089  0.00  0.00    +0.155 HD
ATOM     37  N   UNL     1      11.619  21.928  14.951  0.00  0.00    -0.214 NA
BRANCH   4   3
ATOM      1  C   UNL     1      13.578  18.845  17.321  0.00  0.00    +0.020 A 
ATOM      2  C   UNL     1      12.865  19.846  16.561  0.00  0.00    +0.013 A 
ATOM      3  C   UNL     1      13.182  21.260  16.711  0.00  0.00    +0.019 A 
ATOM     38  C   UNL     1      14.236  21.632  17.644  0.00  0.00    +0.120 A 
ATOM     39  N   UNL     1      14.904  20.646  18.363  0.00  0.00    -0.263 NA
ATOM     40  C   UNL     1      14.606  19.281  18.228  0.00  0.00    +0.111 A 
ENDBRANCH   4   3
ENDBRANCH  10   9
BRANCH  12  13
ATOM     13  N   UNL     1       5.981  25.070  12.610  0.00  0.00    -0.281 N 
ATOM     14  C   UNL     1       5.744  25.891  13.700  0.00  0.00    +0.248 C 
ATOM     30  O   UNL     1       6.562  26.130  14.576  0.00  0.00    -0.270 OA
ATOM     31  H   UNL     1       5.162  24.802  12.065  0.00  0.00    +0.155 HD
BRANCH  14  15
ATOM     15  C   UNL     1       4.400  26.528  13.846  0.00  0.00    +0.037 A 
ATOM     16  C   UNL     1       3.968  27.109  15.120  0.00  0.00    +0.013 A 
ATOM     17  C   UNL     1       2.660  27.702  15.238  0.00  0.00    +0.005 A 
ATOM     18  C   UNL     1       1.773  27.718  14.077  0.00  0.00    -0.033 A 
ATOM     28  C   UNL     1       2.229  27.139  12.824  0.00  0.00    +0.005 A 
ATOM     29  C   UNL     1       3.510  26.556  12.705  0.00  0.00    +0.013 A 
BRANCH  18  19
ATOM     19  C   UNL     1       0.352  28.310  14.118  0.00  0.00    +0.119 C 
BRANCH  19  20
ATOM     20  N   UNL     1      -0.041  29.222  13.003  0.00  0.00    -0.302 NA
ATOM     21  C   UNL     1      -0.632  30.538  13.518  0.00  0.00    +0.066 C 
ATOM     22  C   UNL     1      -1.016  31.489  12.338  0.00  0.00    -0.064 C 
ATOM     23  N   UNL     1      -2.004  30.777  11.413  0.00  0.00    +0.379 N 
ATOM     24  C   UNL     1      -2.413  31.690  10.335  0.00  0.00    -0.096 C 
ATOM     25  H   UNL     1      -2.912  30.533  12.012  0.00  0.00    -0.082 HD
ATOM     26  C   UNL     1      -1.426  29.467  10.899  0.00  0.00    -0.064 C 
ATOM     27  C   UNL     1      -1.020  28.540  12.079  0.00  0.00    +0.066 C 
ENDBRANCH  19  20
ENDBRANCH  18  19
ENDBRANCH  14  15
ENDBRANCH  12  13
TORSDOF 6
ENDMDL
MODEL 3
REMARK VINA RESULT:     -10.5      1.436      1.946
REMARK  Name = C:\Users\Docking\Desktop\test protocol\1iep_ligandH.pdb
REMARK  8 active torsions:
REMARK  status: ('A' for Active; 'I' for Inactive)
REMARK    1  A    between atoms: _5  and  _11
REMARK    2  A    between atoms: _19  and  _21
REMARK    3  A    between atoms: _22  and  _66
REMARK    4  A    between atoms: _27  and  _30
REMARK    5  A    between atoms: _32  and  _33
REMARK    6  A    between atoms: _38  and  _43
REMARK    7  A    between atoms: _43  and  _46
REMARK    8  A    between atoms: _53  and  _55
REMARK                            x       y       z     vdW  Elec       q    Type
REMARK                         _______ _______ _______ _____ _____    ______ ____
ROOT
ATOM     10  C   UNL     1       6.421  25.549  10.474  0.00  0.00    +0.038 A 
ATOM     11  C   UNL     1       7.169  25.049  11.571  0.00  0.00    +0.047 A 
ATOM     12  C   UNL     1       8.284  24.137  11.369  0.00  0.00    +0.035 A 
ATOM     32  C   UNL     1       8.612  23.756  10.035  0.00  0.00    +0.024 A 
ATOM     33  C   UNL     1       7.862  24.254   8.909  0.00  0.00    +0.007 A 
ATOM     34  C   UNL     1       6.760  25.152   9.102  0.00  0.00    -0.029 A 
ATOM     35  C   UNL     1       5.987  25.648   7.858  0.00  0.00    +0.045 C 
ENDROOT
BRANCH  10   9
ATOM      4  C   UNL     1       2.544  26.892  12.964  0.00  0.00    +0.077 A 
ATOM      5  C   UNL     1       2.622  25.742  13.819  0.00  0.00    +0.048 A 
ATOM      6  C   UNL     1       3.671  24.826  13.580  0.00  0.00    +0.116 A 
ATOM      7  N   UNL     1       4.569  25.052  12.560  0.00  0.00    -0.223 NA
ATOM      8  C   UNL     1       4.464  26.170  11.753  0.00  0.00    +0.220 A 
ATOM      9  N   UNL     1       5.361  26.422  10.726  0.00  0.00    -0.283 N 
ATOM     36  H   UNL     1       5.245  27.254  10.148  0.00  0.00    +0.155 HD
ATOM     37  N   UNL     1       3.471  27.059  11.960  0.00  0.00    -0.214 NA
BRANCH   4   3
ATOM      1  C   UNL     1       0.377  29.854  14.316  0.00  0.00    +0.020 A 
ATOM      2  C   UNL     1       1.410  28.847  14.240  0.00  0.00    +0.013 A 
ATOM      3  C   UNL     1       1.495  27.952  13.093  0.00  0.00    +0.019 A 
ATOM     38  C   UNL     1       0.513  28.104  12.031  0.00  0.00    +0.120 A 
ATOM     39  N   UNL     1      -0.471  29.083  12.131  0.00  0.00    -0.263 NA
ATOM     40  C   UNL     1      -0.564  29.948  13.231  0.00  0.00    +0.111 A 
ENDBRANCH   4   3
ENDBRANCH  10   9
BRANCH  12  13
ATOM     13  N   UNL     1       9.073  23.590  12.445  0.00  0.00    -0.281 N 
ATOM     14  C   UNL     1      10.423  23.781  12.692  0.00  0.00    +0.248 C 
ATOM     30  O   UNL     1      11.207  24.282  11.899  0.00  0.00    -0.270 OA
ATOM     31  H   UNL     1       8.577  22.990  13.104  0.00  0.00    +0.155 HD
BRANCH  14  15
ATOM     15  C   UNL     1      10.986  23.338  14.004  0.00  0.00    +0.037 A 
ATOM     16  C   UNL     1      10.232  23.503  15.249  0.00  0.00    +0.013 A 
ATOM     17  C   UNL     1      10.806  23.083  16.503  0.00  0.00    +0.005 A 
ATOM     18  C   UNL     1      12.142  22.493  16.517  0.00  0.00    -0.033 A 
ATOM     28  C   UNL     1      12.866  22.336  15.267  0.00  0.00    +0.005 A 
ATOM     29  C   UNL     1      12.307  22.748  14.036  0.00  0.00    +0.013 A 
BRANCH  18  19
ATOM     19  C   UNL     1      12.840  22.036  17.812  0.00  0.00    +0.119 C 
BRANCH  19  20
ATOM     20  N   UNL     1      14.243  21.537  17.692  0.00  0.00    -0.302 NA
ATOM     21  C   UNL     1      14.330  20.019  17.876  0.00  0.00    +0.066 C 
ATOM     22  C   UNL     1      15.801  19.511  17.726  0.00  0.00    -0.064 C 
ATOM     23  N   UNL     1      16.693  20.232  18.738  0.00  0.00    +0.379 N 
ATOM     24  C   UNL     1      18.066  19.715  18.639  0.00  0.00    -0.096 C 
ATOM     25  H   UNL     1      16.312  19.988  19.757  0.00  0.00    -0.082 HD
ATOM     26  C   UNL     1      16.610  21.742  18.564  0.00  0.00    -0.064 C 
ATOM     27  C   UNL     1      15.140  22.232  18.686  0.00  0.00    +0.066 C 
ENDBRANCH  19  20
ENDBRANCH  18  19
ENDBRANCH  14  15
ENDBRANCH  12  13
TORSDOF 6
ENDMDL
MODEL 4
REMARK VINA RESULT:     -10.3      1.137      1.296
REMARK  Name = C:\Users\Docking\Desktop\test protocol\1iep_ligandH.pdb
REMARK  8 active torsions:
REMARK  status: ('A' for Active; 'I' for Inactive)
REMARK    1  A    between atoms: _5  and  _11
REMARK    2  A    between atoms: _19  and  _21
REMARK    3  A    between atoms: _22  and  _66
REMARK    4  A    between atoms: _27  and  _30
REMARK    5  A    between atoms: _32  and  _33
REMARK    6  A    between atoms: _38  and  _43
REMARK    7  A    between atoms: _43  and  _46
REMARK    8  A    between atoms: _53  and  _55
REMARK                            x       y       z     vdW  Elec       q    Type
REMARK                         _______ _______ _______ _____ _____    ______ ____
ROOT
ATOM     10  C   UNL     1       6.433  24.815  11.084  0.00  0.00    +0.038 A 
ATOM     11  C   UNL     1       7.149  24.400  12.236  0.00  0.00    +0.047 A 
ATOM     12  C   UNL     1       8.518  23.918  12.138  0.00  0.00    +0.035 A 
ATOM     32  C   UNL     1       9.128  23.874  10.851  0.00  0.00    +0.024 A 
ATOM     33  C   UNL     1       8.414  24.291   9.669  0.00  0.00    +0.007 A 
ATOM     34  C   UNL     1       7.063  24.765   9.760  0.00  0.00    -0.029 A 
ATOM     35  C   UNL     1       6.344  25.192   8.459  0.00  0.00    +0.045 C 
ENDROOT
BRANCH  10   9
ATOM      4  C   UNL     1       3.140  27.622  13.161  0.00  0.00    +0.077 A 
ATOM      5  C   UNL     1       4.111  28.215  14.035  0.00  0.00    +0.048 A 
ATOM      6  C   UNL     1       5.445  27.764  13.923  0.00  0.00    +0.116 A 
ATOM      7  N   UNL     1       5.773  26.793  13.002  0.00  0.00    -0.223 NA
ATOM      8  C   UNL     1       4.812  26.241  12.176  0.00  0.00    +0.220 A 
ATOM      9  N   UNL     1       5.121  25.269  11.237  0.00  0.00    -0.283 N 
ATOM     36  H   UNL     1       4.382  24.881  10.651  0.00  0.00    +0.155 HD
ATOM     37  N   UNL     1       3.530  26.653  12.264  0.00  0.00    -0.214 NA
BRANCH   4   3
ATOM      1  C   UNL     1      -0.577  28.145  12.060  0.00  0.00    +0.020 A 
ATOM      2  C   UNL     1       0.817  27.767  12.012  0.00  0.00    +0.013 A 
ATOM      3  C   UNL     1       1.690  27.995  13.157  0.00  0.00    +0.019 A 
ATOM     38  C   UNL     1       1.117  28.612  14.344  0.00  0.00    +0.120 A 
ATOM     39  N   UNL     1      -0.228  28.967  14.360  0.00  0.00    -0.263 NA
ATOM     40  C   UNL     1      -1.078  28.754  13.264  0.00  0.00    +0.111 A 
ENDBRANCH   4   3
ENDBRANCH  10   9
BRANCH  12  13
ATOM     13  N   UNL     1       9.292  23.476  13.271  0.00  0.00    -0.281 N 
ATOM     14  C   UNL     1      10.671  23.431  13.395  0.00  0.00    +0.248 C 
ATOM     30  O   UNL     1      11.453  23.564  12.466  0.00  0.00    -0.270 OA
ATOM     31  H   UNL     1       8.759  23.158  14.081  0.00  0.00    +0.155 HD
BRANCH  14  15
ATOM     15  C   UNL     1      11.268  23.189  14.744  0.00  0.00    +0.037 A 
ATOM     16  C   UNL     1      12.713  23.289  14.965  0.00  0.00    +0.013 A 
ATOM     17  C   UNL     1      13.263  23.034  16.273  0.00  0.00    +0.005 A 
ATOM     18  C   UNL     1      12.368  22.677  17.370  0.00  0.00    -0.033 A 
ATOM     28  C   UNL     1      10.938  22.590  17.124  0.00  0.00    +0.005 A 
ATOM     29  C   UNL     1      10.394  22.838  15.844  0.00  0.00    +0.013 A 
BRANCH  18  19
ATOM     19  C   UNL     1      12.870  22.367  18.793  0.00  0.00    +0.119 C 
BRANCH  19  20
ATOM     20  N   UNL     1      14.107  21.540  18.916  0.00  0.00    -0.302 NA
ATOM     21  C   UNL     1      15.378  22.390  18.821  0.00  0.00    +0.066 C 
ATOM     22  C   UNL     1      16.663  21.513  18.974  0.00  0.00    -0.064 C 
ATOM     23  N   UNL     1      16.661  20.420  17.904  0.00  0.00    +0.379 N 
ATOM     24  C   UNL     1      17.896  19.629  18.009  0.00  0.00    -0.096 C 
ATOM     25  H   UNL     1      16.664  20.921  16.909  0.00  0.00    -0.082 HD
ATOM     26  C   UNL     1      15.400  19.571  17.990  0.00  0.00    -0.064 C 
ATOM     27  C   UNL     1      14.129  20.457  17.866  0.00  0.00    +0.066 C 
ENDBRANCH  19  20
ENDBRANCH  18  19
ENDBRANCH  14  15
ENDBRANCH  12  13
TORSDOF 6
ENDMDL
MODEL 5
REMARK VINA RESULT:     -10.2      4.003     13.940
REMARK  Name = C:\Users\Docking\Desktop\test protocol\1iep_ligandH.pdb
REMARK  8 active torsions:
REMARK  status: ('A' for Active; 'I' for Inactive)
REMARK    1  A    between atoms: _5  and  _11
REMARK    2  A    between atoms: _19  and  _21
REMARK    3  A    between atoms: _22  and  _66
REMARK    4  A    between atoms: _27  and  _30
REMARK    5  A    between atoms: _32  and  _33
REMARK    6  A    between atoms: _38  and  _43
REMARK    7  A    between atoms: _43  and  _46
REMARK    8  A    between atoms: _53  and  _55
REMARK                            x       y       z     vdW  Elec       q    Type
REMARK                         _______ _______ _______ _____ _____    ______ ____
ROOT
ATOM     10  C   UNL     1      14.315  21.605  19.099  0.00  0.00    +0.038 A 
ATOM     11  C   UNL     1      13.360  21.957  18.111  0.00  0.00    +0.047 A 
ATOM     12  C   UNL     1      12.026  22.404  18.479  0.00  0.00    +0.035 A 
ATOM     32  C   UNL     1      11.699  22.485  19.864  0.00  0.00    +0.024 A 
ATOM     33  C   UNL     1      12.657  22.131  20.882  0.00  0.00    +0.007 A 
ATOM     34  C   UNL     1      13.973  21.686  20.524  0.00  0.00    -0.029 A 
ATOM     35  C   UNL     1      14.958  21.313  21.657  0.00  0.00    +0.045 C 
ENDROOT
BRANCH  10   9
ATOM      4  C   UNL     1      17.254  18.400  17.069  0.00  0.00    +0.077 A 
ATOM      5  C   UNL     1      16.180  17.479  16.829  0.00  0.00    +0.048 A 
ATOM      6  C   UNL     1      14.888  17.865  17.250  0.00  0.00    +0.116 A 
ATOM      7  N   UNL     1      14.695  19.084  17.863  0.00  0.00    -0.223 NA
ATOM      8  C   UNL     1      15.753  19.948  18.081  0.00  0.00    +0.220 A 
ATOM      9  N   UNL     1      15.581  21.182  18.689  0.00  0.00    -0.283 N 
ATOM     36  H   UNL     1      16.388  21.787  18.838  0.00  0.00    +0.155 HD
ATOM     37  N   UNL     1      16.997  19.602  17.689  0.00  0.00    -0.214 NA
BRANCH   4   3
ATOM      1  C   UNL     1      20.437  17.305  15.076  0.00  0.00    +0.020 A 
ATOM      2  C   UNL     1      19.049  17.538  15.404  0.00  0.00    +0.013 A 
ATOM      3  C   UNL     1      18.675  18.137  16.679  0.00  0.00    +0.019 A 
ATOM     38  C   UNL     1      19.738  18.492  17.606  0.00  0.00    +0.120 A 
ATOM     39  N   UNL     1      21.066  18.255  17.264  0.00  0.00    -0.263 NA
ATOM     40  C   UNL     1      21.438  17.678  16.041  0.00  0.00    +0.111 A 
ENDBRANCH   4   3
ENDBRANCH  10   9
BRANCH  12  13
ATOM     13  N   UNL     1      11.012  22.767  17.520  0.00  0.00    -0.281 N 
ATOM     14  C   UNL     1      11.086  23.726  16.523  0.00  0.00    +0.248 C 
ATOM     30  O   UNL     1      11.966  24.571  16.441  0.00  0.00    -0.270 OA
ATOM     31  H   UNL     1      10.132  22.254  17.584  0.00  0.00    +0.155 HD
BRANCH  14  15
ATOM     15  C   UNL     1      10.023  23.761  15.474  0.00  0.00    +0.037 A 
ATOM     16  C   UNL     1      10.273  23.258  14.121  0.00  0.00    +0.013 A 
ATOM     17  C   UNL     1       9.235  23.319  13.123  0.00  0.00    +0.005 A 
ATOM     18  C   UNL     1       7.935  23.884  13.475  0.00  0.00    -0.033 A 
ATOM     28  C   UNL     1       7.712  24.371  14.827  0.00  0.00    +0.005 A 
ATOM     29  C   UNL     1       8.727  24.314  15.807  0.00  0.00    +0.013 A 
BRANCH  18  19
ATOM     19  C   UNL     1       6.776  24.009  12.469  0.00  0.00    +0.119 C 
BRANCH  19  20
ATOM     20  N   UNL     1       7.135  24.243  11.038  0.00  0.00    -0.302 NA
ATOM     21  C   UNL     1       7.008  25.719  10.648  0.00  0.00    +0.066 C 
ATOM     22  C   UNL     1       7.410  25.949   9.155  0.00  0.00    -0.064 C 
ATOM     23  N   UNL     1       6.536  25.074   8.254  0.00  0.00    +0.379 N 
ATOM     24  C   UNL     1       6.872  25.331   6.846  0.00  0.00    -0.096 C 
ATOM     25  H   UNL     1       5.476  25.380   8.411  0.00  0.00    -0.082 HD
ATOM     26  C   UNL     1       6.655  23.605   8.637  0.00  0.00    -0.064 C 
ATOM     27  C   UNL     1       6.282  23.392  10.130  0.00  0.00    +0.066 C 
ENDBRANCH  19  20
ENDBRANCH  18  19
ENDBRANCH  14  15
ENDBRANCH  12  13
TORSDOF 6
ENDMDL
