MODEL 1
REMARK VINA RESULT:     -10.9      0.000      0.000
REMARK  Name = C:\Users\Docking\Desktop\test protocol\1iep_ligandH.pdb
REMARK  8 active torsions:
REMARK  status: ('A' for Active; 'I' for Inactive)
REMARK    1  A    between atoms: _5  and  _11
REMARK    2  A    between atoms: _19  and  _21
REMARK    3  A    between atoms: _22  and  _66
REMARK    4  A    between atoms: _27  and  _30
REMARK    5  A    between atoms: _32  and  _33
REMARK    6  A    between atoms: _38  and  _43
REMARK    7  A    between atoms: _43  and  _46
REMARK    8  A    between atoms: _53  and  _55
REMARK                            x       y       z     vdW  Elec       q    Type
REMARK                         _______ _______ _______ _____ _____    ______ ____
ROOT
ATOM     10  C   UNL     1       6.193  25.750  10.409  0.00  0.00    +0.038 A 
ATOM     11  C   UNL     1       6.899  25.255  11.535  0.00  0.00    +0.047 A 
ATOM     12  C   UNL     1       8.067  24.403  11.376  0.00  0.00    +0.035 A 
ATOM     32  C   UNL     1       8.489  24.076  10.054  0.00  0.00    +0.024 A 
ATOM     33  C   UNL     1       7.783  24.569   8.898  0.00  0.00    +0.007 A 
ATOM     34  C   UNL     1       6.628  25.408   9.049  0.00  0.00    -0.029 A 
ATOM     35  C   UNL     1       5.906  25.903   7.775  0.00  0.00    +0.045 C 
ENDROOT
BRANCH  10   9
ATOM      4  C   UNL     1       2.096  26.815  12.671  0.00  0.00    +0.077 A 
ATOM      5  C   UNL     1       2.168  25.634  13.482  0.00  0.00    +0.048 A 
ATOM      6  C   UNL     1       3.271  24.775  13.281  0.00  0.00    +0.116 A 
ATOM      7  N   UNL     1       4.226  25.084  12.337  0.00  0.00    -0.223 NA
ATOM      8  C   UNL     1       4.126  26.230  11.570  0.00  0.00    +0.220 A 
ATOM      9  N   UNL     1       5.078  26.565  10.620  0.00  0.00    -0.283 N 
ATOM     36  H   UNL     1       4.964  27.415  10.069  0.00  0.00    +0.155 HD
ATOM     37  N   UNL     1       3.080  27.066  11.741  0.00  0.00    -0.214 NA
BRANCH   4   3
ATOM      1  C   UNL     1      -0.224  29.702  13.930  0.00  0.00    +0.020 A 
ATOM      2  C   UNL     1       0.860  28.748  13.885  0.00  0.00    +0.013 A 
ATOM      3  C   UNL     1       0.992  27.822  12.767  0.00  0.00    +0.019 A 
ATOM     38  C   UNL     1       0.003  27.889  11.702  0.00  0.00    +0.120 A 
ATOM     39  N   UNL     1      -1.031  28.817  11.773  0.00  0.00    -0.263 NA
ATOM     40  C   UNL     1      -1.169  29.711  12.845  0.00  0.00    +0.111 A 
ENDBRANCH   4   3
ENDBRANCH  10   9
BRANCH  12  13
ATOM     13  N   UNL     1       8.819  23.864  12.482  0.00  0.00    -0.281 N 
ATOM     14  C   UNL     1      10.182  23.956  12.709  0.00  0.00    +0.248 C 
ATOM     30  O   UNL     1      10.997  24.334  11.881  0.00  0.00    -0.270 OA
ATOM     31  H   UNL     1       8.281  23.354  13.182  0.00  0.00    +0.155 HD
BRANCH  14  15
ATOM     15  C   UNL     1      10.720  23.556  14.045  0.00  0.00    +0.037 A 
ATOM     16  C   UNL     1      12.160  23.550  14.314  0.00  0.00    +0.013 A 
ATOM     17  C   UNL     1      12.653  23.143  15.606  0.00  0.00    +0.005 A 
ATOM     18  C   UNL     1      11.704  22.739  16.640  0.00  0.00    -0.033 A 
ATOM     28  C   UNL     1      10.280  22.759  16.348  0.00  0.00    +0.005 A 
ATOM     29  C   UNL     1       9.793  23.156  15.082  0.00  0.00    +0.013 A 
BRANCH  18  19
ATOM     19  C   UNL     1      12.141  22.270  18.040  0.00  0.00    +0.119 C 
BRANCH  19  20
ATOM     20  N   UNL     1      12.969  21.030  18.118  0.00  0.00    -0.302 NA
ATOM     21  C   UNL     1      14.457  21.317  17.904  0.00  0.00    +0.066 C 
ATOM     22  C   UNL     1      15.311  20.012  18.011  0.00  0.00    -0.064 C 
ATOM     23  N   UNL     1      14.805  18.990  16.991  0.00  0.00    +0.379 N 
ATOM     24  C   UNL     1      15.642  17.783  17.050  0.00  0.00    -0.096 C 
ATOM     25  H   UNL     1      14.925  19.437  15.977  0.00  0.00    -0.082 HD
ATOM     26  C   UNL     1      13.325  18.700  17.195  0.00  0.00    -0.064 C 
ATOM     27  C   UNL     1      12.489  20.008  17.116  0.00  0.00    +0.066 C 
ENDBRANCH  19  20
ENDBRANCH  18  19
ENDBRANCH  14  15
ENDBRANCH  12  13
TORSDOF 6
ENDMDL
MODEL 2
REMARK VINA RESULT:     -10.9      1.969     12.755
REMARK  Name = C:\Users\Docking\Desktop\test protocol\1iep_ligandH.pdb
REMARK  8 active torsions:
REMARK  status: ('A' for Active; 'I' for Inactive)
REMARK    1  A    between atoms: _5  and  _11
REMARK    2  A    between atoms: _19  and  _21
REMARK    3  A    between atoms: _22  and  _66
REMARK    4  A    between atoms: _27  and  _30
REMARK    5  A    between atoms: _32  and  _33
REMARK    6  A    between atoms: _38  and  _43
REMARK    7  A    between atoms: _43  and  _46
REMARK    8  A    between atoms: _53  and  _55
REMARK                            x       y       z     vdW  Elec       q    Type
REMARK                         _______ _______ _______ _____ _____    ______ ____
ROOT
ATOM     10  C   UNL     1       9.260  23.320  12.380  0.00  0.00    +0.038 A 
ATOM     11  C   UNL     1       7.989  23.735  12.854  0.00  0.00    +0.047 A 
ATOM     12  C   UNL     1       7.145  24.621  12.068  0.00  0.00    +0.035 A 
ATOM     32  C   UNL     1       7.626  25.065  10.802  0.00  0.00    +0.024 A 
ATOM     33  C   UNL     1       8.916  24.654  10.305  0.00  0.00    +0.007 A 
ATOM     34  C   UNL     1       9.754  23.782  11.077  0.00  0.00    -0.029 A 
ATOM     35  C   UNL     1      11.130  23.380  10.498  0.00  0.00    +0.045 C 
ENDROOT
BRANCH  10   9
ATOM      4  C   UNL     1      12.387  22.523  15.933  0.00  0.00    +0.077 A 
ATOM      5  C   UNL     1      12.521  23.924  16.209  0.00  0.00    +0.048 A 
ATOM      6  C   UNL     1      11.774  24.817  15.410  0.00  0.00    +0.116 A 
ATOM      7  N   UNL     1      10.956  24.334  14.411  0.00  0.00    -0.223 NA
ATOM      8  C   UNL     1      10.851  22.977  14.170  0.00  0.00    +0.220 A 
ATOM      9  N   UNL     1      10.029  22.468  13.176  0.00  0.00    -0.283 N 
ATOM     36  H   UNL     1       9.985  21.461  13.025  0.00  0.00    +0.155 HD
ATOM     37  N   UNL     1      11.556  22.103  14.919  0.00  0.00    -0.214 NA
BRANCH   4   3
ATOM      1  C   UNL     1      13.430  19.064  17.433  0.00  0.00    +0.020 A 
ATOM      2  C   UNL     1      12.697  20.056  16.681  0.00  0.00    +0.013 A 
ATOM      3  C   UNL     1      13.109  21.454  16.694  0.00  0.00    +0.019 A 
ATOM     38  C   UNL     1      14.277  21.817  17.483  0.00  0.00    +0.120 A 
ATOM     39  N   UNL     1      14.961  20.840  18.198  0.00  0.00    -0.263 NA
ATOM     40  C   UNL     1      14.573  19.492  18.195  0.00  0.00    +0.111 A 
ENDBRANCH   4   3
ENDBRANCH  10   9
BRANCH  12  13
ATOM     13  N   UNL     1       5.849  25.082  12.501  0.00  0.00    -0.281 N 
ATOM     14  C   UNL     1       5.557  25.945  13.544  0.00  0.00    +0.248 C 
ATOM     30  O   UNL     1       6.357  26.288  14.403  0.00  0.00    -0.270 OA
ATOM     31  H   UNL     1       5.050  24.728  11.975  0.00  0.00    +0.155 HD
BRANCH  14  15
ATOM     15  C   UNL     1       4.173  26.498  13.658  0.00  0.00    +0.037 A 
ATOM     16  C   UNL     1       3.834  27.494  14.678  0.00  0.00    +0.013 A 
ATOM     17  C   UNL     1       2.487  27.997  14.777  0.00  0.00    +0.005 A 
ATOM     18  C   UNL     1       1.469  27.506  13.852  0.00  0.00    -0.033 A 
ATOM     28  C   UNL     1       1.834  26.521  12.847  0.00  0.00    +0.005 A 
ATOM     29  C   UNL     1       3.153  26.025  12.747  0.00  0.00    +0.013 A 
BRANCH  18  19
ATOM     19  C   UNL     1       0.002  27.972  13.899  0.00  0.00    +0.119 C 
BRANCH  19  20
ATOM     20  N   UNL     1      -0.433  28.965  12.872  0.00  0.00    -0.302 NA
ATOM     21  C   UNL     1      -1.283  30.085  13.480  0.00  0.00    +0.066 C 
ATOM     22  C   UNL     1      -1.710  31.127  12.395  0.00  0.00    -0.064 C 
ATOM     23  N   UNL     1      -2.474  30.414  11.279  0.00  0.00    +0.379 N 
ATOM     24  C   UNL     1      -2.928  31.399  10.287  0.00  0.00    -0.096 C 
ATOM     25  H   UNL     1      -3.380  29.949  11.733  0.00  0.00    -0.082 HD
ATOM     26  C   UNL     1      -1.638  29.296  10.671  0.00  0.00    -0.064 C 
ATOM     27  C   UNL     1      -1.194  28.282  11.762  0.00  0.00    +0.066 C 
ENDBRANCH  19  20
ENDBRANCH  18  19
ENDBRANCH  14  15
ENDBRANCH  12  13
TORSDOF 6
ENDMDL
MODEL 3
REMARK VINA RESULT:     -10.9      1.397      1.797
REMARK  Name = C:\Users\Docking\Desktop\test protocol\1iep_ligandH.pdb
REMARK  8 active torsions:
REMARK  status: ('A' for Active; 'I' for Inactive)
REMARK    1  A    between atoms: _5  and  _11
REMARK    2  A    between atoms: _19  and  _21
REMARK    3  A    between atoms: _22  and  _66
REMARK    4  A    between atoms: _27  and  _30
REMARK    5  A    between atoms: _32  and  _33
REMARK    6  A    between atoms: _38  and  _43
REMARK    7  A    between atoms: _43  and  _46
REMARK    8  A    between atoms: _53  and  _55
REMARK                            x       y       z     vdW  Elec       q    Type
REMARK                         _______ _______ _______ _____ _____    ______ ____
ROOT
ATOM     10  C   UNL     1       6.208  25.779  10.367  0.00  0.00    +0.038 A 
ATOM     11  C   UNL     1       6.931  25.269  11.475  0.00  0.00    +0.047 A 
ATOM     12  C   UNL     1       8.077  24.394  11.288  0.00  0.00    +0.035 A 
ATOM     32  C   UNL     1       8.462  24.060   9.957  0.00  0.00    +0.024 A 
ATOM     33  C   UNL     1       7.738  24.568   8.818  0.00  0.00    +0.007 A 
ATOM     34  C   UNL     1       6.604  25.430   8.997  0.00  0.00    -0.029 A 
ATOM     35  C   UNL     1       5.861  25.940   7.740  0.00  0.00    +0.045 C 
ENDROOT
BRANCH  10   9
ATOM      4  C   UNL     1       2.156  26.892  12.687  0.00  0.00    +0.077 A 
ATOM      5  C   UNL     1       2.208  25.693  13.474  0.00  0.00    +0.048 A 
ATOM      6  C   UNL     1       3.289  24.813  13.245  0.00  0.00    +0.116 A 
ATOM      7  N   UNL     1       4.243  25.119  12.299  0.00  0.00    -0.223 NA
ATOM      8  C   UNL     1       4.162  26.283  11.556  0.00  0.00    +0.220 A 
ATOM      9  N   UNL     1       5.114  26.615  10.605  0.00  0.00    -0.283 N 
ATOM     36  H   UNL     1       5.016  27.479  10.073  0.00  0.00    +0.155 HD
ATOM     37  N   UNL     1       3.139  27.139  11.755  0.00  0.00    -0.214 NA
BRANCH   4   3
ATOM      1  C   UNL     1      -0.022  29.877  13.971  0.00  0.00    +0.020 A 
ATOM      2  C   UNL     1       1.042  28.902  13.894  0.00  0.00    +0.013 A 
ATOM      3  C   UNL     1       1.078  27.923  12.815  0.00  0.00    +0.019 A 
ATOM     38  C   UNL     1       0.015  27.957  11.822  0.00  0.00    +0.120 A 
ATOM     39  N   UNL     1      -0.998  28.906  11.923  0.00  0.00    -0.263 NA
ATOM     40  C   UNL     1      -1.044  29.853  12.958  0.00  0.00    +0.111 A 
ENDBRANCH   4   3
ENDBRANCH  10   9
BRANCH  12  13
ATOM     13  N   UNL     1       8.845  23.839  12.375  0.00  0.00    -0.281 N 
ATOM     14  C   UNL     1      10.210  23.937  12.591  0.00  0.00    +0.248 C 
ATOM     30  O   UNL     1      11.013  24.338  11.762  0.00  0.00    -0.270 OA
ATOM     31  H   UNL     1       8.318  23.311  13.071  0.00  0.00    +0.155 HD
BRANCH  14  15
ATOM     15  C   UNL     1      10.764  23.514  13.913  0.00  0.00    +0.037 A 
ATOM     16  C   UNL     1      11.708  22.399  14.020  0.00  0.00    +0.013 A 
ATOM     17  C   UNL     1      12.215  22.001  15.310  0.00  0.00    +0.005 A 
ATOM     18  C   UNL     1      11.778  22.721  16.504  0.00  0.00    -0.033 A 
ATOM     28  C   UNL     1      10.844  23.827  16.368  0.00  0.00    +0.005 A 
ATOM     29  C   UNL     1      10.345  24.219  15.106  0.00  0.00    +0.013 A 
BRANCH  18  19
ATOM     19  C   UNL     1      12.250  22.351  17.922  0.00  0.00    +0.119 C 
BRANCH  19  20
ATOM     20  N   UNL     1      13.718  22.173  18.130  0.00  0.00    -0.302 NA
ATOM     21  C   UNL     1      14.048  21.742  19.562  0.00  0.00    +0.066 C 
ATOM     22  C   UNL     1      15.586  21.538  19.755  0.00  0.00    -0.064 C 
ATOM     23  N   UNL     1      16.318  22.832  19.396  0.00  0.00    +0.379 N 
ATOM     24  C   UNL     1      17.759  22.662  19.631  0.00  0.00    -0.096 C 
ATOM     25  H   UNL     1      15.954  23.629  20.085  0.00  0.00    -0.082 HD
ATOM     26  C   UNL     1      15.994  23.269  17.974  0.00  0.00    -0.064 C 
ATOM     27  C   UNL     1      14.461  23.440  17.785  0.00  0.00    +0.066 C 
ENDBRANCH  19  20
ENDBRANCH  18  19
ENDBRANCH  14  15
ENDBRANCH  12  13
TORSDOF 6
ENDMDL
MODEL 4
REMARK VINA RESULT:     -10.4      3.147     14.495
REMARK  Name = C:\Users\Docking\Desktop\test protocol\1iep_ligandH.pdb
REMARK  8 active torsions:
REMARK  status: ('A' for Active; 'I' for Inactive)
REMARK    1  A    between atoms: _5  and  _11
REMARK    2  A    between atoms: _19  and  _21
REMARK    3  A    between atoms: _22  and  _66
REMARK    4  A    between atoms: _27  and  _30
REMARK    5  A    between atoms: _32  and  _33
REMARK    6  A    between atoms: _38  and  _43
REMARK    7  A    between atoms: _43  and  _46
REMARK    8  A    between atoms: _53  and  _55
REMARK                            x       y       z     vdW  Elec       q    Type
REMARK                         _______ _______ _______ _____ _____    ______ ____
ROOT
ATOM     10  C   UNL     1      14.936  21.477  18.739  0.00  0.00    +0.038 A 
ATOM     11  C   UNL     1      14.071  21.740  17.647  0.00  0.00    +0.047 A 
ATOM     12  C   UNL     1      12.706  22.194  17.860  0.00  0.00    +0.035 A 
ATOM     32  C   UNL     1      12.255  22.372  19.201  0.00  0.00    +0.024 A 
ATOM     33  C   UNL     1      13.120  22.108  20.323  0.00  0.00    +0.007 A 
ATOM     34  C   UNL     1      14.467  21.658  20.119  0.00  0.00    -0.029 A 
ATOM     35  C   UNL     1      15.349  21.384  21.359  0.00  0.00    +0.045 C 
ENDROOT
BRANCH  10   9
ATOM      4  C   UNL     1      18.058  18.326  16.906  0.00  0.00    +0.077 A 
ATOM      5  C   UNL     1      17.008  17.457  16.457  0.00  0.00    +0.048 A 
ATOM      6  C   UNL     1      15.679  17.854  16.724  0.00  0.00    +0.116 A 
ATOM      7  N   UNL     1      15.430  19.034  17.391  0.00  0.00    -0.223 NA
ATOM      8  C   UNL     1      16.465  19.848  17.811  0.00  0.00    +0.220 A 
ATOM      9  N   UNL     1      16.237  21.043  18.477  0.00  0.00    -0.283 N 
ATOM     36  H   UNL     1      17.029  21.612  18.777  0.00  0.00    +0.155 HD
ATOM     37  N   UNL     1      17.744  19.491  17.570  0.00  0.00    -0.214 NA
BRANCH   4   3
ATOM      1  C   UNL     1      21.455  17.225  15.310  0.00  0.00    +0.020 A 
ATOM      2  C   UNL     1      20.041  17.476  15.462  0.00  0.00    +0.013 A 
ATOM      3  C   UNL     1      19.514  18.046  16.695  0.00  0.00    +0.019 A 
ATOM     38  C   UNL     1      20.452  18.354  17.764  0.00  0.00    +0.120 A 
ATOM     39  N   UNL     1      21.809  18.100  17.589  0.00  0.00    -0.263 NA
ATOM     40  C   UNL     1      22.328  17.550  16.407  0.00  0.00    +0.111 A 
ENDBRANCH   4   3
ENDBRANCH  10   9
BRANCH  12  13
ATOM     13  N   UNL     1      11.779  22.469  16.790  0.00  0.00    -0.281 N 
ATOM     14  C   UNL     1      11.436  23.700  16.256  0.00  0.00    +0.248 C 
ATOM     30  O   UNL     1      11.716  24.776  16.764  0.00  0.00    -0.270 OA
ATOM     31  H   UNL     1      11.321  21.657  16.376  0.00  0.00    +0.155 HD
BRANCH  14  15
ATOM     15  C   UNL     1      10.657  23.743  14.981  0.00  0.00    +0.037 A 
ATOM     16  C   UNL     1      11.322  23.633  13.681  0.00  0.00    +0.013 A 
ATOM     17  C   UNL     1      10.549  23.694  12.465  0.00  0.00    +0.005 A 
ATOM     18  C   UNL     1       9.101  23.865  12.546  0.00  0.00    -0.033 A 
ATOM     28  C   UNL     1       8.466  23.966  13.850  0.00  0.00    +0.005 A 
ATOM     29  C   UNL     1       9.220  23.907  15.043  0.00  0.00    +0.013 A 
BRANCH  18  19
ATOM     19  C   UNL     1       8.199  23.962  11.301  0.00  0.00    +0.119 C 
BRANCH  19  20
ATOM     20  N   UNL     1       7.403  25.213  11.129  0.00  0.00    -0.302 NA
ATOM     21  C   UNL     1       5.898  24.935  11.086  0.00  0.00    +0.066 C 
ATOM     22  C   UNL     1       5.079  26.258  10.928  0.00  0.00    -0.064 C 
ATOM     23  N   UNL     1       5.532  26.987   9.662  0.00  0.00    +0.379 N 
ATOM     24  C   UNL     1       4.724  28.202   9.479  0.00  0.00    -0.096 C 
ATOM     25  H   UNL     1       5.333  26.314   8.795  0.00  0.00    -0.082 HD
ATOM     26  C   UNL     1       7.028  27.265   9.695  0.00  0.00    -0.064 C 
ATOM     27  C   UNL     1       7.831  25.947   9.882  0.00  0.00    +0.066 C 
ENDBRANCH  19  20
ENDBRANCH  18  19
ENDBRANCH  14  15
ENDBRANCH  12  13
TORSDOF 6
ENDMDL
MODEL 5
REMARK VINA RESULT:     -10.4      1.943      2.439
REMARK  Name = C:\Users\Docking\Desktop\test protocol\1iep_ligandH.pdb
REMARK  8 active torsions:
REMARK  status: ('A' for Active; 'I' for Inactive)
REMARK    1  A    between atoms: _5  and  _11
REMARK    2  A    between atoms: _19  and  _21
REMARK    3  A    between atoms: _22  and  _66
REMARK    4  A    between atoms: _27  and  _30
REMARK    5  A    between atoms: _32  and  _33
REMARK    6  A    between atoms: _38  and  _43
REMARK    7  A    between atoms: _43  and  _46
REMARK    8  A    between atoms: _53  and  _55
REMARK                            x       y       z     vdW  Elec       q    Type
REMARK                         _______ _______ _______ _____ _____    ______ ____
ROOT
ATOM     10  C   UNL     1       6.750  24.910  11.017  0.00  0.00    +0.038 A 
ATOM     11  C   UNL     1       7.333  24.399  12.205  0.00  0.00    +0.047 A 
ATOM     12  C   UNL     1       8.729  23.994  12.245  0.00  0.00    +0.035 A 
ATOM     32  C   UNL     1       9.505  24.126  11.056  0.00  0.00    +0.024 A 
ATOM     33  C   UNL     1       8.929  24.643   9.840  0.00  0.00    +0.007 A 
ATOM     34  C   UNL     1       7.551  25.042   9.794  0.00  0.00    -0.029 A 
ATOM     35  C   UNL     1       6.985  25.584   8.461  0.00  0.00    +0.045 C 
ENDROOT
BRANCH  10   9
ATOM      4  C   UNL     1       3.036  27.259  12.947  0.00  0.00    +0.077 A 
ATOM      5  C   UNL     1       3.838  27.763  14.024  0.00  0.00    +0.048 A 
ATOM      6  C   UNL     1       5.200  27.388  14.049  0.00  0.00    +0.116 A 
ATOM      7  N   UNL     1       5.711  26.571  13.065  0.00  0.00    -0.223 NA
ATOM      8  C   UNL     1       4.910  26.101  12.041  0.00  0.00    +0.220 A 
ATOM      9  N   UNL     1       5.405  25.284  11.036  0.00  0.00    -0.283 N 
ATOM     36  H   UNL     1       4.779  24.952  10.302  0.00  0.00    +0.155 HD
ATOM     37  N   UNL     1       3.605  26.443  11.995  0.00  0.00    -0.214 NA
BRANCH   4   3
ATOM      1  C   UNL     1      -0.712  28.096  13.693  0.00  0.00    +0.020 A 
ATOM      2  C   UNL     1       0.686  27.801  13.908  0.00  0.00    +0.013 A 
ATOM      3  C   UNL     1       1.580  27.568  12.781  0.00  0.00    +0.019 A 
ATOM     38  C   UNL     1       1.024  27.644  11.438  0.00  0.00    +0.120 A 
ATOM     39  N   UNL     1      -0.326  27.930  11.262  0.00  0.00    -0.263 NA
ATOM     40  C   UNL     1      -1.196  28.153  12.339  0.00  0.00    +0.111 A 
ENDBRANCH   4   3
ENDBRANCH  10   9
BRANCH  12  13
ATOM     13  N   UNL     1       9.373  23.460  13.419  0.00  0.00    -0.281 N 
ATOM     14  C   UNL     1      10.332  22.463  13.486  0.00  0.00    +0.248 C 
ATOM     30  O   UNL     1      10.629  21.727  12.557  0.00  0.00    -0.270 OA
ATOM     31  H   UNL     1       9.086  23.866  14.310  0.00  0.00    +0.155 HD
BRANCH  14  15
ATOM     15  C   UNL     1      11.057  22.243  14.775  0.00  0.00    +0.037 A 
ATOM     16  C   UNL     1      12.349  21.554  14.812  0.00  0.00    +0.013 A 
ATOM     17  C   UNL     1      13.019  21.340  16.071  0.00  0.00    +0.005 A 
ATOM     18  C   UNL     1      12.396  21.817  17.303  0.00  0.00    -0.033 A 
ATOM     28  C   UNL     1      11.116  22.502  17.237  0.00  0.00    +0.005 A 
ATOM     29  C   UNL     1      10.456  22.713  16.005  0.00  0.00    +0.013 A 
BRANCH  18  19
ATOM     19  C   UNL     1      13.028  21.613  18.693  0.00  0.00    +0.119 C 
BRANCH  19  20
ATOM     20  N   UNL     1      14.511  21.756  18.796  0.00  0.00    -0.302 NA
ATOM     21  C   UNL     1      14.993  21.708  20.249  0.00  0.00    +0.066 C 
ATOM     22  C   UNL     1      16.548  21.836  20.338  0.00  0.00    -0.064 C 
ATOM     23  N   UNL     1      16.990  23.136  19.664  0.00  0.00    +0.379 N 
ATOM     24  C   UNL     1      18.446  23.288  19.796  0.00  0.00    -0.096 C 
ATOM     25  H   UNL     1      16.510  23.981  20.212  0.00  0.00    -0.082 HD
ATOM     26  C   UNL     1      16.513  23.193  18.219  0.00  0.00    -0.064 C 
ATOM     27  C   UNL     1      14.969  23.036  18.141  0.00  0.00    +0.066 C 
ENDBRANCH  19  20
ENDBRANCH  18  19
ENDBRANCH  14  15
ENDBRANCH  12  13
TORSDOF 6
ENDMDL
