MODEL 1
REMARK VINA RESULT:      -7.5      0.000      0.000
REMARK  Name = C:\Users\Docking\Desktop\test protocol\1iep_ligandH.pdb
REMARK  8 active torsions:
REMARK  status: ('A' for Active; 'I' for Inactive)
REMARK    1  A    between atoms: _5  and  _11
REMARK    2  A    between atoms: _19  and  _21
REMARK    3  A    between atoms: _22  and  _66
REMARK    4  A    between atoms: _27  and  _30
REMARK    5  A    between atoms: _32  and  _33
REMARK    6  A    between atoms: _38  and  _43
REMARK    7  A    between atoms: _43  and  _46
REMARK    8  A    between atoms: _53  and  _55
REMARK                            x       y       z     vdW  Elec       q    Type
REMARK                         _______ _______ _______ _____ _____    ______ ____
ROOT
ATOM     10  C   UNL     1      18.104   1.078  35.805  0.00  0.00    +0.038 A 
ATOM     11  C   UNL     1      16.984   1.601  35.109  0.00  0.00    +0.047 A 
ATOM     12  C   UNL     1      16.025   2.471  35.772  0.00  0.00    +0.035 A 
ATOM     32  C   UNL     1      16.240   2.791  37.144  0.00  0.00    +0.024 A 
ATOM     33  C   UNL     1      17.373   2.268  37.867  0.00  0.00    +0.007 A 
ATOM     34  C   UNL     1      18.320   1.407  37.219  0.00  0.00    -0.029 A 
ATOM     35  C   UNL     1      19.512   0.870  38.044  0.00  0.00    +0.045 C 
ENDROOT
BRANCH  10   9
ATOM      4  C   UNL     1      21.479   0.320  32.478  0.00  0.00    +0.077 A 
ATOM      5  C   UNL     1      21.451   1.690  32.052  0.00  0.00    +0.048 A 
ATOM      6  C   UNL     1      20.548   2.555  32.710  0.00  0.00    +0.116 A 
ATOM      7  N   UNL     1      19.740   2.076  33.717  0.00  0.00    -0.223 NA
ATOM      8  C   UNL     1      19.791   0.749  34.103  0.00  0.00    +0.220 A 
ATOM      9  N   UNL     1      18.993   0.247  35.119  0.00  0.00    -0.283 N 
ATOM     36  H   UNL     1      19.055  -0.739  35.368  0.00  0.00    +0.155 HD
ATOM     37  N   UNL     1      20.643  -0.098  33.489  0.00  0.00    -0.214 NA
BRANCH   4   3
ATOM      1  C   UNL     1      24.614  -1.499  31.006  0.00  0.00    +0.020 A 
ATOM      2  C   UNL     1      23.785  -0.465  31.581  0.00  0.00    +0.013 A 
ATOM      3  C   UNL     1      22.382  -0.716  31.882  0.00  0.00    +0.019 A 
ATOM     38  C   UNL     1      21.843  -2.035  31.588  0.00  0.00    +0.120 A 
ATOM     39  N   UNL     1      22.664  -3.011  31.033  0.00  0.00    -0.263 NA
ATOM     40  C   UNL     1      24.016  -2.781  30.737  0.00  0.00    +0.111 A 
ENDBRANCH   4   3
ENDBRANCH  10   9
BRANCH  12  13
ATOM     13  N   UNL     1      14.865   3.025  35.120  0.00  0.00    -0.281 N 
ATOM     14  C   UNL     1      13.645   2.411  34.885  0.00  0.00    +0.248 C 
ATOM     30  O   UNL     1      13.439   1.214  35.013  0.00  0.00    -0.270 OA
ATOM     31  H   UNL     1      14.953   3.986  34.790  0.00  0.00    +0.155 HD
BRANCH  14  15
ATOM     15  C   UNL     1      12.492   3.246  34.430  0.00  0.00    +0.037 A 
ATOM     16  C   UNL     1      12.454   4.689  34.679  0.00  0.00    +0.013 A 
ATOM     17  C   UNL     1      11.322   5.469  34.244  0.00  0.00    +0.005 A 
ATOM     18  C   UNL     1      10.219   4.805  33.553  0.00  0.00    -0.033 A 
ATOM     28  C   UNL     1      10.285   3.373  33.314  0.00  0.00    +0.005 A 
ATOM     29  C   UNL     1      11.393   2.606  33.740  0.00  0.00    +0.013 A 
BRANCH  18  19
ATOM     19  C   UNL     1       8.962   5.554  33.073  0.00  0.00    +0.119 C 
BRANCH  19  20
ATOM     20  N   UNL     1       8.776   5.703  31.599  0.00  0.00    -0.302 NA
ATOM     21  C   UNL     1       9.797   6.665  30.985  0.00  0.00    +0.066 C 
ATOM     22  C   UNL     1       9.602   6.792  29.439  0.00  0.00    -0.064 C 
ATOM     23  N   UNL     1       8.175   7.255  29.143  0.00  0.00    +0.379 N 
ATOM     24  C   UNL     1       8.007   7.430  27.693  0.00  0.00    -0.096 C 
ATOM     25  H   UNL     1       8.037   8.252  29.623  0.00  0.00    -0.082 HD
ATOM     26  C   UNL     1       7.154   6.305  29.752  0.00  0.00    -0.064 C 
ATOM     27  C   UNL     1       7.374   6.164  31.284  0.00  0.00    +0.066 C 
ENDBRANCH  19  20
ENDBRANCH  18  19
ENDBRANCH  14  15
ENDBRANCH  12  13
TORSDOF 6
ENDMDL
MODEL 2
REMARK VINA RESULT:      -7.4     14.913     20.786
REMARK  Name = C:\Users\Docking\Desktop\test protocol\1iep_ligandH.pdb
REMARK  8 active torsions:
REMARK  status: ('A' for Active; 'I' for Inactive)
REMARK    1  A    between atoms: _5  and  _11
REMARK    2  A    between atoms: _19  and  _21
REMARK    3  A    between atoms: _22  and  _66
REMARK    4  A    between atoms: _27  and  _30
REMARK    5  A    between atoms: _32  and  _33
REMARK    6  A    between atoms: _38  and  _43
REMARK    7  A    between atoms: _43  and  _46
REMARK    8  A    between atoms: _53  and  _55
REMARK                            x       y       z     vdW  Elec       q    Type
REMARK                         _______ _______ _______ _____ _____    ______ ____
ROOT
ATOM     10  C   UNL     1      15.433  13.332  23.477  0.00  0.00    +0.038 A 
ATOM     11  C   UNL     1      16.370  14.384  23.315  0.00  0.00    +0.047 A 
ATOM     12  C   UNL     1      17.626  14.172  22.613  0.00  0.00    +0.035 A 
ATOM     32  C   UNL     1      17.894  12.875  22.085  0.00  0.00    +0.024 A 
ATOM     33  C   UNL     1      16.954  11.794  22.242  0.00  0.00    +0.007 A 
ATOM     34  C   UNL     1      15.714  11.997  22.936  0.00  0.00    -0.029 A 
ATOM     35  C   UNL     1      14.746  10.800  23.079  0.00  0.00    +0.045 C 
ENDROOT
BRANCH  10   9
ATOM      4  C   UNL     1      10.870  14.813  23.617  0.00  0.00    +0.077 A 
ATOM      5  C   UNL     1      10.865  15.121  22.215  0.00  0.00    +0.048 A 
ATOM      6  C   UNL     1      12.059  14.890  21.496  0.00  0.00    +0.116 A 
ATOM      7  N   UNL     1      13.169  14.389  22.140  0.00  0.00    -0.223 NA
ATOM      8  C   UNL     1      13.141  14.104  23.493  0.00  0.00    +0.220 A 
ATOM      9  N   UNL     1      14.243  13.592  24.160  0.00  0.00    -0.283 N 
ATOM     36  H   UNL     1      14.184  13.402  25.160  0.00  0.00    +0.155 HD
ATOM     37  N   UNL     1      12.013  14.317  24.203  0.00  0.00    -0.214 NA
BRANCH   4   3
ATOM      1  C   UNL     1       8.033  16.436  25.766  0.00  0.00    +0.020 A 
ATOM      2  C   UNL     1       9.183  16.312  24.900  0.00  0.00    +0.013 A 
ATOM      3  C   UNL     1       9.684  14.999  24.511  0.00  0.00    +0.019 A 
ATOM     38  C   UNL     1       8.993  13.824  25.019  0.00  0.00    +0.120 A 
ATOM     39  N   UNL     1       7.889  13.975  25.853  0.00  0.00    -0.263 NA
ATOM     40  C   UNL     1       7.399  15.232  26.235  0.00  0.00    +0.111 A 
ENDBRANCH   4   3
ENDBRANCH  10   9
BRANCH  12  13
ATOM     13  N   UNL     1      18.619  15.200  22.424  0.00  0.00    -0.281 N 
ATOM     14  C   UNL     1      18.469  16.424  21.793  0.00  0.00    +0.248 C 
ATOM     30  O   UNL     1      17.509  16.732  21.102  0.00  0.00    -0.270 OA
ATOM     31  H   UNL     1      19.546  15.002  22.802  0.00  0.00    +0.155 HD
BRANCH  14  15
ATOM     15  C   UNL     1      19.548  17.448  21.937  0.00  0.00    +0.037 A 
ATOM     16  C   UNL     1      19.296  18.729  22.602  0.00  0.00    +0.013 A 
ATOM     17  C   UNL     1      20.350  19.706  22.713  0.00  0.00    +0.005 A 
ATOM     18  C   UNL     1      21.667  19.405  22.157  0.00  0.00    -0.033 A 
ATOM     28  C   UNL     1      21.891  18.125  21.506  0.00  0.00    +0.005 A 
ATOM     29  C   UNL     1      20.860  17.165  21.395  0.00  0.00    +0.013 A 
BRANCH  18  19
ATOM     19  C   UNL     1      22.844  20.397  22.211  0.00  0.00    +0.119 C 
BRANCH  19  20
ATOM     20  N   UNL     1      23.792  20.272  23.358  0.00  0.00    -0.302 NA
ATOM     21  C   UNL     1      24.208  21.638  23.911  0.00  0.00    +0.066 C 
ATOM     22  C   UNL     1      25.181  21.488  25.125  0.00  0.00    -0.064 C 
ATOM     23  N   UNL     1      26.408  20.682  24.694  0.00  0.00    +0.379 N 
ATOM     24  C   UNL     1      27.353  20.589  25.817  0.00  0.00    -0.096 C 
ATOM     25  H   UNL     1      26.912  21.245  23.874  0.00  0.00    -0.082 HD
ATOM     26  C   UNL     1      26.004  19.323  24.140  0.00  0.00    -0.064 C 
ATOM     27  C   UNL     1      25.013  19.483  22.954  0.00  0.00    +0.066 C 
ENDBRANCH  19  20
ENDBRANCH  18  19
ENDBRANCH  14  15
ENDBRANCH  12  13
TORSDOF 6
ENDMDL
MODEL 3
REMARK VINA RESULT:      -7.3      1.395      2.099
REMARK  Name = C:\Users\Docking\Desktop\test protocol\1iep_ligandH.pdb
REMARK  8 active torsions:
REMARK  status: ('A' for Active; 'I' for Inactive)
REMARK    1  A    between atoms: _5  and  _11
REMARK    2  A    between atoms: _19  and  _21
REMARK    3  A    between atoms: _22  and  _66
REMARK    4  A    between atoms: _27  and  _30
REMARK    5  A    between atoms: _32  and  _33
REMARK    6  A    between atoms: _38  and  _43
REMARK    7  A    between atoms: _43  and  _46
REMARK    8  A    between atoms: _53  and  _55
REMARK                            x       y       z     vdW  Elec       q    Type
REMARK                         _______ _______ _______ _____ _____    ______ ____
ROOT
ATOM     10  C   UNL     1      18.236   1.077  35.807  0.00  0.00    +0.038 A 
ATOM     11  C   UNL     1      17.095   1.527  35.095  0.00  0.00    +0.047 A 
ATOM     12  C   UNL     1      16.117   2.404  35.718  0.00  0.00    +0.035 A 
ATOM     32  C   UNL     1      16.334   2.806  37.069  0.00  0.00    +0.024 A 
ATOM     33  C   UNL     1      17.488   2.357  37.808  0.00  0.00    +0.007 A 
ATOM     34  C   UNL     1      18.455   1.490  37.198  0.00  0.00    -0.029 A 
ATOM     35  C   UNL     1      19.669   1.034  38.040  0.00  0.00    +0.045 C 
ENDROOT
BRANCH  10   9
ATOM      4  C   UNL     1      21.595   0.230  32.484  0.00  0.00    +0.077 A 
ATOM      5  C   UNL     1      21.517   1.570  31.978  0.00  0.00    +0.048 A 
ATOM      6  C   UNL     1      20.594   2.444  32.596  0.00  0.00    +0.116 A 
ATOM      7  N   UNL     1      19.814   2.000  33.642  0.00  0.00    -0.223 NA
ATOM      8  C   UNL     1      19.913   0.701  34.104  0.00  0.00    +0.220 A 
ATOM      9  N   UNL     1      19.143   0.235  35.159  0.00  0.00    -0.283 N 
ATOM     36  H   UNL     1      19.241  -0.733  35.466  0.00  0.00    +0.155 HD
ATOM     37  N   UNL     1      20.785  -0.154  33.530  0.00  0.00    -0.214 NA
BRANCH   4   3
ATOM      1  C   UNL     1      23.034  -3.136  31.104  0.00  0.00    +0.020 A 
ATOM      2  C   UNL     1      22.097  -2.170  31.630  0.00  0.00    +0.013 A 
ATOM      3  C   UNL     1      22.523  -0.810  31.938  0.00  0.00    +0.019 A 
ATOM     38  C   UNL     1      23.915  -0.457  31.699  0.00  0.00    +0.120 A 
ATOM     39  N   UNL     1      24.794  -1.409  31.193  0.00  0.00    -0.263 NA
ATOM     40  C   UNL     1      24.396  -2.721  30.895  0.00  0.00    +0.111 A 
ENDBRANCH   4   3
ENDBRANCH  10   9
BRANCH  12  13
ATOM     13  N   UNL     1      14.935   2.887  35.048  0.00  0.00    -0.281 N 
ATOM     14  C   UNL     1      13.622   2.492  35.246  0.00  0.00    +0.248 C 
ATOM     30  O   UNL     1      13.286   1.506  35.884  0.00  0.00    -0.270 OA
ATOM     31  H   UNL     1      15.085   3.607  34.341  0.00  0.00    +0.155 HD
BRANCH  14  15
ATOM     15  C   UNL     1      12.525   3.303  34.636  0.00  0.00    +0.037 A 
ATOM     16  C   UNL     1      12.471   4.757  34.803  0.00  0.00    +0.013 A 
ATOM     17  C   UNL     1      11.392   5.513  34.218  0.00  0.00    +0.005 A 
ATOM     18  C   UNL     1      10.357   4.814  33.459  0.00  0.00    -0.033 A 
ATOM     28  C   UNL     1      10.438   3.371  33.305  0.00  0.00    +0.005 A 
ATOM     29  C   UNL     1      11.494   2.627  33.877  0.00  0.00    +0.013 A 
BRANCH  18  19
ATOM     19  C   UNL     1       9.158   5.537  32.818  0.00  0.00    +0.119 C 
BRANCH  19  20
ATOM     20  N   UNL     1       7.945   4.718  32.521  0.00  0.00    -0.302 NA
ATOM     21  C   UNL     1       7.287   5.125  31.200  0.00  0.00    +0.066 C 
ATOM     22  C   UNL     1       6.032   4.243  30.894  0.00  0.00    -0.064 C 
ATOM     23  N   UNL     1       5.039   4.356  32.051  0.00  0.00    +0.379 N 
ATOM     24  C   UNL     1       3.833   3.574  31.740  0.00  0.00    -0.096 C 
ATOM     25  H   UNL     1       4.736   5.426  32.134  0.00  0.00    -0.082 HD
ATOM     26  C   UNL     1       5.686   3.956  33.369  0.00  0.00    -0.064 C 
ATOM     27  C   UNL     1       6.948   4.819  33.649  0.00  0.00    +0.066 C 
ENDBRANCH  19  20
ENDBRANCH  18  19
ENDBRANCH  14  15
ENDBRANCH  12  13
TORSDOF 6
ENDMDL
MODEL 4
REMARK VINA RESULT:      -7.1     15.554     21.087
REMARK  Name = C:\Users\Docking\Desktop\test protocol\1iep_ligandH.pdb
REMARK  8 active torsions:
REMARK  status: ('A' for Active; 'I' for Inactive)
REMARK    1  A    between atoms: _5  and  _11
REMARK    2  A    between atoms: _19  and  _21
REMARK    3  A    between atoms: _22  and  _66
REMARK    4  A    between atoms: _27  and  _30
REMARK    5  A    between atoms: _32  and  _33
REMARK    6  A    between atoms: _38  and  _43
REMARK    7  A    between atoms: _43  and  _46
REMARK    8  A    between atoms: _53  and  _55
REMARK                            x       y       z     vdW  Elec       q    Type
REMARK                         _______ _______ _______ _____ _____    ______ ____
ROOT
ATOM     10  C   UNL     1      15.471  13.383  23.475  0.00  0.00    +0.038 A 
ATOM     11  C   UNL     1      16.349  14.480  23.285  0.00  0.00    +0.047 A 
ATOM     12  C   UNL     1      17.612  14.319  22.581  0.00  0.00    +0.035 A 
ATOM     32  C   UNL     1      17.948  13.026  22.083  0.00  0.00    +0.024 A 
ATOM     33  C   UNL     1      17.067  11.900  22.269  0.00  0.00    +0.007 A 
ATOM     34  C   UNL     1      15.821  12.052  22.964  0.00  0.00    -0.029 A 
ATOM     35  C   UNL     1      14.919  10.808  23.140  0.00  0.00    +0.045 C 
ENDROOT
BRANCH  10   9
ATOM      4  C   UNL     1      10.879  14.772  23.633  0.00  0.00    +0.077 A 
ATOM      5  C   UNL     1      10.879  15.132  22.245  0.00  0.00    +0.048 A 
ATOM      6  C   UNL     1      12.082  14.951  21.527  0.00  0.00    +0.116 A 
ATOM      7  N   UNL     1      13.197  14.446  22.161  0.00  0.00    -0.223 NA
ATOM      8  C   UNL     1      13.164  14.110  23.502  0.00  0.00    +0.220 A 
ATOM      9  N   UNL     1      14.270  13.594  24.158  0.00  0.00    -0.283 N 
ATOM     36  H   UNL     1      14.208  13.365  25.150  0.00  0.00    +0.155 HD
ATOM     37  N   UNL     1      12.027  14.275  24.210  0.00  0.00    -0.214 NA
BRANCH   4   3
ATOM      1  C   UNL     1       8.023  16.257  25.856  0.00  0.00    +0.020 A 
ATOM      2  C   UNL     1       9.183  16.186  24.997  0.00  0.00    +0.013 A 
ATOM      3  C   UNL     1       9.683  14.901  24.524  0.00  0.00    +0.019 A 
ATOM     38  C   UNL     1       8.981  13.697  24.942  0.00  0.00    +0.120 A 
ATOM     39  N   UNL     1       7.868  13.796  25.771  0.00  0.00    -0.263 NA
ATOM     40  C   UNL     1       7.378  15.026  26.233  0.00  0.00    +0.111 A 
ENDBRANCH   4   3
ENDBRANCH  10   9
BRANCH  12  13
ATOM     13  N   UNL     1      18.548  15.394  22.364  0.00  0.00    -0.281 N 
ATOM     14  C   UNL     1      18.285  16.670  21.894  0.00  0.00    +0.248 C 
ATOM     30  O   UNL     1      17.229  17.015  21.384  0.00  0.00    -0.270 OA
ATOM     31  H   UNL     1      19.523  15.190  22.584  0.00  0.00    +0.155 HD
BRANCH  14  15
ATOM     15  C   UNL     1      19.353  17.711  21.992  0.00  0.00    +0.037 A 
ATOM     16  C   UNL     1      19.064  19.051  22.509  0.00  0.00    +0.013 A 
ATOM     17  C   UNL     1      20.110  20.041  22.577  0.00  0.00    +0.005 A 
ATOM     18  C   UNL     1      21.456  19.693  22.127  0.00  0.00    -0.033 A 
ATOM     28  C   UNL     1      21.716  18.355  21.623  0.00  0.00    +0.005 A 
ATOM     29  C   UNL     1      20.693  17.382  21.554  0.00  0.00    +0.013 A 
BRANCH  18  19
ATOM     19  C   UNL     1      22.627  20.693  22.143  0.00  0.00    +0.119 C 
BRANCH  19  20
ATOM     20  N   UNL     1      22.402  22.020  21.498  0.00  0.00    -0.302 NA
ATOM     21  C   UNL     1      22.338  21.913  19.972  0.00  0.00    +0.066 C 
ATOM     22  C   UNL     1      22.080  23.308  19.314  0.00  0.00    -0.064 C 
ATOM     23  N   UNL     1      23.178  24.282  19.743  0.00  0.00    +0.379 N 
ATOM     24  C   UNL     1      22.971  25.578  19.080  0.00  0.00    -0.096 C 
ATOM     25  H   UNL     1      24.152  23.872  19.386  0.00  0.00    -0.082 HD
ATOM     26  C   UNL     1      23.251  24.392  21.259  0.00  0.00    -0.064 C 
ATOM     27  C   UNL     1      23.479  22.997  21.904  0.00  0.00    +0.066 C 
ENDBRANCH  19  20
ENDBRANCH  18  19
ENDBRANCH  14  15
ENDBRANCH  12  13
TORSDOF 6
ENDMDL
MODEL 5
REMARK VINA RESULT:      -6.9     16.141     19.179
REMARK  Name = C:\Users\Docking\Desktop\test protocol\1iep_ligandH.pdb
REMARK  8 active torsions:
REMARK  status: ('A' for Active; 'I' for Inactive)
REMARK    1  A    between atoms: _5  and  _11
REMARK    2  A    between atoms: _19  and  _21
REMARK    3  A    between atoms: _22  and  _66
REMARK    4  A    between atoms: _27  and  _30
REMARK    5  A    between atoms: _32  and  _33
REMARK    6  A    between atoms: _38  and  _43
REMARK    7  A    between atoms: _43  and  _46
REMARK    8  A    between atoms: _53  and  _55
REMARK                            x       y       z     vdW  Elec       q    Type
REMARK                         _______ _______ _______ _____ _____    ______ ____
ROOT
ATOM     10  C   UNL     1      18.204  15.472  21.681  0.00  0.00    +0.038 A 
ATOM     11  C   UNL     1      16.830  15.809  21.784  0.00  0.00    +0.047 A 
ATOM     12  C   UNL     1      15.905  14.978  22.539  0.00  0.00    +0.035 A 
ATOM     32  C   UNL     1      16.415  13.812  23.181  0.00  0.00    +0.024 A 
ATOM     33  C   UNL     1      17.808  13.453  23.086  0.00  0.00    +0.007 A 
ATOM     34  C   UNL     1      18.724  14.268  22.339  0.00  0.00    -0.029 A 
ATOM     35  C   UNL     1      20.206  13.832  22.266  0.00  0.00    +0.045 C 
ENDROOT
BRANCH  10   9
ATOM      4  C   UNL     1      20.734  19.513  21.126  0.00  0.00    +0.077 A 
ATOM      5  C   UNL     1      20.320  20.017  22.403  0.00  0.00    +0.048 A 
ATOM      6  C   UNL     1      19.450  19.209  23.169  0.00  0.00    +0.116 A 
ATOM      7  N   UNL     1      19.032  17.989  22.684  0.00  0.00    -0.223 NA
ATOM      8  C   UNL     1      19.448  17.533  21.447  0.00  0.00    +0.220 A 
ATOM      9  N   UNL     1      19.046  16.306  20.943  0.00  0.00    -0.283 N 
ATOM     36  H   UNL     1      19.370  16.008  20.023  0.00  0.00    +0.155 HD
ATOM     37  N   UNL     1      20.278  18.286  20.696  0.00  0.00    -0.214 NA
BRANCH   4   3
ATOM      1  C   UNL     1      23.304  22.084  19.683  0.00  0.00    +0.020 A 
ATOM      2  C   UNL     1      22.430  21.410  20.615  0.00  0.00    +0.013 A 
ATOM      3  C   UNL     1      21.654  20.248  20.201  0.00  0.00    +0.019 A 
ATOM     38  C   UNL     1      21.787  19.789  18.827  0.00  0.00    +0.120 A 
ATOM     39  N   UNL     1      22.636  20.459  17.951  0.00  0.00    -0.263 NA
ATOM     40  C   UNL     1      23.386  21.580  18.338  0.00  0.00    +0.111 A 
ENDBRANCH   4   3
ENDBRANCH  10   9
BRANCH  12  13
ATOM     13  N   UNL     1      14.499  15.266  22.672  0.00  0.00    -0.281 N 
ATOM     14  C   UNL     1      13.430  14.412  22.452  0.00  0.00    +0.248 C 
ATOM     30  O   UNL     1      13.516  13.326  21.898  0.00  0.00    -0.270 OA
ATOM     31  H   UNL     1      14.262  16.214  22.964  0.00  0.00    +0.155 HD
BRANCH  14  15
ATOM     15  C   UNL     1      12.067  14.831  22.899  0.00  0.00    +0.037 A 
ATOM     16  C   UNL     1      11.608  14.586  24.269  0.00  0.00    +0.013 A 
ATOM     17  C   UNL     1      10.282  14.985  24.669  0.00  0.00    +0.005 A 
ATOM     18  C   UNL     1       9.406  15.635  23.698  0.00  0.00    -0.033 A 
ATOM     28  C   UNL     1       9.889  15.871  22.347  0.00  0.00    +0.005 A 
ATOM     29  C   UNL     1      11.187  15.481  21.951  0.00  0.00    +0.013 A 
BRANCH  18  19
ATOM     19  C   UNL     1       7.968  16.076  24.031  0.00  0.00    +0.119 C 
BRANCH  19  20
ATOM     20  N   UNL     1       7.539  17.425  23.558  0.00  0.00    -0.302 NA
ATOM     21  C   UNL     1       8.187  18.551  24.369  0.00  0.00    +0.066 C 
ATOM     22  C   UNL     1       7.745  19.957  23.845  0.00  0.00    -0.064 C 
ATOM     23  N   UNL     1       6.220  20.061  23.898  0.00  0.00    +0.379 N 
ATOM     24  C   UNL     1       5.804  21.401  23.461  0.00  0.00    -0.096 C 
ATOM     25  H   UNL     1       5.909  19.940  24.962  0.00  0.00    -0.082 HD
ATOM     26  C   UNL     1       5.567  18.943  23.097  0.00  0.00    -0.064 C 
ATOM     27  C   UNL     1       6.036  17.551  23.606  0.00  0.00    +0.066 C 
ENDBRANCH  19  20
ENDBRANCH  18  19
ENDBRANCH  14  15
ENDBRANCH  12  13
TORSDOF 6
ENDMDL
