MODEL 1
REMARK VINA RESULT:      -8.5      0.000      0.000
REMARK  Name = C:\Users\Docking\Desktop\test protocol\1iep_ligandH.pdb
REMARK  8 active torsions:
REMARK  status: ('A' for Active; 'I' for Inactive)
REMARK    1  A    between atoms: _5  and  _11
REMARK    2  A    between atoms: _19  and  _21
REMARK    3  A    between atoms: _22  and  _66
REMARK    4  A    between atoms: _27  and  _30
REMARK    5  A    between atoms: _32  and  _33
REMARK    6  A    between atoms: _38  and  _43
REMARK    7  A    between atoms: _43  and  _46
REMARK    8  A    between atoms: _53  and  _55
REMARK                            x       y       z     vdW  Elec       q    Type
REMARK                         _______ _______ _______ _____ _____    ______ ____
ROOT
ATOM     10  C   UNL     1     122.002  43.776  21.095  0.00  0.00    +0.038 A 
ATOM     11  C   UNL     1     123.279  43.430  20.585  0.00  0.00    +0.047 A 
ATOM     12  C   UNL     1     123.420  42.510  19.468  0.00  0.00    +0.035 A 
ATOM     32  C   UNL     1     122.238  41.962  18.890  0.00  0.00    +0.024 A 
ATOM     33  C   UNL     1     120.931  42.302  19.396  0.00  0.00    +0.007 A 
ATOM     34  C   UNL     1     120.786  43.207  20.500  0.00  0.00    -0.029 A 
ATOM     35  C   UNL     1     119.360  43.530  21.005  0.00  0.00    +0.045 C 
ENDROOT
BRANCH  10   9
ATOM      4  C   UNL     1     121.864  48.215  22.915  0.00  0.00    +0.077 A 
ATOM      5  C   UNL     1     121.982  48.815  21.617  0.00  0.00    +0.048 A 
ATOM      6  C   UNL     1     122.083  47.946  20.508  0.00  0.00    +0.116 A 
ATOM      7  N   UNL     1     122.066  46.580  20.694  0.00  0.00    -0.223 NA
ATOM      8  C   UNL     1     121.952  46.035  21.959  0.00  0.00    +0.220 A 
ATOM      9  N   UNL     1     121.925  44.665  22.169  0.00  0.00    -0.283 N 
ATOM     36  H   UNL     1     121.847  44.302  23.119  0.00  0.00    +0.155 HD
ATOM     37  N   UNL     1     121.856  46.843  23.035  0.00  0.00    -0.214 NA
BRANCH   4   3
ATOM      1  C   UNL     1     120.576  50.652  25.690  0.00  0.00    +0.020 A 
ATOM      2  C   UNL     1     120.644  49.918  24.448  0.00  0.00    +0.013 A 
ATOM      3  C   UNL     1     121.745  49.000  24.184  0.00  0.00    +0.019 A 
ATOM     38  C   UNL     1     122.769  48.847  25.207  0.00  0.00    +0.120 A 
ATOM     39  N   UNL     1     122.678  49.568  26.393  0.00  0.00    -0.263 NA
ATOM     40  C   UNL     1     121.624  50.455  26.657  0.00  0.00    +0.111 A 
ENDBRANCH   4   3
ENDBRANCH  10   9
BRANCH  12  13
ATOM     13  N   UNL     1     124.692  42.116  18.913  0.00  0.00    -0.281 N 
ATOM     14  C   UNL     1     125.421  40.970  19.185  0.00  0.00    +0.248 C 
ATOM     30  O   UNL     1     125.190  40.208  20.112  0.00  0.00    -0.270 OA
ATOM     31  H   UNL     1     125.104  42.760  18.238  0.00  0.00    +0.155 HD
BRANCH  14  15
ATOM     15  C   UNL     1     126.583  40.629  18.309  0.00  0.00    +0.037 A 
ATOM     16  C   UNL     1     127.889  41.266  18.497  0.00  0.00    +0.013 A 
ATOM     17  C   UNL     1     128.989  40.932  17.627  0.00  0.00    +0.005 A 
ATOM     18  C   UNL     1     128.787  39.953  16.562  0.00  0.00    -0.033 A 
ATOM     28  C   UNL     1     127.482  39.332  16.401  0.00  0.00    +0.005 A 
ATOM     29  C   UNL     1     126.402  39.658  17.251  0.00  0.00    +0.013 A 
BRANCH  18  19
ATOM     19  C   UNL     1     129.898  39.551  15.574  0.00  0.00    +0.119 C 
BRANCH  19  20
ATOM     20  N   UNL     1     129.667  39.846  14.128  0.00  0.00    -0.302 NA
ATOM     21  C   UNL     1     130.627  39.068  13.223  0.00  0.00    +0.066 C 
ATOM     22  C   UNL     1     130.356  39.371  11.713  0.00  0.00    -0.064 C 
ATOM     23  N   UNL     1     130.481  40.876  11.468  0.00  0.00    +0.379 N 
ATOM     24  C   UNL     1     130.284  41.158  10.039  0.00  0.00    -0.096 C 
ATOM     25  H   UNL     1     131.521  41.177  11.733  0.00  0.00    -0.082 HD
ATOM     26  C   UNL     1     129.532  41.657  12.367  0.00  0.00    -0.064 C 
ATOM     27  C   UNL     1     129.790  41.326  13.863  0.00  0.00    +0.066 C 
ENDBRANCH  19  20
ENDBRANCH  18  19
ENDBRANCH  14  15
ENDBRANCH  12  13
TORSDOF 6
ENDMDL
MODEL 2
REMARK VINA RESULT:      -8.3     40.835     44.140
REMARK  Name = C:\Users\Docking\Desktop\test protocol\1iep_ligandH.pdb
REMARK  8 active torsions:
REMARK  status: ('A' for Active; 'I' for Inactive)
REMARK    1  A    between atoms: _5  and  _11
REMARK    2  A    between atoms: _19  and  _21
REMARK    3  A    between atoms: _22  and  _66
REMARK    4  A    between atoms: _27  and  _30
REMARK    5  A    between atoms: _32  and  _33
REMARK    6  A    between atoms: _38  and  _43
REMARK    7  A    between atoms: _43  and  _46
REMARK    8  A    between atoms: _53  and  _55
REMARK                            x       y       z     vdW  Elec       q    Type
REMARK                         _______ _______ _______ _____ _____    ______ ____
ROOT
ATOM     10  C   UNL     1     102.036  14.821   0.713  0.00  0.00    +0.038 A 
ATOM     11  C   UNL     1     102.373  13.750   1.580  0.00  0.00    +0.047 A 
ATOM     12  C   UNL     1     103.629  13.742   2.313  0.00  0.00    +0.035 A 
ATOM     32  C   UNL     1     104.519  14.842   2.141  0.00  0.00    +0.024 A 
ATOM     33  C   UNL     1     104.193  15.938   1.263  0.00  0.00    +0.007 A 
ATOM     34  C   UNL     1     102.956  15.951   0.536  0.00  0.00    -0.029 A 
ATOM     35  C   UNL     1     102.662  17.149  -0.397  0.00  0.00    +0.045 C 
ENDROOT
BRANCH  10   9
ATOM      4  C   UNL     1      99.274  13.385  -2.940  0.00  0.00    +0.077 A 
ATOM      5  C   UNL     1     100.360  12.684  -3.563  0.00  0.00    +0.048 A 
ATOM      6  C   UNL     1     101.614  12.723  -2.914  0.00  0.00    +0.116 A 
ATOM      7  N   UNL     1     101.761  13.415  -1.732  0.00  0.00    -0.223 NA
ATOM      8  C   UNL     1     100.694  14.082  -1.159  0.00  0.00    +0.220 A 
ATOM      9  N   UNL     1     100.816  14.778   0.034  0.00  0.00    -0.283 N 
ATOM     36  H   UNL     1     100.007  15.263   0.421  0.00  0.00    +0.155 HD
ATOM     37  N   UNL     1      99.485  14.061  -1.759  0.00  0.00    -0.214 NA
BRANCH   4   3
ATOM      1  C   UNL     1      96.207  14.116  -5.256  0.00  0.00    +0.020 A 
ATOM      2  C   UNL     1      97.563  14.098  -4.757  0.00  0.00    +0.013 A 
ATOM      3  C   UNL     1      97.887  13.433  -3.501  0.00  0.00    +0.019 A 
ATOM     38  C   UNL     1      96.807  12.790  -2.768  0.00  0.00    +0.120 A 
ATOM     39  N   UNL     1      95.510  12.824  -3.272  0.00  0.00    -0.263 NA
ATOM     40  C   UNL     1      95.187  13.463  -4.479  0.00  0.00    +0.111 A 
ENDBRANCH   4   3
ENDBRANCH  10   9
BRANCH  12  13
ATOM     13  N   UNL     1     104.029  12.678   3.201  0.00  0.00    -0.281 N 
ATOM     14  C   UNL     1     103.363  12.209   4.322  0.00  0.00    +0.248 C 
ATOM     30  O   UNL     1     102.423  12.779   4.856  0.00  0.00    -0.270 OA
ATOM     31  H   UNL     1     104.909  12.215   2.976  0.00  0.00    +0.155 HD
BRANCH  14  15
ATOM     15  C   UNL     1     103.816  10.930   4.948  0.00  0.00    +0.037 A 
ATOM     16  C   UNL     1     103.395   9.632   4.415  0.00  0.00    +0.013 A 
ATOM     17  C   UNL     1     103.832   8.413   5.048  0.00  0.00    +0.005 A 
ATOM     18  C   UNL     1     104.698   8.488   6.222  0.00  0.00    -0.033 A 
ATOM     28  C   UNL     1     105.105   9.788   6.727  0.00  0.00    +0.005 A 
ATOM     29  C   UNL     1     104.678  10.985   6.109  0.00  0.00    +0.013 A 
BRANCH  18  19
ATOM     19  C   UNL     1     105.196   7.239   6.975  0.00  0.00    +0.119 C 
BRANCH  19  20
ATOM     20  N   UNL     1     104.261   6.614   7.957  0.00  0.00    -0.302 NA
ATOM     21  C   UNL     1     103.278   5.653   7.282  0.00  0.00    +0.066 C 
ATOM     22  C   UNL     1     102.322   4.991   8.327  0.00  0.00    -0.064 C 
ATOM     23  N   UNL     1     101.572   6.083   9.091  0.00  0.00    +0.379 N 
ATOM     24  C   UNL     1     100.629   5.463  10.034  0.00  0.00    -0.096 C 
ATOM     25  H   UNL     1     100.976   6.665   8.351  0.00  0.00    -0.082 HD
ATOM     26  C   UNL     1     102.541   7.045   9.763  0.00  0.00    -0.064 C 
ATOM     27  C   UNL     1     103.506   7.675   8.720  0.00  0.00    +0.066 C 
ENDBRANCH  19  20
ENDBRANCH  18  19
ENDBRANCH  14  15
ENDBRANCH  12  13
TORSDOF 6
ENDMDL
MODEL 3
REMARK VINA RESULT:      -8.2     30.559     34.524
REMARK  Name = C:\Users\Docking\Desktop\test protocol\1iep_ligandH.pdb
REMARK  8 active torsions:
REMARK  status: ('A' for Active; 'I' for Inactive)
REMARK    1  A    between atoms: _5  and  _11
REMARK    2  A    between atoms: _19  and  _21
REMARK    3  A    between atoms: _22  and  _66
REMARK    4  A    between atoms: _27  and  _30
REMARK    5  A    between atoms: _32  and  _33
REMARK    6  A    between atoms: _38  and  _43
REMARK    7  A    between atoms: _43  and  _46
REMARK    8  A    between atoms: _53  and  _55
REMARK                            x       y       z     vdW  Elec       q    Type
REMARK                         _______ _______ _______ _____ _____    ______ ____
ROOT
ATOM     10  C   UNL     1     114.623  17.325   1.638  0.00  0.00    +0.038 A 
ATOM     11  C   UNL     1     115.332  16.250   2.233  0.00  0.00    +0.047 A 
ATOM     12  C   UNL     1     115.620  15.034   1.487  0.00  0.00    +0.035 A 
ATOM     32  C   UNL     1     115.172  14.948   0.137  0.00  0.00    +0.024 A 
ATOM     33  C   UNL     1     114.449  16.031  -0.483  0.00  0.00    +0.007 A 
ATOM     34  C   UNL     1     114.161  17.232   0.248  0.00  0.00    -0.029 A 
ATOM     35  C   UNL     1     113.376  18.358  -0.464  0.00  0.00    +0.045 C 
ENDROOT
BRANCH  10   9
ATOM      4  C   UNL     1     112.225  19.698   5.052  0.00  0.00    +0.077 A 
ATOM      5  C   UNL     1     111.376  18.573   5.321  0.00  0.00    +0.048 A 
ATOM      6  C   UNL     1     111.585  17.405   4.554  0.00  0.00    +0.116 A 
ATOM      7  N   UNL     1     112.572  17.375   3.593  0.00  0.00    -0.223 NA
ATOM      8  C   UNL     1     113.371  18.479   3.357  0.00  0.00    +0.220 A 
ATOM      9  N   UNL     1     114.375  18.468   2.400  0.00  0.00    -0.283 N 
ATOM     36  H   UNL     1     114.938  19.305   2.252  0.00  0.00    +0.155 HD
ATOM     37  N   UNL     1     113.191  19.607   4.075  0.00  0.00    -0.214 NA
BRANCH   4   3
ATOM      1  C   UNL     1     111.257  22.465   7.642  0.00  0.00    +0.020 A 
ATOM      2  C   UNL     1     111.314  21.184   6.975  0.00  0.00    +0.013 A 
ATOM      3  C   UNL     1     112.129  21.002   5.780  0.00  0.00    +0.019 A 
ATOM     38  C   UNL     1     112.880  22.145   5.282  0.00  0.00    +0.120 A 
ATOM     39  N   UNL     1     112.804  23.367   5.944  0.00  0.00    -0.263 NA
ATOM     40  C   UNL     1     112.022  23.554   7.094  0.00  0.00    +0.111 A 
ENDBRANCH   4   3
ENDBRANCH  10   9
BRANCH  12  13
ATOM     13  N   UNL     1     116.328  13.907   2.040  0.00  0.00    -0.281 N 
ATOM     14  C   UNL     1     115.895  12.595   2.141  0.00  0.00    +0.248 C 
ATOM     30  O   UNL     1     114.742  12.232   1.963  0.00  0.00    -0.270 OA
ATOM     31  H   UNL     1     117.263  14.100   2.401  0.00  0.00    +0.155 HD
BRANCH  14  15
ATOM     15  C   UNL     1     116.884  11.535   2.506  0.00  0.00    +0.037 A 
ATOM     16  C   UNL     1     118.034  11.241   1.648  0.00  0.00    +0.013 A 
ATOM     17  C   UNL     1     118.963  10.201   2.015  0.00  0.00    +0.005 A 
ATOM     18  C   UNL     1     118.745   9.448   3.248  0.00  0.00    -0.033 A 
ATOM     28  C   UNL     1     117.598   9.764   4.083  0.00  0.00    +0.005 A 
ATOM     29  C   UNL     1     116.685  10.782   3.726  0.00  0.00    +0.013 A 
BRANCH  18  19
ATOM     19  C   UNL     1     119.673   8.308   3.707  0.00  0.00    +0.119 C 
BRANCH  19  20
ATOM     20  N   UNL     1     120.064   8.282   5.148  0.00  0.00    -0.302 NA
ATOM     21  C   UNL     1     121.540   8.635   5.349  0.00  0.00    +0.066 C 
ATOM     22  C   UNL     1     121.926   8.626   6.864  0.00  0.00    -0.064 C 
ATOM     23  N   UNL     1     121.612   7.252   7.459  0.00  0.00    +0.379 N 
ATOM     24  C   UNL     1     122.028   7.221   8.869  0.00  0.00    -0.096 C 
ATOM     25  H   UNL     1     122.223   6.498   6.909  0.00  0.00    -0.082 HD
ATOM     26  C   UNL     1     120.147   6.892   7.261  0.00  0.00    -0.064 C 
ATOM     27  C   UNL     1     119.766   6.933   5.754  0.00  0.00    +0.066 C 
ENDBRANCH  19  20
ENDBRANCH  18  19
ENDBRANCH  14  15
ENDBRANCH  12  13
TORSDOF 6
ENDMDL
MODEL 4
REMARK VINA RESULT:      -8.1     30.032     35.699
REMARK  Name = C:\Users\Docking\Desktop\test protocol\1iep_ligandH.pdb
REMARK  8 active torsions:
REMARK  status: ('A' for Active; 'I' for Inactive)
REMARK    1  A    between atoms: _5  and  _11
REMARK    2  A    between atoms: _19  and  _21
REMARK    3  A    between atoms: _22  and  _66
REMARK    4  A    between atoms: _27  and  _30
REMARK    5  A    between atoms: _32  and  _33
REMARK    6  A    between atoms: _38  and  _43
REMARK    7  A    between atoms: _43  and  _46
REMARK    8  A    between atoms: _53  and  _55
REMARK                            x       y       z     vdW  Elec       q    Type
REMARK                         _______ _______ _______ _____ _____    ______ ____
ROOT
ATOM     10  C   UNL     1     112.782  16.258  -3.846  0.00  0.00    +0.038 A 
ATOM     11  C   UNL     1     112.812  16.971  -2.620  0.00  0.00    +0.047 A 
ATOM     12  C   UNL     1     111.847  16.698  -1.567  0.00  0.00    +0.035 A 
ATOM     32  C   UNL     1     110.865  15.689  -1.795  0.00  0.00    +0.024 A 
ATOM     33  C   UNL     1     110.820  14.956  -3.036  0.00  0.00    +0.007 A 
ATOM     34  C   UNL     1     111.768  15.223  -4.079  0.00  0.00    -0.029 A 
ATOM     35  C   UNL     1     111.667  14.410  -5.391  0.00  0.00    +0.045 C 
ENDROOT
BRANCH  10   9
ATOM      4  C   UNL     1     115.460  19.377  -6.323  0.00  0.00    +0.077 A 
ATOM      5  C   UNL     1     114.897  20.501  -5.631  0.00  0.00    +0.048 A 
ATOM      6  C   UNL     1     113.916  20.233  -4.650  0.00  0.00    +0.116 A 
ATOM      7  N   UNL     1     113.534  18.935  -4.389  0.00  0.00    -0.223 NA
ATOM      8  C   UNL     1     114.096  17.875  -5.075  0.00  0.00    +0.220 A 
ATOM      9  N   UNL     1     113.733  16.561  -4.823  0.00  0.00    -0.283 N 
ATOM     36  H   UNL     1     114.166  15.807  -5.356  0.00  0.00    +0.155 HD
ATOM     37  N   UNL     1     115.034  18.104  -6.018  0.00  0.00    -0.214 NA
BRANCH   4   3
ATOM      1  C   UNL     1     118.616  20.502  -8.342  0.00  0.00    +0.020 A 
ATOM      2  C   UNL     1     117.629  20.425  -7.289  0.00  0.00    +0.013 A 
ATOM      3  C   UNL     1     116.509  19.497  -7.384  0.00  0.00    +0.019 A 
ATOM     38  C   UNL     1     116.417  18.654  -8.566  0.00  0.00    +0.120 A 
ATOM     39  N   UNL     1     117.381  18.750  -9.565  0.00  0.00    -0.263 NA
ATOM     40  C   UNL     1     118.462  19.641  -9.485  0.00  0.00    +0.111 A 
ENDBRANCH   4   3
ENDBRANCH  10   9
BRANCH  12  13
ATOM     13  N   UNL     1     111.823  17.395  -0.305  0.00  0.00    -0.281 N 
ATOM     14  C   UNL     1     112.644  17.196   0.793  0.00  0.00    +0.248 C 
ATOM     30  O   UNL     1     113.389  16.238   0.934  0.00  0.00    -0.270 OA
ATOM     31  H   UNL     1     111.115  18.123  -0.210  0.00  0.00    +0.155 HD
BRANCH  14  15
ATOM     15  C   UNL     1     112.624  18.200   1.900  0.00  0.00    +0.037 A 
ATOM     16  C   UNL     1     112.643  19.638   1.622  0.00  0.00    +0.013 A 
ATOM     17  C   UNL     1     112.641  20.585   2.709  0.00  0.00    +0.005 A 
ATOM     18  C   UNL     1     112.618  20.095   4.085  0.00  0.00    -0.033 A 
ATOM     28  C   UNL     1     112.595  18.663   4.332  0.00  0.00    +0.005 A 
ATOM     29  C   UNL     1     112.598  17.732   3.269  0.00  0.00    +0.013 A 
BRANCH  18  19
ATOM     19  C   UNL     1     112.635  21.033   5.307  0.00  0.00    +0.119 C 
BRANCH  19  20
ATOM     20  N   UNL     1     112.341  22.477   5.065  0.00  0.00    -0.302 NA
ATOM     21  C   UNL     1     113.595  23.347   5.189  0.00  0.00    +0.066 C 
ATOM     22  C   UNL     1     113.273  24.851   4.911  0.00  0.00    -0.064 C 
ATOM     23  N   UNL     1     112.187  25.325   5.878  0.00  0.00    +0.379 N 
ATOM     24  C   UNL     1     111.924  26.755   5.658  0.00  0.00    -0.096 C 
ATOM     25  H   UNL     1     112.584  25.210   6.914  0.00  0.00    -0.082 HD
ATOM     26  C   UNL     1     110.938  24.464   5.764  0.00  0.00    -0.064 C 
ATOM     27  C   UNL     1     111.274  22.967   6.013  0.00  0.00    +0.066 C 
ENDBRANCH  19  20
ENDBRANCH  18  19
ENDBRANCH  14  15
ENDBRANCH  12  13
TORSDOF 6
ENDMDL
MODEL 5
REMARK VINA RESULT:      -7.7     28.016     29.929
REMARK  Name = C:\Users\Docking\Desktop\test protocol\1iep_ligandH.pdb
REMARK  8 active torsions:
REMARK  status: ('A' for Active; 'I' for Inactive)
REMARK    1  A    between atoms: _5  and  _11
REMARK    2  A    between atoms: _19  and  _21
REMARK    3  A    between atoms: _22  and  _66
REMARK    4  A    between atoms: _27  and  _30
REMARK    5  A    between atoms: _32  and  _33
REMARK    6  A    between atoms: _38  and  _43
REMARK    7  A    between atoms: _43  and  _46
REMARK    8  A    between atoms: _53  and  _55
REMARK                            x       y       z     vdW  Elec       q    Type
REMARK                         _______ _______ _______ _____ _____    ______ ____
ROOT
ATOM     10  C   UNL     1     142.647  23.108   5.118  0.00  0.00    +0.038 A 
ATOM     11  C   UNL     1     141.739  24.035   4.547  0.00  0.00    +0.047 A 
ATOM     12  C   UNL     1     141.227  23.854   3.198  0.00  0.00    +0.035 A 
ATOM     32  C   UNL     1     141.660  22.714   2.459  0.00  0.00    +0.024 A 
ATOM     33  C   UNL     1     142.584  21.762   3.023  0.00  0.00    +0.007 A 
ATOM     34  C   UNL     1     143.094  21.937   4.353  0.00  0.00    -0.029 A 
ATOM     35  C   UNL     1     144.087  20.888   4.905  0.00  0.00    +0.045 C 
ENDROOT
BRANCH  10   9
ATOM      4  C   UNL     1     142.012  23.198   9.875  0.00  0.00    +0.077 A 
ATOM      5  C   UNL     1     140.641  22.792   9.759  0.00  0.00    +0.048 A 
ATOM      6  C   UNL     1     140.136  22.577   8.457  0.00  0.00    +0.116 A 
ATOM      7  N   UNL     1     140.950  22.757   7.360  0.00  0.00    -0.223 NA
ATOM      8  C   UNL     1     142.267  23.151   7.507  0.00  0.00    +0.220 A 
ATOM      9  N   UNL     1     143.107  23.331   6.418  0.00  0.00    -0.283 N 
ATOM     36  H   UNL     1     144.070  23.629   6.568  0.00  0.00    +0.155 HD
ATOM     37  N   UNL     1     142.773  23.364   8.740  0.00  0.00    -0.214 NA
BRANCH   4   3
ATOM      1  C   UNL     1     142.704  24.263  13.575  0.00  0.00    +0.020 A 
ATOM      2  C   UNL     1     142.001  24.030  12.334  0.00  0.00    +0.013 A 
ATOM      3  C   UNL     1     142.691  23.461  11.183  0.00  0.00    +0.019 A 
ATOM     38  C   UNL     1     144.103  23.136  11.322  0.00  0.00    +0.120 A 
ATOM     39  N   UNL     1     144.753  23.373  12.528  0.00  0.00    -0.263 NA
ATOM     40  C   UNL     1     144.100  23.922  13.642  0.00  0.00    +0.111 A 
ENDBRANCH   4   3
ENDBRANCH  10   9
BRANCH  12  13
ATOM     13  N   UNL     1     140.309  24.766   2.562  0.00  0.00    -0.281 N 
ATOM     14  C   UNL     1     140.584  26.012   2.022  0.00  0.00    +0.248 C 
ATOM     30  O   UNL     1     141.626  26.626   2.195  0.00  0.00    -0.270 OA
ATOM     31  H   UNL     1     139.339  24.456   2.503  0.00  0.00    +0.155 HD
BRANCH  14  15
ATOM     15  C   UNL     1     139.545  26.679   1.180  0.00  0.00    +0.037 A 
ATOM     16  C   UNL     1     139.794  27.980   0.554  0.00  0.00    +0.013 A 
ATOM     17  C   UNL     1     138.768  28.609  -0.240  0.00  0.00    +0.005 A 
ATOM     18  C   UNL     1     137.483  27.935  -0.413  0.00  0.00    -0.033 A 
ATOM     28  C   UNL     1     137.265  26.643   0.214  0.00  0.00    +0.005 A 
ATOM     29  C   UNL     1     138.267  26.024   0.994  0.00  0.00    +0.013 A 
BRANCH  18  19
ATOM     19  C   UNL     1     136.324  28.542  -1.226  0.00  0.00    +0.119 C 
BRANCH  19  20
ATOM     20  N   UNL     1     135.382  27.592  -1.888  0.00  0.00    -0.302 NA
ATOM     21  C   UNL     1     135.827  27.239  -3.310  0.00  0.00    +0.066 C 
ATOM     22  C   UNL     1     134.842  26.226  -3.980  0.00  0.00    -0.064 C 
ATOM     23  N   UNL     1     133.431  26.818  -3.985  0.00  0.00    +0.379 N 
ATOM     24  C   UNL     1     132.514  25.893  -4.666  0.00  0.00    -0.096 C 
ATOM     25  H   UNL     1     133.463  27.761  -4.578  0.00  0.00    -0.082 HD
ATOM     26  C   UNL     1     132.982  27.174  -2.575  0.00  0.00    -0.064 C 
ATOM     27  C   UNL     1     133.983  28.158  -1.908  0.00  0.00    +0.066 C 
ENDBRANCH  19  20
ENDBRANCH  18  19
ENDBRANCH  14  15
ENDBRANCH  12  13
TORSDOF 6
ENDMDL
