MODEL 1
REMARK VINA RESULT:      -9.1      0.000      0.000
REMARK  Name = C:\Users\Docking\Desktop\test protocol\1iep_ligandH.pdb
REMARK  8 active torsions:
REMARK  status: ('A' for Active; 'I' for Inactive)
REMARK    1  A    between atoms: _5  and  _11
REMARK    2  A    between atoms: _19  and  _21
REMARK    3  A    between atoms: _22  and  _66
REMARK    4  A    between atoms: _27  and  _30
REMARK    5  A    between atoms: _32  and  _33
REMARK    6  A    between atoms: _38  and  _43
REMARK    7  A    between atoms: _43  and  _46
REMARK    8  A    between atoms: _53  and  _55
REMARK                            x       y       z     vdW  Elec       q    Type
REMARK                         _______ _______ _______ _____ _____    ______ ____
ROOT
ATOM     10  C   UNL     1     133.460  27.207  -3.241  0.00  0.00    +0.038 A 
ATOM     11  C   UNL     1     134.497  27.926  -2.594  0.00  0.00    +0.047 A 
ATOM     12  C   UNL     1     135.438  27.257  -1.708  0.00  0.00    +0.035 A 
ATOM     32  C   UNL     1     135.295  25.853  -1.507  0.00  0.00    +0.024 A 
ATOM     33  C   UNL     1     134.246  25.107  -2.157  0.00  0.00    +0.007 A 
ATOM     34  C   UNL     1     133.314  25.762  -3.029  0.00  0.00    -0.029 A 
ATOM     35  C   UNL     1     132.205  24.913  -3.694  0.00  0.00    +0.045 C 
ENDROOT
BRANCH  10   9
ATOM      4  C   UNL     1     130.225  30.656  -4.064  0.00  0.00    +0.077 A 
ATOM      5  C   UNL     1     130.261  31.097  -2.699  0.00  0.00    +0.048 A 
ATOM      6  C   UNL     1     131.120  30.406  -1.816  0.00  0.00    +0.116 A 
ATOM      7  N   UNL     1     131.882  29.353  -2.274  0.00  0.00    -0.223 NA
ATOM      8  C   UNL     1     131.822  28.951  -3.596  0.00  0.00    +0.220 A 
ATOM      9  N   UNL     1     132.585  27.900  -4.081  0.00  0.00    -0.283 N 
ATOM     36  H   UNL     1     132.507  27.630  -5.061  0.00  0.00    +0.155 HD
ATOM     37  N   UNL     1     131.008  29.595  -4.459  0.00  0.00    -0.214 NA
BRANCH   4   3
ATOM      1  C   UNL     1     127.699  33.005  -5.909  0.00  0.00    +0.020 A 
ATOM      2  C   UNL     1     128.505  32.432  -4.856  0.00  0.00    +0.013 A 
ATOM      3  C   UNL     1     129.370  31.288  -5.118  0.00  0.00    +0.019 A 
ATOM     38  C   UNL     1     129.397  30.744  -6.467  0.00  0.00    +0.120 A 
ATOM     39  N   UNL     1     128.609  31.316  -7.461  0.00  0.00    -0.263 NA
ATOM     40  C   UNL     1     127.772  32.416  -7.221  0.00  0.00    +0.111 A 
ENDBRANCH   4   3
ENDBRANCH  10   9
BRANCH  12  13
ATOM     13  N   UNL     1     136.506  27.936  -1.017  0.00  0.00    -0.281 N 
ATOM     14  C   UNL     1     137.804  28.144  -1.452  0.00  0.00    +0.248 C 
ATOM     30  O   UNL     1     138.308  27.588  -2.416  0.00  0.00    -0.270 OA
ATOM     31  H   UNL     1     136.276  28.309  -0.096  0.00  0.00    +0.155 HD
BRANCH  14  15
ATOM     15  C   UNL     1     138.674  29.097  -0.697  0.00  0.00    +0.037 A 
ATOM     16  C   UNL     1     139.837  28.627   0.061  0.00  0.00    +0.013 A 
ATOM     17  C   UNL     1     140.649  29.565   0.794  0.00  0.00    +0.005 A 
ATOM     18  C   UNL     1     140.302  30.984   0.772  0.00  0.00    -0.033 A 
ATOM     28  C   UNL     1     139.147  31.424   0.007  0.00  0.00    +0.005 A 
ATOM     29  C   UNL     1     138.347  30.507  -0.712  0.00  0.00    +0.013 A 
BRANCH  18  19
ATOM     19  C   UNL     1     141.100  32.053   1.542  0.00  0.00    +0.119 C 
BRANCH  19  20
ATOM     20  N   UNL     1     140.390  33.321   1.886  0.00  0.00    -0.302 NA
ATOM     21  C   UNL     1     140.867  34.497   1.029  0.00  0.00    +0.066 C 
ATOM     22  C   UNL     1     140.098  35.810   1.386  0.00  0.00    -0.064 C 
ATOM     23  N   UNL     1     140.279  36.116   2.874  0.00  0.00    +0.379 N 
ATOM     24  C   UNL     1     139.606  37.381   3.201  0.00  0.00    -0.096 C 
ATOM     25  H   UNL     1     141.370  36.255   3.060  0.00  0.00    -0.082 HD
ATOM     26  C   UNL     1     139.810  34.950   3.733  0.00  0.00    -0.064 C 
ATOM     27  C   UNL     1     140.560  33.644   3.350  0.00  0.00    +0.066 C 
ENDBRANCH  19  20
ENDBRANCH  18  19
ENDBRANCH  14  15
ENDBRANCH  12  13
TORSDOF 6
ENDMDL
MODEL 2
REMARK VINA RESULT:      -8.9      7.358     14.042
REMARK  Name = C:\Users\Docking\Desktop\test protocol\1iep_ligandH.pdb
REMARK  8 active torsions:
REMARK  status: ('A' for Active; 'I' for Inactive)
REMARK    1  A    between atoms: _5  and  _11
REMARK    2  A    between atoms: _19  and  _21
REMARK    3  A    between atoms: _22  and  _66
REMARK    4  A    between atoms: _27  and  _30
REMARK    5  A    between atoms: _32  and  _33
REMARK    6  A    between atoms: _38  and  _43
REMARK    7  A    between atoms: _43  and  _46
REMARK    8  A    between atoms: _53  and  _55
REMARK                            x       y       z     vdW  Elec       q    Type
REMARK                         _______ _______ _______ _____ _____    ______ ____
ROOT
ATOM     10  C   UNL     1     129.621  29.537  -3.762  0.00  0.00    +0.038 A 
ATOM     11  C   UNL     1     128.938  30.158  -4.839  0.00  0.00    +0.047 A 
ATOM     12  C   UNL     1     128.965  31.602  -5.015  0.00  0.00    +0.035 A 
ATOM     32  C   UNL     1     129.700  32.383  -4.076  0.00  0.00    +0.024 A 
ATOM     33  C   UNL     1     130.399  31.768  -2.974  0.00  0.00    +0.007 A 
ATOM     34  C   UNL     1     130.374  30.345  -2.794  0.00  0.00    -0.029 A 
ATOM     35  C   UNL     1     131.136  29.741  -1.592  0.00  0.00    +0.045 C 
ENDROOT
BRANCH  10   9
ATOM      4  C   UNL     1     130.826  25.110  -5.172  0.00  0.00    +0.077 A 
ATOM      5  C   UNL     1     131.619  25.609  -6.259  0.00  0.00    +0.048 A 
ATOM      6  C   UNL     1     131.686  27.010  -6.424  0.00  0.00    +0.116 A 
ATOM      7  N   UNL     1     131.005  27.842  -5.561  0.00  0.00    -0.223 NA
ATOM      8  C   UNL     1     130.247  27.329  -4.525  0.00  0.00    +0.220 A 
ATOM      9  N   UNL     1     129.561  28.147  -3.641  0.00  0.00    -0.283 N 
ATOM     36  H   UNL     1     129.007  27.729  -2.894  0.00  0.00    +0.155 HD
ATOM     37  N   UNL     1     130.167  25.994  -4.347  0.00  0.00    -0.214 NA
BRANCH   4   3
ATOM      1  C   UNL     1     130.906  21.208  -5.431  0.00  0.00    +0.020 A 
ATOM      2  C   UNL     1     131.089  22.599  -5.775  0.00  0.00    +0.013 A 
ATOM      3  C   UNL     1     130.660  23.654  -4.866  0.00  0.00    +0.019 A 
ATOM     38  C   UNL     1     130.045  23.265  -3.606  0.00  0.00    +0.120 A 
ATOM     39  N   UNL     1     129.881  21.917  -3.302  0.00  0.00    -0.263 NA
ATOM     40  C   UNL     1     130.288  20.893  -4.170  0.00  0.00    +0.111 A 
ENDBRANCH   4   3
ENDBRANCH  10   9
BRANCH  12  13
ATOM     13  N   UNL     1     128.285  32.289  -6.084  0.00  0.00    -0.281 N 
ATOM     14  C   UNL     1     128.324  32.005  -7.439  0.00  0.00    +0.248 C 
ATOM     30  O   UNL     1     129.124  31.244  -7.963  0.00  0.00    -0.270 OA
ATOM     31  H   UNL     1     127.704  33.080  -5.809  0.00  0.00    +0.155 HD
BRANCH  14  15
ATOM     15  C   UNL     1     127.342  32.674  -8.346  0.00  0.00    +0.037 A 
ATOM     16  C   UNL     1     127.384  32.469  -9.796  0.00  0.00    +0.013 A 
ATOM     17  C   UNL     1     126.435  33.139 -10.649  0.00  0.00    +0.005 A 
ATOM     18  C   UNL     1     125.434  34.021 -10.053  0.00  0.00    -0.033 A 
ATOM     28  C   UNL     1     125.412  34.202  -8.611  0.00  0.00    +0.005 A 
ATOM     29  C   UNL     1     126.341  33.547  -7.772  0.00  0.00    +0.013 A 
BRANCH  18  19
ATOM     19  C   UNL     1     124.397  34.794 -10.889  0.00  0.00    +0.119 C 
BRANCH  19  20
ATOM     20  N   UNL     1     122.999  34.847 -10.364  0.00  0.00    -0.302 NA
ATOM     21  C   UNL     1     121.994  34.235 -11.344  0.00  0.00    +0.066 C 
ATOM     22  C   UNL     1     120.541  34.279 -10.770  0.00  0.00    -0.064 C 
ATOM     23  N   UNL     1     120.167  35.726 -10.445  0.00  0.00    +0.379 N 
ATOM     24  C   UNL     1     118.781  35.778  -9.959  0.00  0.00    -0.096 C 
ATOM     25  H   UNL     1     120.216  36.309 -11.393  0.00  0.00    -0.082 HD
ATOM     26  C   UNL     1     121.163  36.343  -9.473  0.00  0.00    -0.064 C 
ATOM     27  C   UNL     1     122.608  36.268 -10.040  0.00  0.00    +0.066 C 
ENDBRANCH  19  20
ENDBRANCH  18  19
ENDBRANCH  14  15
ENDBRANCH  12  13
TORSDOF 6
ENDMDL
MODEL 3
REMARK VINA RESULT:      -8.7     23.763     27.997
REMARK  Name = C:\Users\Docking\Desktop\test protocol\1iep_ligandH.pdb
REMARK  8 active torsions:
REMARK  status: ('A' for Active; 'I' for Inactive)
REMARK    1  A    between atoms: _5  and  _11
REMARK    2  A    between atoms: _19  and  _21
REMARK    3  A    between atoms: _22  and  _66
REMARK    4  A    between atoms: _27  and  _30
REMARK    5  A    between atoms: _32  and  _33
REMARK    6  A    between atoms: _38  and  _43
REMARK    7  A    between atoms: _43  and  _46
REMARK    8  A    between atoms: _53  and  _55
REMARK                            x       y       z     vdW  Elec       q    Type
REMARK                         _______ _______ _______ _____ _____    ______ ____
ROOT
ATOM     10  C   UNL     1     122.242  43.555  20.689  0.00  0.00    +0.038 A 
ATOM     11  C   UNL     1     123.450  43.034  20.158  0.00  0.00    +0.047 A 
ATOM     12  C   UNL     1     123.441  42.107  19.037  0.00  0.00    +0.035 A 
ATOM     32  C   UNL     1     122.184  41.733  18.479  0.00  0.00    +0.024 A 
ATOM     33  C   UNL     1     120.947  42.252  19.007  0.00  0.00    +0.007 A 
ATOM     34  C   UNL     1     120.949  43.165  20.114  0.00  0.00    -0.029 A 
ATOM     35  C   UNL     1     119.591  43.684  20.643  0.00  0.00    +0.045 C 
ENDROOT
BRANCH  10   9
ATOM      4  C   UNL     1     122.534  47.986  22.510  0.00  0.00    +0.077 A 
ATOM      5  C   UNL     1     122.585  48.582  21.206  0.00  0.00    +0.048 A 
ATOM      6  C   UNL     1     122.541  47.713  20.093  0.00  0.00    +0.116 A 
ATOM      7  N   UNL     1     122.452  46.351  20.281  0.00  0.00    -0.223 NA
ATOM      8  C   UNL     1     122.406  45.809  21.553  0.00  0.00    +0.220 A 
ATOM      9  N   UNL     1     122.309  44.442  21.765  0.00  0.00    -0.283 N 
ATOM     36  H   UNL     1     122.285  44.081  22.719  0.00  0.00    +0.155 HD
ATOM     37  N   UNL     1     122.448  46.617  22.632  0.00  0.00    -0.214 NA
BRANCH   4   3
ATOM      1  C   UNL     1     121.742  50.613  25.298  0.00  0.00    +0.020 A 
ATOM      2  C   UNL     1     121.669  49.887  24.051  0.00  0.00    +0.013 A 
ATOM      3  C   UNL     1     122.568  48.772  23.784  0.00  0.00    +0.019 A 
ATOM     38  C   UNL     1     123.538  48.414  24.808  0.00  0.00    +0.120 A 
ATOM     39  N   UNL     1     123.587  49.132  25.998  0.00  0.00    -0.263 NA
ATOM     40  C   UNL     1     122.727  50.208  26.266  0.00  0.00    +0.111 A 
ENDBRANCH   4   3
ENDBRANCH  10   9
BRANCH  12  13
ATOM     13  N   UNL     1     124.635  41.540  18.461  0.00  0.00    -0.281 N 
ATOM     14  C   UNL     1     125.465  40.572  19.003  0.00  0.00    +0.248 C 
ATOM     30  O   UNL     1     125.424  40.198  20.166  0.00  0.00    -0.270 OA
ATOM     31  H   UNL     1     124.901  41.895  17.543  0.00  0.00    +0.155 HD
BRANCH  14  15
ATOM     15  C   UNL     1     126.499  39.937  18.131  0.00  0.00    +0.037 A 
ATOM     16  C   UNL     1     126.699  40.375  16.747  0.00  0.00    +0.013 A 
ATOM     17  C   UNL     1     127.692  39.734  15.922  0.00  0.00    +0.005 A 
ATOM     18  C   UNL     1     128.494  38.647  16.480  0.00  0.00    -0.033 A 
ATOM     28  C   UNL     1     128.279  38.236  17.857  0.00  0.00    +0.005 A 
ATOM     29  C   UNL     1     127.306  38.862  18.669  0.00  0.00    +0.013 A 
BRANCH  18  19
ATOM     19  C   UNL     1     129.562  37.893  15.665  0.00  0.00    +0.119 C 
BRANCH  19  20
ATOM     20  N   UNL     1     130.885  37.664  16.319  0.00  0.00    -0.302 NA
ATOM     21  C   UNL     1     132.051  37.912  15.357  0.00  0.00    +0.066 C 
ATOM     22  C   UNL     1     133.428  37.690  16.063  0.00  0.00    -0.064 C 
ATOM     23  N   UNL     1     133.485  36.271  16.629  0.00  0.00    +0.379 N 
ATOM     24  C   UNL     1     134.801  36.040  17.243  0.00  0.00    -0.096 C 
ATOM     25  H   UNL     1     133.381  35.562  15.775  0.00  0.00    -0.082 HD
ATOM     26  C   UNL     1     132.328  36.015  17.584  0.00  0.00    -0.064 C 
ATOM     27  C   UNL     1     130.965  36.267  16.881  0.00  0.00    +0.066 C 
ENDBRANCH  19  20
ENDBRANCH  18  19
ENDBRANCH  14  15
ENDBRANCH  12  13
TORSDOF 6
ENDMDL
MODEL 4
REMARK VINA RESULT:      -8.5     25.006     26.908
REMARK  Name = C:\Users\Docking\Desktop\test protocol\1iep_ligandH.pdb
REMARK  8 active torsions:
REMARK  status: ('A' for Active; 'I' for Inactive)
REMARK    1  A    between atoms: _5  and  _11
REMARK    2  A    between atoms: _19  and  _21
REMARK    3  A    between atoms: _22  and  _66
REMARK    4  A    between atoms: _27  and  _30
REMARK    5  A    between atoms: _32  and  _33
REMARK    6  A    between atoms: _38  and  _43
REMARK    7  A    between atoms: _43  and  _46
REMARK    8  A    between atoms: _53  and  _55
REMARK                            x       y       z     vdW  Elec       q    Type
REMARK                         _______ _______ _______ _____ _____    ______ ____
ROOT
ATOM     10  C   UNL     1     114.676  17.290   1.198  0.00  0.00    +0.038 A 
ATOM     11  C   UNL     1     115.423  16.213   1.740  0.00  0.00    +0.047 A 
ATOM     12  C   UNL     1     115.710  15.024   0.953  0.00  0.00    +0.035 A 
ATOM     32  C   UNL     1     115.221  14.966  -0.385  0.00  0.00    +0.024 A 
ATOM     33  C   UNL     1     114.459  16.050  -0.952  0.00  0.00    +0.007 A 
ATOM     34  C   UNL     1     114.171  17.225  -0.179  0.00  0.00    -0.029 A 
ATOM     35  C   UNL     1     113.344  18.354  -0.836  0.00  0.00    +0.045 C 
ENDROOT
BRANCH  10   9
ATOM      4  C   UNL     1     112.290  19.548   4.697  0.00  0.00    +0.077 A 
ATOM      5  C   UNL     1     111.443  18.414   4.933  0.00  0.00    +0.048 A 
ATOM      6  C   UNL     1     111.649  17.272   4.127  0.00  0.00    +0.116 A 
ATOM      7  N   UNL     1     112.632  17.275   3.161  0.00  0.00    -0.223 NA
ATOM      8  C   UNL     1     113.431  18.386   2.959  0.00  0.00    +0.220 A 
ATOM      9  N   UNL     1     114.430  18.408   1.998  0.00  0.00    -0.283 N 
ATOM     36  H   UNL     1     114.993  19.249   1.875  0.00  0.00    +0.155 HD
ATOM     37  N   UNL     1     113.253  19.489   3.714  0.00  0.00    -0.214 NA
BRANCH   4   3
ATOM      1  C   UNL     1     111.334  22.227   7.382  0.00  0.00    +0.020 A 
ATOM      2  C   UNL     1     111.389  20.969   6.674  0.00  0.00    +0.013 A 
ATOM      3  C   UNL     1     112.197  20.828   5.469  0.00  0.00    +0.019 A 
ATOM     38  C   UNL     1     112.945  21.987   5.006  0.00  0.00    +0.120 A 
ATOM     39  N   UNL     1     112.871  23.186   5.708  0.00  0.00    -0.263 NA
ATOM     40  C   UNL     1     112.095  23.334   6.867  0.00  0.00    +0.111 A 
ENDBRANCH   4   3
ENDBRANCH  10   9
BRANCH  12  13
ATOM     13  N   UNL     1     116.456  13.896   1.453  0.00  0.00    -0.281 N 
ATOM     14  C   UNL     1     115.979  12.803   2.157  0.00  0.00    +0.248 C 
ATOM     30  O   UNL     1     114.863  12.733   2.652  0.00  0.00    -0.270 OA
ATOM     31  H   UNL     1     117.459  13.905   1.265  0.00  0.00    +0.155 HD
BRANCH  14  15
ATOM     15  C   UNL     1     116.874  11.622   2.352  0.00  0.00    +0.037 A 
ATOM     16  C   UNL     1     117.979  11.346   1.430  0.00  0.00    +0.013 A 
ATOM     17  C   UNL     1     118.817  10.191   1.631  0.00  0.00    +0.005 A 
ATOM     18  C   UNL     1     118.554   9.303   2.761  0.00  0.00    -0.033 A 
ATOM     28  C   UNL     1     117.454   9.603   3.663  0.00  0.00    +0.005 A 
ATOM     29  C   UNL     1     116.630  10.734   3.468  0.00  0.00    +0.013 A 
BRANCH  18  19
ATOM     19  C   UNL     1     119.384   8.036   3.040  0.00  0.00    +0.119 C 
BRANCH  19  20
ATOM     20  N   UNL     1     119.877   7.835   4.435  0.00  0.00    -0.302 NA
ATOM     21  C   UNL     1     121.367   8.161   4.570  0.00  0.00    +0.066 C 
ATOM     22  C   UNL     1     121.861   7.967   6.041  0.00  0.00    -0.064 C 
ATOM     23  N   UNL     1     121.578   6.531   6.486  0.00  0.00    +0.379 N 
ATOM     24  C   UNL     1     122.093   6.329   7.848  0.00  0.00    -0.096 C 
ATOM     25  H   UNL     1     122.140   5.850   5.807  0.00  0.00    -0.082 HD
ATOM     26  C   UNL     1     120.099   6.198   6.352  0.00  0.00    -0.064 C 
ATOM     27  C   UNL     1     119.611   6.422   4.894  0.00  0.00    +0.066 C 
ENDBRANCH  19  20
ENDBRANCH  18  19
ENDBRANCH  14  15
ENDBRANCH  12  13
TORSDOF 6
ENDMDL
MODEL 5
REMARK VINA RESULT:      -8.4      1.464      2.121
REMARK  Name = C:\Users\Docking\Desktop\test protocol\1iep_ligandH.pdb
REMARK  8 active torsions:
REMARK  status: ('A' for Active; 'I' for Inactive)
REMARK    1  A    between atoms: _5  and  _11
REMARK    2  A    between atoms: _19  and  _21
REMARK    3  A    between atoms: _22  and  _66
REMARK    4  A    between atoms: _27  and  _30
REMARK    5  A    between atoms: _32  and  _33
REMARK    6  A    between atoms: _38  and  _43
REMARK    7  A    between atoms: _43  and  _46
REMARK    8  A    between atoms: _53  and  _55
REMARK                            x       y       z     vdW  Elec       q    Type
REMARK                         _______ _______ _______ _____ _____    ______ ____
ROOT
ATOM     10  C   UNL     1     133.491  27.081  -3.058  0.00  0.00    +0.038 A 
ATOM     11  C   UNL     1     134.545  27.804  -2.443  0.00  0.00    +0.047 A 
ATOM     12  C   UNL     1     135.496  27.144  -1.561  0.00  0.00    +0.035 A 
ATOM     32  C   UNL     1     135.345  25.746  -1.330  0.00  0.00    +0.024 A 
ATOM     33  C   UNL     1     134.278  24.996  -1.946  0.00  0.00    +0.007 A 
ATOM     34  C   UNL     1     133.337  25.642  -2.815  0.00  0.00    -0.029 A 
ATOM     35  C   UNL     1     132.209  24.790  -3.443  0.00  0.00    +0.045 C 
ENDROOT
BRANCH  10   9
ATOM      4  C   UNL     1     130.360  30.613  -3.927  0.00  0.00    +0.077 A 
ATOM      5  C   UNL     1     130.474  31.123  -2.591  0.00  0.00    +0.048 A 
ATOM      6  C   UNL     1     131.344  30.444  -1.709  0.00  0.00    +0.116 A 
ATOM      7  N   UNL     1     132.043  29.338  -2.142  0.00  0.00    -0.223 NA
ATOM      8  C   UNL     1     131.908  28.871  -3.437  0.00  0.00    +0.220 A 
ATOM      9  N   UNL     1     132.608  27.765  -3.896  0.00  0.00    -0.283 N 
ATOM     36  H   UNL     1     132.475  27.448  -4.855  0.00  0.00    +0.155 HD
ATOM     37  N   UNL     1     131.083  29.501  -4.298  0.00  0.00    -0.214 NA
BRANCH   4   3
ATOM      1  C   UNL     1     127.784  32.913  -5.765  0.00  0.00    +0.020 A 
ATOM      2  C   UNL     1     128.610  32.361  -4.716  0.00  0.00    +0.013 A 
ATOM      3  C   UNL     1     129.484  31.224  -4.977  0.00  0.00    +0.019 A 
ATOM     38  C   UNL     1     129.500  30.666  -6.320  0.00  0.00    +0.120 A 
ATOM     39  N   UNL     1     128.692  31.218  -7.310  0.00  0.00    -0.263 NA
ATOM     40  C   UNL     1     127.846  32.311  -7.070  0.00  0.00    +0.111 A 
ENDBRANCH   4   3
ENDBRANCH  10   9
BRANCH  12  13
ATOM     13  N   UNL     1     136.581  27.828  -0.902  0.00  0.00    -0.281 N 
ATOM     14  C   UNL     1     137.785  28.241  -1.449  0.00  0.00    +0.248 C 
ATOM     30  O   UNL     1     138.202  27.893  -2.544  0.00  0.00    -0.270 OA
ATOM     31  H   UNL     1     136.445  28.032   0.088  0.00  0.00    +0.155 HD
BRANCH  14  15
ATOM     15  C   UNL     1     138.658  29.162  -0.660  0.00  0.00    +0.037 A 
ATOM     16  C   UNL     1     139.812  28.658   0.090  0.00  0.00    +0.013 A 
ATOM     17  C   UNL     1     140.628  29.566   0.856  0.00  0.00    +0.005 A 
ATOM     18  C   UNL     1     140.294  30.988   0.876  0.00  0.00    -0.033 A 
ATOM     28  C   UNL     1     139.147  31.461   0.118  0.00  0.00    +0.005 A 
ATOM     29  C   UNL     1     138.344  30.574  -0.633  0.00  0.00    +0.013 A 
BRANCH  18  19
ATOM     19  C   UNL     1     141.097  32.025   1.683  0.00  0.00    +0.119 C 
BRANCH  19  20
ATOM     20  N   UNL     1     142.308  32.609   1.033  0.00  0.00    -0.302 NA
ATOM     21  C   UNL     1     142.502  34.083   1.399  0.00  0.00    +0.066 C 
ATOM     22  C   UNL     1     143.786  34.672   0.728  0.00  0.00    -0.064 C 
ATOM     23  N   UNL     1     143.691  34.497  -0.789  0.00  0.00    +0.379 N 
ATOM     24  C   UNL     1     144.870  35.102  -1.426  0.00  0.00    -0.096 C 
ATOM     25  H   UNL     1     142.793  35.058  -1.138  0.00  0.00    -0.082 HD
ATOM     26  C   UNL     1     143.496  33.034  -1.160  0.00  0.00    -0.064 C 
ATOM     27  C   UNL     1     142.234  32.451  -0.466  0.00  0.00    +0.066 C 
ENDBRANCH  19  20
ENDBRANCH  18  19
ENDBRANCH  14  15
ENDBRANCH  12  13
TORSDOF 6
ENDMDL
