MODEL 1
REMARK VINA RESULT:      -9.3      0.000      0.000
REMARK  Name = C:\Users\Docking\Desktop\test protocol\1iep_ligandH.pdb
REMARK  8 active torsions:
REMARK  status: ('A' for Active; 'I' for Inactive)
REMARK    1  A    between atoms: _5  and  _11
REMARK    2  A    between atoms: _19  and  _21
REMARK    3  A    between atoms: _22  and  _66
REMARK    4  A    between atoms: _27  and  _30
REMARK    5  A    between atoms: _32  and  _33
REMARK    6  A    between atoms: _38  and  _43
REMARK    7  A    between atoms: _43  and  _46
REMARK    8  A    between atoms: _53  and  _55
REMARK                            x       y       z     vdW  Elec       q    Type
REMARK                         _______ _______ _______ _____ _____    ______ ____
ROOT
ATOM     10  C   UNL     1     133.257  27.136  -2.842  0.00  0.00    +0.038 A 
ATOM     11  C   UNL     1     134.285  27.876  -2.204  0.00  0.00    +0.047 A 
ATOM     12  C   UNL     1     135.242  27.228  -1.321  0.00  0.00    +0.035 A 
ATOM     32  C   UNL     1     135.124  25.823  -1.113  0.00  0.00    +0.024 A 
ATOM     33  C   UNL     1     134.085  25.055  -1.753  0.00  0.00    +0.007 A 
ATOM     34  C   UNL     1     133.137  25.689  -2.623  0.00  0.00    -0.029 A 
ATOM     35  C   UNL     1     132.040  24.818  -3.277  0.00  0.00    +0.045 C 
ENDROOT
BRANCH  10   9
ATOM      4  C   UNL     1     129.861  30.435  -3.632  0.00  0.00    +0.077 A 
ATOM      5  C   UNL     1     129.843  30.832  -2.254  0.00  0.00    +0.048 A 
ATOM      6  C   UNL     1     130.718  30.157  -1.373  0.00  0.00    +0.116 A 
ATOM      7  N   UNL     1     131.545  29.162  -1.846  0.00  0.00    -0.223 NA
ATOM      8  C   UNL     1     131.536  28.802  -3.181  0.00  0.00    +0.220 A 
ATOM      9  N   UNL     1     132.365  27.809  -3.680  0.00  0.00    -0.283 N 
ATOM     36  H   UNL     1     132.324  27.568  -4.670  0.00  0.00    +0.155 HD
ATOM     37  N   UNL     1     130.709  29.430  -4.042  0.00  0.00    -0.214 NA
BRANCH   4   3
ATOM      1  C   UNL     1     127.445  32.856  -5.530  0.00  0.00    +0.020 A 
ATOM      2  C   UNL     1     128.265  32.298  -4.479  0.00  0.00    +0.013 A 
ATOM      3  C   UNL     1     128.997  31.055  -4.686  0.00  0.00    +0.019 A 
ATOM     38  C   UNL     1     128.878  30.397  -5.978  0.00  0.00    +0.120 A 
ATOM     39  N   UNL     1     128.080  30.956  -6.970  0.00  0.00    -0.263 NA
ATOM     40  C   UNL     1     127.369  32.151  -6.782  0.00  0.00    +0.111 A 
ENDBRANCH   4   3
ENDBRANCH  10   9
BRANCH  12  13
ATOM     13  N   UNL     1     136.301  27.929  -0.639  0.00  0.00    -0.281 N 
ATOM     14  C   UNL     1     137.641  27.990  -0.983  0.00  0.00    +0.248 C 
ATOM     30  O   UNL     1     138.175  27.271  -1.815  0.00  0.00    -0.270 OA
ATOM     31  H   UNL     1     136.030  28.443   0.199  0.00  0.00    +0.155 HD
BRANCH  14  15
ATOM     15  C   UNL     1     138.520  28.983  -0.293  0.00  0.00    +0.037 A 
ATOM     16  C   UNL     1     139.766  28.571   0.359  0.00  0.00    +0.013 A 
ATOM     17  C   UNL     1     140.586  29.547   1.032  0.00  0.00    +0.005 A 
ATOM     18  C   UNL     1     140.162  30.945   1.056  0.00  0.00    -0.033 A 
ATOM     28  C   UNL     1     138.924  31.326   0.397  0.00  0.00    +0.005 A 
ATOM     29  C   UNL     1     138.117  30.373  -0.263  0.00  0.00    +0.013 A 
BRANCH  18  19
ATOM     19  C   UNL     1     140.964  32.050   1.769  0.00  0.00    +0.119 C 
BRANCH  19  20
ATOM     20  N   UNL     1     140.286  33.364   1.972  0.00  0.00    -0.302 NA
ATOM     21  C   UNL     1     140.831  34.443   1.032  0.00  0.00    +0.066 C 
ATOM     22  C   UNL     1     140.094  35.806   1.243  0.00  0.00    -0.064 C 
ATOM     23  N   UNL     1     140.235  36.239   2.703  0.00  0.00    +0.379 N 
ATOM     24  C   UNL     1     139.593  37.548   2.891  0.00  0.00    -0.096 C 
ATOM     25  H   UNL     1     141.322  36.361   2.916  0.00  0.00    -0.082 HD
ATOM     26  C   UNL     1     139.698  35.170   3.645  0.00  0.00    -0.064 C 
ATOM     27  C   UNL     1     140.416  33.813   3.407  0.00  0.00    +0.066 C 
ENDBRANCH  19  20
ENDBRANCH  18  19
ENDBRANCH  14  15
ENDBRANCH  12  13
TORSDOF 6
ENDMDL
MODEL 2
REMARK VINA RESULT:      -8.8     26.378     31.757
REMARK  Name = C:\Users\Docking\Desktop\test protocol\1iep_ligandH.pdb
REMARK  8 active torsions:
REMARK  status: ('A' for Active; 'I' for Inactive)
REMARK    1  A    between atoms: _5  and  _11
REMARK    2  A    between atoms: _19  and  _21
REMARK    3  A    between atoms: _22  and  _66
REMARK    4  A    between atoms: _27  and  _30
REMARK    5  A    between atoms: _32  and  _33
REMARK    6  A    between atoms: _38  and  _43
REMARK    7  A    between atoms: _43  and  _46
REMARK    8  A    between atoms: _53  and  _55
REMARK                            x       y       z     vdW  Elec       q    Type
REMARK                         _______ _______ _______ _____ _____    ______ ____
ROOT
ATOM     10  C   UNL     1     112.931  17.481   2.941  0.00  0.00    +0.038 A 
ATOM     11  C   UNL     1     111.695  16.823   3.166  0.00  0.00    +0.047 A 
ATOM     12  C   UNL     1     111.559  15.388   2.972  0.00  0.00    +0.035 A 
ATOM     32  C   UNL     1     112.705  14.652   2.551  0.00  0.00    +0.024 A 
ATOM     33  C   UNL     1     113.970  15.304   2.317  0.00  0.00    +0.007 A 
ATOM     34  C   UNL     1     114.108  16.720   2.505  0.00  0.00    -0.029 A 
ATOM     35  C   UNL     1     115.486  17.368   2.233  0.00  0.00    +0.045 C 
ENDROOT
BRANCH  10   9
ATOM      4  C   UNL     1     111.399  21.548   4.977  0.00  0.00    +0.077 A 
ATOM      5  C   UNL     1     110.346  20.871   5.678  0.00  0.00    +0.048 A 
ATOM      6  C   UNL     1     110.229  19.476   5.481  0.00  0.00    +0.116 A 
ATOM      7  N   UNL     1     111.105  18.819   4.645  0.00  0.00    -0.223 NA
ATOM      8  C   UNL     1     112.108  19.503   3.983  0.00  0.00    +0.220 A 
ATOM      9  N   UNL     1     113.005  18.861   3.143  0.00  0.00    -0.283 N 
ATOM     36  H   UNL     1     113.726  19.402   2.667  0.00  0.00    +0.155 HD
ATOM     37  N   UNL     1     112.240  20.835   4.153  0.00  0.00    -0.214 NA
BRANCH   4   3
ATOM      1  C   UNL     1     113.103  25.065   4.797  0.00  0.00    +0.020 A 
ATOM      2  C   UNL     1     112.908  23.639   4.673  0.00  0.00    +0.013 A 
ATOM      3  C   UNL     1     111.654  23.020   5.084  0.00  0.00    +0.019 A 
ATOM     38  C   UNL     1     110.609  23.879   5.620  0.00  0.00    +0.120 A 
ATOM     39  N   UNL     1     110.825  25.249   5.729  0.00  0.00    -0.263 NA
ATOM     40  C   UNL     1     112.029  25.856   5.338  0.00  0.00    +0.111 A 
ENDBRANCH   4   3
ENDBRANCH  10   9
BRANCH  12  13
ATOM     13  N   UNL     1     110.327  14.667   3.177  0.00  0.00    -0.281 N 
ATOM     14  C   UNL     1     109.437  14.214   2.218  0.00  0.00    +0.248 C 
ATOM     30  O   UNL     1     109.458  14.548   1.042  0.00  0.00    -0.270 OA
ATOM     31  H   UNL     1     110.082  14.467   4.146  0.00  0.00    +0.155 HD
BRANCH  14  15
ATOM     15  C   UNL     1     108.358  13.263   2.626  0.00  0.00    +0.037 A 
ATOM     16  C   UNL     1     108.668  11.886   3.019  0.00  0.00    +0.013 A 
ATOM     17  C   UNL     1     107.607  10.984   3.392  0.00  0.00    +0.005 A 
ATOM     18  C   UNL     1     106.225  11.459   3.375  0.00  0.00    -0.033 A 
ATOM     28  C   UNL     1     105.947  12.831   2.987  0.00  0.00    +0.005 A 
ATOM     29  C   UNL     1     106.984  13.717   2.619  0.00  0.00    +0.013 A 
BRANCH  18  19
ATOM     19  C   UNL     1     105.028  10.560   3.738  0.00  0.00    +0.119 C 
BRANCH  19  20
ATOM     20  N   UNL     1     103.662  11.095   3.458  0.00  0.00    -0.302 NA
ATOM     21  C   UNL     1     103.036  11.746   4.694  0.00  0.00    +0.066 C 
ATOM     22  C   UNL     1     101.616  12.320   4.378  0.00  0.00    -0.064 C 
ATOM     23  N   UNL     1     100.723  11.199   3.845  0.00  0.00    +0.379 N 
ATOM     24  C   UNL     1      99.371  11.723   3.602  0.00  0.00    -0.096 C 
ATOM     25  H   UNL     1     100.646  10.421   4.641  0.00  0.00    -0.082 HD
ATOM     26  C   UNL     1     101.339  10.544   2.618  0.00  0.00    -0.064 C 
ATOM     27  C   UNL     1     102.761  10.003   2.935  0.00  0.00    +0.066 C 
ENDBRANCH  19  20
ENDBRANCH  18  19
ENDBRANCH  14  15
ENDBRANCH  12  13
TORSDOF 6
ENDMDL
MODEL 3
REMARK VINA RESULT:      -8.7     23.537     27.443
REMARK  Name = C:\Users\Docking\Desktop\test protocol\1iep_ligandH.pdb
REMARK  8 active torsions:
REMARK  status: ('A' for Active; 'I' for Inactive)
REMARK    1  A    between atoms: _5  and  _11
REMARK    2  A    between atoms: _19  and  _21
REMARK    3  A    between atoms: _22  and  _66
REMARK    4  A    between atoms: _27  and  _30
REMARK    5  A    between atoms: _32  and  _33
REMARK    6  A    between atoms: _38  and  _43
REMARK    7  A    between atoms: _43  and  _46
REMARK    8  A    between atoms: _53  and  _55
REMARK                            x       y       z     vdW  Elec       q    Type
REMARK                         _______ _______ _______ _____ _____    ______ ____
ROOT
ATOM     10  C   UNL     1     122.291  43.586  20.656  0.00  0.00    +0.038 A 
ATOM     11  C   UNL     1     123.528  43.243  20.054  0.00  0.00    +0.047 A 
ATOM     12  C   UNL     1     123.586  42.341  18.914  0.00  0.00    +0.035 A 
ATOM     32  C   UNL     1     122.363  41.808  18.411  0.00  0.00    +0.024 A 
ATOM     33  C   UNL     1     121.096  42.146  19.012  0.00  0.00    +0.007 A 
ATOM     34  C   UNL     1     121.033  43.033  20.138  0.00  0.00    -0.029 A 
ATOM     35  C   UNL     1     119.648  43.355  20.746  0.00  0.00    +0.045 C 
ENDROOT
BRANCH  10   9
ATOM      4  C   UNL     1     122.301  47.994  22.554  0.00  0.00    +0.077 A 
ATOM      5  C   UNL     1     122.330  48.615  21.262  0.00  0.00    +0.048 A 
ATOM      6  C   UNL     1     122.348  47.764  20.133  0.00  0.00    +0.116 A 
ATOM      7  N   UNL     1     122.338  46.396  20.298  0.00  0.00    -0.223 NA
ATOM      8  C   UNL     1     122.312  45.830  21.559  0.00  0.00    +0.220 A 
ATOM      9  N   UNL     1     122.294  44.457  21.748  0.00  0.00    -0.283 N 
ATOM     36  H   UNL     1     122.282  44.078  22.695  0.00  0.00    +0.155 HD
ATOM     37  N   UNL     1     122.295  46.621  22.652  0.00  0.00    -0.214 NA
BRANCH   4   3
ATOM      1  C   UNL     1     121.282  50.470  25.406  0.00  0.00    +0.020 A 
ATOM      2  C   UNL     1     121.262  49.760  24.148  0.00  0.00    +0.013 A 
ATOM      3  C   UNL     1     122.275  48.759  23.842  0.00  0.00    +0.019 A 
ATOM     38  C   UNL     1     123.303  48.496  24.838  0.00  0.00    +0.120 A 
ATOM     39  N   UNL     1     123.298  49.196  26.040  0.00  0.00    -0.263 NA
ATOM     40  C   UNL     1     122.329  50.164  26.346  0.00  0.00    +0.111 A 
ENDBRANCH   4   3
ENDBRANCH  10   9
BRANCH  12  13
ATOM     13  N   UNL     1     124.813  41.950  18.266  0.00  0.00    -0.281 N 
ATOM     14  C   UNL     1     125.288  40.667  18.045  0.00  0.00    +0.248 C 
ATOM     30  O   UNL     1     124.828  39.661  18.563  0.00  0.00    -0.270 OA
ATOM     31  H   UNL     1     125.404  42.711  17.931  0.00  0.00    +0.155 HD
BRANCH  14  15
ATOM     15  C   UNL     1     126.452  40.477  17.126  0.00  0.00    +0.037 A 
ATOM     16  C   UNL     1     126.741  39.172  16.526  0.00  0.00    +0.013 A 
ATOM     17  C   UNL     1     127.879  39.012  15.657  0.00  0.00    +0.005 A 
ATOM     18  C   UNL     1     128.737  40.162  15.381  0.00  0.00    -0.033 A 
ATOM     28  C   UNL     1     128.424  41.447  15.985  0.00  0.00    +0.005 A 
ATOM     29  C   UNL     1     127.309  41.607  16.838  0.00  0.00    +0.013 A 
BRANCH  18  19
ATOM     19  C   UNL     1     129.985  40.078  14.482  0.00  0.00    +0.119 C 
BRANCH  19  20
ATOM     20  N   UNL     1     129.772  40.160  13.006  0.00  0.00    -0.302 NA
ATOM     21  C   UNL     1     130.799  39.330  12.231  0.00  0.00    +0.066 C 
ATOM     22  C   UNL     1     130.547  39.408  10.690  0.00  0.00    -0.064 C 
ATOM     23  N   UNL     1     130.584  40.871  10.243  0.00  0.00    +0.379 N 
ATOM     24  C   UNL     1     130.406  40.944   8.786  0.00  0.00    -0.096 C 
ATOM     25  H   UNL     1     131.598  41.271  10.481  0.00  0.00    -0.082 HD
ATOM     26  C   UNL     1     129.568  41.704  11.012  0.00  0.00    -0.064 C 
ATOM     27  C   UNL     1     129.809  41.595  12.543  0.00  0.00    +0.066 C 
ENDBRANCH  19  20
ENDBRANCH  18  19
ENDBRANCH  14  15
ENDBRANCH  12  13
TORSDOF 6
ENDMDL
MODEL 4
REMARK VINA RESULT:      -8.2     26.346     31.732
REMARK  Name = C:\Users\Docking\Desktop\test protocol\1iep_ligandH.pdb
REMARK  8 active torsions:
REMARK  status: ('A' for Active; 'I' for Inactive)
REMARK    1  A    between atoms: _5  and  _11
REMARK    2  A    between atoms: _19  and  _21
REMARK    3  A    between atoms: _22  and  _66
REMARK    4  A    between atoms: _27  and  _30
REMARK    5  A    between atoms: _32  and  _33
REMARK    6  A    between atoms: _38  and  _43
REMARK    7  A    between atoms: _43  and  _46
REMARK    8  A    between atoms: _53  and  _55
REMARK                            x       y       z     vdW  Elec       q    Type
REMARK                         _______ _______ _______ _____ _____    ______ ____
ROOT
ATOM     10  C   UNL     1     112.558  17.182   2.928  0.00  0.00    +0.038 A 
ATOM     11  C   UNL     1     111.233  16.680   2.878  0.00  0.00    +0.047 A 
ATOM     12  C   UNL     1     110.972  15.259   2.706  0.00  0.00    +0.035 A 
ATOM     32  C   UNL     1     112.086  14.377   2.590  0.00  0.00    +0.024 A 
ATOM     33  C   UNL     1     113.440  14.871   2.638  0.00  0.00    +0.007 A 
ATOM     34  C   UNL     1     113.703  16.271   2.805  0.00  0.00    -0.029 A 
ATOM     35  C   UNL     1     115.175  16.745   2.843  0.00  0.00    +0.045 C 
ENDROOT
BRANCH  10   9
ATOM      4  C   UNL     1     111.447  21.398   4.936  0.00  0.00    +0.077 A 
ATOM      5  C   UNL     1     110.376  20.821   5.695  0.00  0.00    +0.048 A 
ATOM      6  C   UNL     1     110.139  19.437   5.535  0.00  0.00    +0.116 A 
ATOM      7  N   UNL     1     110.921  18.696   4.677  0.00  0.00    -0.223 NA
ATOM      8  C   UNL     1     111.946  19.284   3.958  0.00  0.00    +0.220 A 
ATOM      9  N   UNL     1     112.751  18.555   3.096  0.00  0.00    -0.283 N 
ATOM     36  H   UNL     1     113.491  19.027   2.578  0.00  0.00    +0.155 HD
ATOM     37  N   UNL     1     112.191  20.603   4.092  0.00  0.00    -0.214 NA
BRANCH   4   3
ATOM      1  C   UNL     1     111.323  25.266   5.507  0.00  0.00    +0.020 A 
ATOM      2  C   UNL     1     110.910  23.882   5.466  0.00  0.00    +0.013 A 
ATOM      3  C   UNL     1     111.823  22.846   4.999  0.00  0.00    +0.019 A 
ATOM     38  C   UNL     1     113.157  23.247   4.579  0.00  0.00    +0.120 A 
ATOM     39  N   UNL     1     113.527  24.587   4.629  0.00  0.00    -0.263 NA
ATOM     40  C   UNL     1     112.656  25.593   5.074  0.00  0.00    +0.111 A 
ENDBRANCH   4   3
ENDBRANCH  10   9
BRANCH  12  13
ATOM     13  N   UNL     1     109.648  14.693   2.640  0.00  0.00    -0.281 N 
ATOM     14  C   UNL     1     108.941  14.309   1.512  0.00  0.00    +0.248 C 
ATOM     30  O   UNL     1     109.259  14.594   0.367  0.00  0.00    -0.270 OA
ATOM     31  H   UNL     1     109.174  14.558   3.533  0.00  0.00    +0.155 HD
BRANCH  14  15
ATOM     15  C   UNL     1     107.693  13.504   1.681  0.00  0.00    +0.037 A 
ATOM     16  C   UNL     1     107.708  12.044   1.555  0.00  0.00    +0.013 A 
ATOM     17  C   UNL     1     106.487  11.293   1.705  0.00  0.00    +0.005 A 
ATOM     18  C   UNL     1     105.240  12.002   1.986  0.00  0.00    -0.033 A 
ATOM     28  C   UNL     1     105.256  13.450   2.111  0.00  0.00    +0.005 A 
ATOM     29  C   UNL     1     106.450  14.189   1.963  0.00  0.00    +0.013 A 
BRANCH  18  19
ATOM     19  C   UNL     1     103.887  11.283   2.141  0.00  0.00    +0.119 C 
BRANCH  19  20
ATOM     20  N   UNL     1     103.646  10.546   3.418  0.00  0.00    -0.302 NA
ATOM     21  C   UNL     1     104.525  11.069   4.557  0.00  0.00    +0.066 C 
ATOM     22  C   UNL     1     104.245  10.302   5.890  0.00  0.00    -0.064 C 
ATOM     23  N   UNL     1     104.474   8.805   5.672  0.00  0.00    +0.379 N 
ATOM     24  C   UNL     1     104.267   8.087   6.939  0.00  0.00    -0.096 C 
ATOM     25  H   UNL     1     105.539   8.666   5.374  0.00  0.00    -0.082 HD
ATOM     26  C   UNL     1     103.606   8.278   4.539  0.00  0.00    -0.064 C 
ATOM     27  C   UNL     1     103.871   9.066   3.226  0.00  0.00    +0.066 C 
ENDBRANCH  19  20
ENDBRANCH  18  19
ENDBRANCH  14  15
ENDBRANCH  12  13
TORSDOF 6
ENDMDL
MODEL 5
REMARK VINA RESULT:      -8.2     24.670     26.707
REMARK  Name = C:\Users\Docking\Desktop\test protocol\1iep_ligandH.pdb
REMARK  8 active torsions:
REMARK  status: ('A' for Active; 'I' for Inactive)
REMARK    1  A    between atoms: _5  and  _11
REMARK    2  A    between atoms: _19  and  _21
REMARK    3  A    between atoms: _22  and  _66
REMARK    4  A    between atoms: _27  and  _30
REMARK    5  A    between atoms: _32  and  _33
REMARK    6  A    between atoms: _38  and  _43
REMARK    7  A    between atoms: _43  and  _46
REMARK    8  A    between atoms: _53  and  _55
REMARK                            x       y       z     vdW  Elec       q    Type
REMARK                         _______ _______ _______ _____ _____    ______ ____
ROOT
ATOM     10  C   UNL     1     114.505  16.655   0.716  0.00  0.00    +0.038 A 
ATOM     11  C   UNL     1     115.003  15.428   1.225  0.00  0.00    +0.047 A 
ATOM     12  C   UNL     1     115.130  14.256   0.372  0.00  0.00    +0.035 A 
ATOM     32  C   UNL     1     114.743  14.370  -0.995  0.00  0.00    +0.024 A 
ATOM     33  C   UNL     1     114.234  15.609  -1.528  0.00  0.00    +0.007 A 
ATOM     34  C   UNL     1     114.104  16.768  -0.692  0.00  0.00    -0.029 A 
ATOM     35  C   UNL     1     113.546  18.068  -1.316  0.00  0.00    +0.045 C 
ENDROOT
BRANCH  10   9
ATOM      4  C   UNL     1     112.365  19.049   4.283  0.00  0.00    +0.077 A 
ATOM      5  C   UNL     1     111.345  18.049   4.422  0.00  0.00    +0.048 A 
ATOM      6  C   UNL     1     111.404  16.938   3.551  0.00  0.00    +0.116 A 
ATOM      7  N   UNL     1     112.411  16.844   2.615  0.00  0.00    -0.223 NA
ATOM      8  C   UNL     1     113.378  17.827   2.507  0.00  0.00    +0.220 A 
ATOM      9  N   UNL     1     114.405  17.749   1.579  0.00  0.00    -0.283 N 
ATOM     36  H   UNL     1     115.094  18.498   1.525  0.00  0.00    +0.155 HD
ATOM     37  N   UNL     1     113.343  18.898   3.326  0.00  0.00    -0.214 NA
BRANCH   4   3
ATOM      1  C   UNL     1     113.440  22.512   5.750  0.00  0.00    +0.020 A 
ATOM      2  C   UNL     1     113.410  21.343   4.901  0.00  0.00    +0.013 A 
ATOM      3  C   UNL     1     112.441  20.280   5.132  0.00  0.00    +0.019 A 
ATOM     38  C   UNL     1     111.509  20.431   6.239  0.00  0.00    +0.120 A 
ATOM     39  N   UNL     1     111.563  21.566   7.041  0.00  0.00    -0.263 NA
ATOM     40  C   UNL     1     112.492  22.596   6.829  0.00  0.00    +0.111 A 
ENDBRANCH   4   3
ENDBRANCH  10   9
BRANCH  12  13
ATOM     13  N   UNL     1     115.621  12.982   0.835  0.00  0.00    -0.281 N 
ATOM     14  C   UNL     1     116.935  12.611   1.073  0.00  0.00    +0.248 C 
ATOM     30  O   UNL     1     117.910  13.256   0.718  0.00  0.00    -0.270 OA
ATOM     31  H   UNL     1     114.915  12.267   1.008  0.00  0.00    +0.155 HD
BRANCH  14  15
ATOM     15  C   UNL     1     117.204  11.332   1.797  0.00  0.00    +0.037 A 
ATOM     16  C   UNL     1     118.145  10.342   1.267  0.00  0.00    +0.013 A 
ATOM     17  C   UNL     1     118.373   9.108   1.977  0.00  0.00    +0.005 A 
ATOM     18  C   UNL     1     117.659   8.859   3.227  0.00  0.00    -0.033 A 
ATOM     28  C   UNL     1     116.735   9.861   3.733  0.00  0.00    +0.005 A 
ATOM     29  C   UNL     1     116.508  11.070   3.040  0.00  0.00    +0.013 A 
BRANCH  18  19
ATOM     19  C   UNL     1     117.825   7.562   4.041  0.00  0.00    +0.119 C 
BRANCH  19  20
ATOM     20  N   UNL     1     118.926   7.523   5.049  0.00  0.00    -0.302 NA
ATOM     21  C   UNL     1     118.448   7.954   6.438  0.00  0.00    +0.066 C 
ATOM     22  C   UNL     1     119.607   7.886   7.485  0.00  0.00    -0.064 C 
ATOM     23  N   UNL     1     120.768   8.764   7.015  0.00  0.00    +0.379 N 
ATOM     24  C   UNL     1     121.836   8.748   8.025  0.00  0.00    -0.096 C 
ATOM     25  H   UNL     1     120.391   9.810   6.938  0.00  0.00    -0.082 HD
ATOM     26  C   UNL     1     121.248   8.343   5.633  0.00  0.00    -0.064 C 
ATOM     27  C   UNL     1     120.082   8.386   4.606  0.00  0.00    +0.066 C 
ENDBRANCH  19  20
ENDBRANCH  18  19
ENDBRANCH  14  15
ENDBRANCH  12  13
TORSDOF 6
ENDMDL
