MODEL 1
REMARK VINA RESULT:     -11.2      0.000      0.000
REMARK  Name = C:\Users\Docking\Desktop\test protocol\1iep_ligandH.pdb
REMARK  8 active torsions:
REMARK  status: ('A' for Active; 'I' for Inactive)
REMARK    1  A    between atoms: _5  and  _11
REMARK    2  A    between atoms: _19  and  _21
REMARK    3  A    between atoms: _22  and  _66
REMARK    4  A    between atoms: _27  and  _30
REMARK    5  A    between atoms: _32  and  _33
REMARK    6  A    between atoms: _38  and  _43
REMARK    7  A    between atoms: _43  and  _46
REMARK    8  A    between atoms: _53  and  _55
REMARK                            x       y       z     vdW  Elec       q    Type
REMARK                         _______ _______ _______ _____ _____    ______ ____
ROOT
ATOM     10  C   UNL     1      12.019   6.941  34.909  0.00  0.00    +0.038 A 
ATOM     11  C   UNL     1      12.756   6.587  36.068  0.00  0.00    +0.047 A 
ATOM     12  C   UNL     1      14.158   6.211  35.983  0.00  0.00    +0.035 A 
ATOM     32  C   UNL     1      14.780   6.208  34.701  0.00  0.00    +0.024 A 
ATOM     33  C   UNL     1      14.046   6.564  33.512  0.00  0.00    +0.007 A 
ATOM     34  C   UNL     1      12.662   6.934  33.589  0.00  0.00    -0.029 A 
ATOM     35  C   UNL     1      11.923   7.299  32.281  0.00  0.00    +0.045 C 
ENDROOT
BRANCH  10   9
ATOM      4  C   UNL     1       8.561  10.085  36.002  0.00  0.00    +0.077 A 
ATOM      5  C   UNL     1       9.512  11.101  36.349  0.00  0.00    +0.048 A 
ATOM      6  C   UNL     1      10.882  10.772  36.239  0.00  0.00    +0.116 A 
ATOM      7  N   UNL     1      11.261   9.517  35.813  0.00  0.00    -0.223 NA
ATOM      8  C   UNL     1      10.317   8.560  35.487  0.00  0.00    +0.220 A 
ATOM      9  N   UNL     1      10.675   7.294  35.049  0.00  0.00    -0.283 N 
ATOM     36  H   UNL     1       9.949   6.614  34.826  0.00  0.00    +0.155 HD
ATOM     37  N   UNL     1       9.003   8.849  35.585  0.00  0.00    -0.214 NA
BRANCH   4   3
ATOM      1  C   UNL     1       4.762  10.148  35.070  0.00  0.00    +0.020 A 
ATOM      2  C   UNL     1       6.188   9.939  34.960  0.00  0.00    +0.013 A 
ATOM      3  C   UNL     1       7.078  10.281  36.062  0.00  0.00    +0.019 A 
ATOM     38  C   UNL     1       6.489  10.837  37.271  0.00  0.00    +0.120 A 
ATOM     39  N   UNL     1       5.113  11.029  37.348  0.00  0.00    -0.263 NA
ATOM     40  C   UNL     1       4.247  10.705  36.293  0.00  0.00    +0.111 A 
ENDBRANCH   4   3
ENDBRANCH  10   9
BRANCH  12  13
ATOM     13  N   UNL     1      14.955   5.834  37.125  0.00  0.00    -0.281 N 
ATOM     14  C   UNL     1      15.857   6.615  37.828  0.00  0.00    +0.248 C 
ATOM     30  O   UNL     1      16.277   7.698  37.449  0.00  0.00    -0.270 OA
ATOM     31  H   UNL     1      14.839   4.876  37.454  0.00  0.00    +0.155 HD
BRANCH  14  15
ATOM     15  C   UNL     1      16.380   6.114  39.136  0.00  0.00    +0.037 A 
ATOM     16  C   UNL     1      15.680   5.065  39.882  0.00  0.00    +0.013 A 
ATOM     17  C   UNL     1      16.197   4.611  41.149  0.00  0.00    +0.005 A 
ATOM     18  C   UNL     1      17.422   5.207  41.677  0.00  0.00    -0.033 A 
ATOM     28  C   UNL     1      18.099   6.242  40.913  0.00  0.00    +0.005 A 
ATOM     29  C   UNL     1      17.595   6.689  39.672  0.00  0.00    +0.013 A 
BRANCH  18  19
ATOM     19  C   UNL     1      18.034   4.799  43.030  0.00  0.00    +0.119 C 
BRANCH  19  20
ATOM     20  N   UNL     1      17.337   3.726  43.801  0.00  0.00    -0.302 NA
ATOM     21  C   UNL     1      17.231   4.065  45.290  0.00  0.00    +0.066 C 
ATOM     22  C   UNL     1      16.479   2.943  46.077  0.00  0.00    -0.064 C 
ATOM     23  N   UNL     1      17.202   1.610  45.875  0.00  0.00    +0.379 N 
ATOM     24  C   UNL     1      16.531   0.564  46.661  0.00  0.00    -0.096 C 
ATOM     25  H   UNL     1      18.236   1.723  46.275  0.00  0.00    -0.082 HD
ATOM     26  C   UNL     1      17.314   1.267  44.397  0.00  0.00    -0.064 C 
ATOM     27  C   UNL     1      18.037   2.402  43.619  0.00  0.00    +0.066 C 
ENDBRANCH  19  20
ENDBRANCH  18  19
ENDBRANCH  14  15
ENDBRANCH  12  13
TORSDOF 6
ENDMDL
MODEL 2
REMARK VINA RESULT:     -10.9      3.716      5.662
REMARK  Name = C:\Users\Docking\Desktop\test protocol\1iep_ligandH.pdb
REMARK  8 active torsions:
REMARK  status: ('A' for Active; 'I' for Inactive)
REMARK    1  A    between atoms: _5  and  _11
REMARK    2  A    between atoms: _19  and  _21
REMARK    3  A    between atoms: _22  and  _66
REMARK    4  A    between atoms: _27  and  _30
REMARK    5  A    between atoms: _32  and  _33
REMARK    6  A    between atoms: _38  and  _43
REMARK    7  A    between atoms: _43  and  _46
REMARK    8  A    between atoms: _53  and  _55
REMARK                            x       y       z     vdW  Elec       q    Type
REMARK                         _______ _______ _______ _____ _____    ______ ____
ROOT
ATOM     10  C   UNL     1       9.177  10.581  33.253  0.00  0.00    +0.038 A 
ATOM     11  C   UNL     1      10.130   9.722  33.857  0.00  0.00    +0.047 A 
ATOM     12  C   UNL     1      11.488  10.172  34.122  0.00  0.00    +0.035 A 
ATOM     32  C   UNL     1      11.840  11.505  33.761  0.00  0.00    +0.024 A 
ATOM     33  C   UNL     1      10.885  12.391  33.145  0.00  0.00    +0.007 A 
ATOM     34  C   UNL     1       9.545  11.952  32.879  0.00  0.00    -0.029 A 
ATOM     35  C   UNL     1       8.564  12.943  32.211  0.00  0.00    +0.045 C 
ENDROOT
BRANCH  10   9
ATOM      4  C   UNL     1       5.915   8.368  30.515  0.00  0.00    +0.077 A 
ATOM      5  C   UNL     1       6.852   8.184  29.445  0.00  0.00    +0.048 A 
ATOM      6  C   UNL     1       8.161   8.680  29.635  0.00  0.00    +0.116 A 
ATOM      7  N   UNL     1       8.497   9.311  30.814  0.00  0.00    -0.223 NA
ATOM      8  C   UNL     1       7.569   9.473  31.826  0.00  0.00    +0.220 A 
ATOM      9  N   UNL     1       7.888  10.097  33.022  0.00  0.00    -0.283 N 
ATOM     36  H   UNL     1       7.173  10.204  33.741  0.00  0.00    +0.155 HD
ATOM     37  N   UNL     1       6.312   9.009  31.667  0.00  0.00    -0.214 NA
BRANCH   4   3
ATOM      1  C   UNL     1       2.614   6.570  29.432  0.00  0.00    +0.020 A 
ATOM      2  C   UNL     1       3.995   6.996  29.434  0.00  0.00    +0.013 A 
ATOM      3  C   UNL     1       4.495   7.896  30.466  0.00  0.00    +0.019 A 
ATOM     38  C   UNL     1       3.565   8.349  31.489  0.00  0.00    +0.120 A 
ATOM     39  N   UNL     1       2.241   7.923  31.461  0.00  0.00    -0.263 NA
ATOM     40  C   UNL     1       1.748   7.059  30.472  0.00  0.00    +0.111 A 
ENDBRANCH   4   3
ENDBRANCH  10   9
BRANCH  12  13
ATOM     13  N   UNL     1      12.501   9.342  34.726  0.00  0.00    -0.281 N 
ATOM     14  C   UNL     1      12.684   9.063  36.070  0.00  0.00    +0.248 C 
ATOM     30  O   UNL     1      12.130   9.660  36.982  0.00  0.00    -0.270 OA
ATOM     31  H   UNL     1      13.164   8.907  34.084  0.00  0.00    +0.155 HD
BRANCH  14  15
ATOM     15  C   UNL     1      13.629   7.973  36.460  0.00  0.00    +0.037 A 
ATOM     16  C   UNL     1      13.276   6.562  36.284  0.00  0.00    +0.013 A 
ATOM     17  C   UNL     1      14.200   5.530  36.684  0.00  0.00    +0.005 A 
ATOM     18  C   UNL     1      15.488   5.907  37.263  0.00  0.00    -0.033 A 
ATOM     28  C   UNL     1      15.814   7.314  37.421  0.00  0.00    +0.005 A 
ATOM     29  C   UNL     1      14.911   8.328  37.031  0.00  0.00    +0.013 A 
BRANCH  18  19
ATOM     19  C   UNL     1      16.526   4.872  37.737  0.00  0.00    +0.119 C 
BRANCH  19  20
ATOM     20  N   UNL     1      16.584   4.584  39.201  0.00  0.00    -0.302 NA
ATOM     21  C   UNL     1      15.200   4.645  39.854  0.00  0.00    +0.066 C 
ATOM     22  C   UNL     1      15.277   4.319  41.381  0.00  0.00    -0.064 C 
ATOM     23  N   UNL     1      16.240   5.293  42.061  0.00  0.00    +0.379 N 
ATOM     24  C   UNL     1      16.270   5.026  43.506  0.00  0.00    -0.096 C 
ATOM     25  H   UNL     1      15.838   6.323  41.915  0.00  0.00    -0.082 HD
ATOM     26  C   UNL     1      17.618   5.240  41.416  0.00  0.00    -0.064 C 
ATOM     27  C   UNL     1      17.527   5.537  39.893  0.00  0.00    +0.066 C 
ENDBRANCH  19  20
ENDBRANCH  18  19
ENDBRANCH  14  15
ENDBRANCH  12  13
TORSDOF 6
ENDMDL
MODEL 3
REMARK VINA RESULT:     -10.8     10.035     12.519
REMARK  Name = C:\Users\Docking\Desktop\test protocol\1iep_ligandH.pdb
REMARK  8 active torsions:
REMARK  status: ('A' for Active; 'I' for Inactive)
REMARK    1  A    between atoms: _5  and  _11
REMARK    2  A    between atoms: _19  and  _21
REMARK    3  A    between atoms: _22  and  _66
REMARK    4  A    between atoms: _27  and  _30
REMARK    5  A    between atoms: _32  and  _33
REMARK    6  A    between atoms: _38  and  _43
REMARK    7  A    between atoms: _43  and  _46
REMARK    8  A    between atoms: _53  and  _55
REMARK                            x       y       z     vdW  Elec       q    Type
REMARK                         _______ _______ _______ _____ _____    ______ ____
ROOT
ATOM     10  C   UNL     1       4.271   8.119  31.682  0.00  0.00    +0.038 A 
ATOM     11  C   UNL     1       4.746   8.815  32.824  0.00  0.00    +0.047 A 
ATOM     12  C   UNL     1       3.839   9.564  33.679  0.00  0.00    +0.035 A 
ATOM     32  C   UNL     1       2.454   9.583  33.343  0.00  0.00    +0.024 A 
ATOM     33  C   UNL     1       1.955   8.883  32.186  0.00  0.00    +0.007 A 
ATOM     34  C   UNL     1       2.845   8.144  31.337  0.00  0.00    -0.029 A 
ATOM     35  C   UNL     1       2.255   7.417  30.106  0.00  0.00    +0.045 C 
ENDROOT
BRANCH  10   9
ATOM      4  C   UNL     1       8.100   7.922  28.794  0.00  0.00    +0.077 A 
ATOM      5  C   UNL     1       8.276   9.346  28.833  0.00  0.00    +0.048 A 
ATOM      6  C   UNL     1       7.356  10.093  29.602  0.00  0.00    +0.116 A 
ATOM      7  N   UNL     1       6.339   9.454  30.278  0.00  0.00    -0.223 NA
ATOM      8  C   UNL     1       6.197   8.080  30.218  0.00  0.00    +0.220 A 
ATOM      9  N   UNL     1       5.186   7.415  30.896  0.00  0.00    -0.283 N 
ATOM     36  H   UNL     1       5.111   6.401  30.821  0.00  0.00    +0.155 HD
ATOM     37  N   UNL     1       7.062   7.344  29.489  0.00  0.00    -0.214 NA
BRANCH   4   3
ATOM      1  C   UNL     1       9.716   5.829  25.912  0.00  0.00    +0.020 A 
ATOM      2  C   UNL     1       8.825   6.732  26.605  0.00  0.00    +0.013 A 
ATOM      3  C   UNL     1       8.993   6.996  28.028  0.00  0.00    +0.019 A 
ATOM     38  C   UNL     1      10.080   6.327  28.727  0.00  0.00    +0.120 A 
ATOM     39  N   UNL     1      10.920   5.462  28.034  0.00  0.00    -0.263 NA
ATOM     40  C   UNL     1      10.768   5.198  26.664  0.00  0.00    +0.111 A 
ENDBRANCH   4   3
ENDBRANCH  10   9
BRANCH  12  13
ATOM     13  N   UNL     1       4.264  10.296  34.847  0.00  0.00    -0.281 N 
ATOM     14  C   UNL     1       5.290   9.981  35.722  0.00  0.00    +0.248 C 
ATOM     30  O   UNL     1       5.863   8.902  35.756  0.00  0.00    -0.270 OA
ATOM     31  H   UNL     1       3.746  11.150  35.052  0.00  0.00    +0.155 HD
BRANCH  14  15
ATOM     15  C   UNL     1       5.734  11.007  36.714  0.00  0.00    +0.037 A 
ATOM     16  C   UNL     1       4.809  11.549  37.713  0.00  0.00    +0.013 A 
ATOM     17  C   UNL     1       5.258  12.550  38.647  0.00  0.00    +0.005 A 
ATOM     18  C   UNL     1       6.642  13.016  38.588  0.00  0.00    -0.033 A 
ATOM     28  C   UNL     1       7.540  12.457  37.590  0.00  0.00    +0.005 A 
ATOM     29  C   UNL     1       7.103  11.476  36.672  0.00  0.00    +0.013 A 
BRANCH  18  19
ATOM     19  C   UNL     1       7.202  14.097  39.531  0.00  0.00    +0.119 C 
BRANCH  19  20
ATOM     20  N   UNL     1       7.776  15.323  38.901  0.00  0.00    -0.302 NA
ATOM     21  C   UNL     1       7.033  15.712  37.620  0.00  0.00    +0.066 C 
ATOM     22  C   UNL     1       7.632  17.010  36.986  0.00  0.00    -0.064 C 
ATOM     23  N   UNL     1       9.121  16.797  36.707  0.00  0.00    +0.379 N 
ATOM     24  C   UNL     1       9.674  17.995  36.058  0.00  0.00    -0.096 C 
ATOM     25  H   UNL     1       9.212  15.950  35.988  0.00  0.00    -0.082 HD
ATOM     26  C   UNL     1       9.866  16.408  37.976  0.00  0.00    -0.064 C 
ATOM     27  C   UNL     1       9.244  15.134  38.613  0.00  0.00    +0.066 C 
ENDBRANCH  19  20
ENDBRANCH  18  19
ENDBRANCH  14  15
ENDBRANCH  12  13
TORSDOF 6
ENDMDL
MODEL 4
REMARK VINA RESULT:     -10.7      4.183      7.001
REMARK  Name = C:\Users\Docking\Desktop\test protocol\1iep_ligandH.pdb
REMARK  8 active torsions:
REMARK  status: ('A' for Active; 'I' for Inactive)
REMARK    1  A    between atoms: _5  and  _11
REMARK    2  A    between atoms: _19  and  _21
REMARK    3  A    between atoms: _22  and  _66
REMARK    4  A    between atoms: _27  and  _30
REMARK    5  A    between atoms: _32  and  _33
REMARK    6  A    between atoms: _38  and  _43
REMARK    7  A    between atoms: _43  and  _46
REMARK    8  A    between atoms: _53  and  _55
REMARK                            x       y       z     vdW  Elec       q    Type
REMARK                         _______ _______ _______ _____ _____    ______ ____
ROOT
ATOM     10  C   UNL     1       7.073  10.365  32.662  0.00  0.00    +0.038 A 
ATOM     11  C   UNL     1       8.151   9.714  33.314  0.00  0.00    +0.047 A 
ATOM     12  C   UNL     1       9.506  10.236  33.231  0.00  0.00    +0.035 A 
ATOM     32  C   UNL     1       9.727  11.425  32.477  0.00  0.00    +0.024 A 
ATOM     33  C   UNL     1       8.643  12.099  31.807  0.00  0.00    +0.007 A 
ATOM     34  C   UNL     1       7.305  11.588  31.883  0.00  0.00    -0.029 A 
ATOM     35  C   UNL     1       6.182  12.348  31.139  0.00  0.00    +0.045 C 
ENDROOT
BRANCH  10   9
ATOM      4  C   UNL     1       3.406   7.781  30.955  0.00  0.00    +0.077 A 
ATOM      5  C   UNL     1       4.090   7.515  29.722  0.00  0.00    +0.048 A 
ATOM      6  C   UNL     1       5.381   8.068  29.564  0.00  0.00    +0.116 A 
ATOM      7  N   UNL     1       5.936   8.828  30.571  0.00  0.00    -0.223 NA
ATOM      8  C   UNL     1       5.249   9.066  31.747  0.00  0.00    +0.220 A 
ATOM      9  N   UNL     1       5.792   9.820  32.775  0.00  0.00    -0.283 N 
ATOM     36  H   UNL     1       5.250   9.979  33.624  0.00  0.00    +0.155 HD
ATOM     37  N   UNL     1       4.015   8.550  31.921  0.00  0.00    -0.214 NA
BRANCH   4   3
ATOM      1  C   UNL     1       0.015   5.840  30.777  0.00  0.00    +0.020 A 
ATOM      2  C   UNL     1       1.335   6.308  30.425  0.00  0.00    +0.013 A 
ATOM      3  C   UNL     1       2.038   7.263  31.273  0.00  0.00    +0.019 A 
ATOM     38  C   UNL     1       1.372   7.727  32.480  0.00  0.00    +0.120 A 
ATOM     39  N   UNL     1       0.099   7.259  32.793  0.00  0.00    -0.263 NA
ATOM     40  C   UNL     1      -0.587   6.342  31.984  0.00  0.00    +0.111 A 
ENDBRANCH   4   3
ENDBRANCH  10   9
BRANCH  12  13
ATOM     13  N   UNL     1      10.642   9.614  33.866  0.00  0.00    -0.281 N 
ATOM     14  C   UNL     1      11.087   9.780  35.167  0.00  0.00    +0.248 C 
ATOM     30  O   UNL     1      10.699  10.658  35.924  0.00  0.00    -0.270 OA
ATOM     31  H   UNL     1      11.183   8.973  33.285  0.00  0.00    +0.155 HD
BRANCH  14  15
ATOM     15  C   UNL     1      12.124   8.845  35.700  0.00  0.00    +0.037 A 
ATOM     16  C   UNL     1      13.319   9.346  36.384  0.00  0.00    +0.013 A 
ATOM     17  C   UNL     1      14.312   8.423  36.874  0.00  0.00    +0.005 A 
ATOM     18  C   UNL     1      14.112   6.988  36.683  0.00  0.00    -0.033 A 
ATOM     28  C   UNL     1      12.915   6.519  36.006  0.00  0.00    +0.005 A 
ATOM     29  C   UNL     1      11.940   7.420  35.523  0.00  0.00    +0.013 A 
BRANCH  18  19
ATOM     19  C   UNL     1      15.130   5.932  37.154  0.00  0.00    +0.119 C 
BRANCH  19  20
ATOM     20  N   UNL     1      15.680   6.081  38.534  0.00  0.00    -0.302 NA
ATOM     21  C   UNL     1      17.174   6.415  38.524  0.00  0.00    +0.066 C 
ATOM     22  C   UNL     1      17.728   6.589  39.975  0.00  0.00    -0.064 C 
ATOM     23  N   UNL     1      17.465   5.313  40.776  0.00  0.00    +0.379 N 
ATOM     24  C   UNL     1      18.036   5.451  42.123  0.00  0.00    -0.096 C 
ATOM     25  H   UNL     1      17.999   4.478  40.266  0.00  0.00    -0.082 HD
ATOM     26  C   UNL     1      15.981   4.971  40.789  0.00  0.00    -0.064 C 
ATOM     27  C   UNL     1      15.434   4.829  39.341  0.00  0.00    +0.066 C 
ENDBRANCH  19  20
ENDBRANCH  18  19
ENDBRANCH  14  15
ENDBRANCH  12  13
TORSDOF 6
ENDMDL
MODEL 5
REMARK VINA RESULT:     -10.4      6.767     15.646
REMARK  Name = C:\Users\Docking\Desktop\test protocol\1iep_ligandH.pdb
REMARK  8 active torsions:
REMARK  status: ('A' for Active; 'I' for Inactive)
REMARK    1  A    between atoms: _5  and  _11
REMARK    2  A    between atoms: _19  and  _21
REMARK    3  A    between atoms: _22  and  _66
REMARK    4  A    between atoms: _27  and  _30
REMARK    5  A    between atoms: _32  and  _33
REMARK    6  A    between atoms: _38  and  _43
REMARK    7  A    between atoms: _43  and  _46
REMARK    8  A    between atoms: _53  and  _55
REMARK                            x       y       z     vdW  Elec       q    Type
REMARK                         _______ _______ _______ _____ _____    ______ ____
ROOT
ATOM     10  C   UNL     1       7.776  10.393  32.780  0.00  0.00    +0.038 A 
ATOM     11  C   UNL     1       6.563   9.664  32.679  0.00  0.00    +0.047 A 
ATOM     12  C   UNL     1       5.434  10.183  31.923  0.00  0.00    +0.035 A 
ATOM     32  C   UNL     1       5.575  11.448  31.282  0.00  0.00    +0.024 A 
ATOM     33  C   UNL     1       6.799  12.203  31.376  0.00  0.00    +0.007 A 
ATOM     34  C   UNL     1       7.916  11.697  32.121  0.00  0.00    -0.029 A 
ATOM     35  C   UNL     1       9.202  12.553  32.194  0.00  0.00    +0.045 C 
ENDROOT
BRANCH  10   9
ATOM      4  C   UNL     1      11.416   7.311  33.319  0.00  0.00    +0.077 A 
ATOM      5  C   UNL     1      11.184   6.721  32.032  0.00  0.00    +0.048 A 
ATOM      6  C   UNL     1      10.114   7.235  31.266  0.00  0.00    +0.116 A 
ATOM      7  N   UNL     1       9.340   8.262  31.759  0.00  0.00    -0.223 NA
ATOM      8  C   UNL     1       9.589   8.807  33.005  0.00  0.00    +0.220 A 
ATOM      9  N   UNL     1       8.828   9.847  33.519  0.00  0.00    -0.283 N 
ATOM     36  H   UNL     1       9.039  10.216  34.445  0.00  0.00    +0.155 HD
ATOM     37  N   UNL     1      10.604   8.333  33.757  0.00  0.00    -0.214 NA
BRANCH   4   3
ATOM      1  C   UNL     1      13.409   6.309  36.532  0.00  0.00    +0.020 A 
ATOM      2  C   UNL     1      12.319   6.729  35.682  0.00  0.00    +0.013 A 
ATOM      3  C   UNL     1      12.510   6.879  34.245  0.00  0.00    +0.019 A 
ATOM     38  C   UNL     1      13.827   6.593  33.695  0.00  0.00    +0.120 A 
ATOM     39  N   UNL     1      14.858   6.192  34.538  0.00  0.00    -0.263 NA
ATOM     40  C   UNL     1      14.687   6.046  35.923  0.00  0.00    +0.111 A 
ENDBRANCH   4   3
ENDBRANCH  10   9
BRANCH  12  13
ATOM     13  N   UNL     1       4.176   9.491  31.791  0.00  0.00    -0.281 N 
ATOM     14  C   UNL     1       3.799   8.589  30.810  0.00  0.00    +0.248 C 
ATOM     30  O   UNL     1       4.414   8.401  29.771  0.00  0.00    -0.270 OA
ATOM     31  H   UNL     1       3.478   9.691  32.508  0.00  0.00    +0.155 HD
BRANCH  14  15
ATOM     15  C   UNL     1       2.550   7.791  31.004  0.00  0.00    +0.037 A 
ATOM     16  C   UNL     1       2.198   6.697  30.096  0.00  0.00    +0.013 A 
ATOM     17  C   UNL     1       0.979   5.954  30.296  0.00  0.00    +0.005 A 
ATOM     18  C   UNL     1       0.104   6.302  31.412  0.00  0.00    -0.033 A 
ATOM     28  C   UNL     1       0.479   7.388  32.301  0.00  0.00    +0.005 A 
ATOM     29  C   UNL     1       1.673   8.120  32.108  0.00  0.00    +0.013 A 
BRANCH  18  19
ATOM     19  C   UNL     1      -1.227   5.577  31.689  0.00  0.00    +0.119 C 
BRANCH  19  20
ATOM     20  N   UNL     1      -2.113   5.303  30.518  0.00  0.00    -0.302 NA
ATOM     21  C   UNL     1      -2.991   6.508  30.169  0.00  0.00    +0.066 C 
ATOM     22  C   UNL     1      -3.896   6.212  28.928  0.00  0.00    -0.064 C 
ATOM     23  N   UNL     1      -4.755   4.979  29.210  0.00  0.00    +0.379 N 
ATOM     24  C   UNL     1      -5.648   4.732  28.068  0.00  0.00    -0.096 C 
ATOM     25  H   UNL     1      -5.393   5.206  30.096  0.00  0.00    -0.082 HD
ATOM     26  C   UNL     1      -3.890   3.777  29.561  0.00  0.00    -0.064 C 
ATOM     27  C   UNL     1      -2.974   4.091  30.776  0.00  0.00    +0.066 C 
ENDBRANCH  19  20
ENDBRANCH  18  19
ENDBRANCH  14  15
ENDBRANCH  12  13
TORSDOF 6
ENDMDL
