MODEL 1
REMARK VINA RESULT:     -11.0      0.000      0.000
REMARK  Name = C:\Users\Docking\Desktop\test protocol\1iep_ligandH.pdb
REMARK  8 active torsions:
REMARK  status: ('A' for Active; 'I' for Inactive)
REMARK    1  A    between atoms: _5  and  _11
REMARK    2  A    between atoms: _19  and  _21
REMARK    3  A    between atoms: _22  and  _66
REMARK    4  A    between atoms: _27  and  _30
REMARK    5  A    between atoms: _32  and  _33
REMARK    6  A    between atoms: _38  and  _43
REMARK    7  A    between atoms: _43  and  _46
REMARK    8  A    between atoms: _53  and  _55
REMARK                            x       y       z     vdW  Elec       q    Type
REMARK                         _______ _______ _______ _____ _____    ______ ____
ROOT
ATOM     10  C   UNL     1       7.036   9.221  31.456  0.00  0.00    +0.038 A 
ATOM     11  C   UNL     1       8.113   8.676  32.201  0.00  0.00    +0.047 A 
ATOM     12  C   UNL     1       9.342   9.426  32.407  0.00  0.00    +0.035 A 
ATOM     32  C   UNL     1       9.439  10.731  31.842  0.00  0.00    +0.024 A 
ATOM     33  C   UNL     1       8.355  11.301  31.081  0.00  0.00    +0.007 A 
ATOM     34  C   UNL     1       7.141  10.564  30.873  0.00  0.00    -0.029 A 
ATOM     35  C   UNL     1       6.014  11.222  30.043  0.00  0.00    +0.045 C 
ENDROOT
BRANCH  10   9
ATOM      4  C   UNL     1       2.534   8.047  32.634  0.00  0.00    +0.077 A 
ATOM      5  C   UNL     1       2.492   9.019  33.687  0.00  0.00    +0.048 A 
ATOM      6  C   UNL     1       3.653   9.797  33.898  0.00  0.00    +0.116 A 
ATOM      7  N   UNL     1       4.766   9.607  33.108  0.00  0.00    -0.223 NA
ATOM      8  C   UNL     1       4.773   8.659  32.102  0.00  0.00    +0.220 A 
ATOM      9  N   UNL     1       5.879   8.457  31.290  0.00  0.00    -0.283 N 
ATOM     36  H   UNL     1       5.847   7.743  30.563  0.00  0.00    +0.155 HD
ATOM     37  N   UNL     1       3.678   7.903  31.881  0.00  0.00    -0.214 NA
BRANCH   4   3
ATOM      1  C   UNL     1      -0.765   5.955  32.842  0.00  0.00    +0.020 A 
ATOM      2  C   UNL     1       0.322   6.824  33.228  0.00  0.00    +0.013 A 
ATOM      3  C   UNL     1       1.385   7.151  32.286  0.00  0.00    +0.019 A 
ATOM     38  C   UNL     1       1.318   6.577  30.951  0.00  0.00    +0.120 A 
ATOM     39  N   UNL     1       0.260   5.741  30.607  0.00  0.00    -0.263 NA
ATOM     40  C   UNL     1      -0.768   5.419  31.506  0.00  0.00    +0.111 A 
ENDBRANCH   4   3
ENDBRANCH  10   9
BRANCH  12  13
ATOM     13  N   UNL     1      10.471   8.920  33.147  0.00  0.00    -0.281 N 
ATOM     14  C   UNL     1      10.695   8.991  34.512  0.00  0.00    +0.248 C 
ATOM     30  O   UNL     1      10.055   9.691  35.282  0.00  0.00    -0.270 OA
ATOM     31  H   UNL     1      11.193   8.454  32.598  0.00  0.00    +0.155 HD
BRANCH  14  15
ATOM     15  C   UNL     1      11.799   8.176  35.106  0.00  0.00    +0.037 A 
ATOM     16  C   UNL     1      12.966   8.811  35.722  0.00  0.00    +0.013 A 
ATOM     17  C   UNL     1      14.024   8.002  36.272  0.00  0.00    +0.005 A 
ATOM     18  C   UNL     1      13.919   6.546  36.209  0.00  0.00    -0.033 A 
ATOM     28  C   UNL     1      12.747   5.942  35.597  0.00  0.00    +0.005 A 
ATOM     29  C   UNL     1      11.708   6.732  35.056  0.00  0.00    +0.013 A 
BRANCH  18  19
ATOM     19  C   UNL     1      15.010   5.604  36.752  0.00  0.00    +0.119 C 
BRANCH  19  20
ATOM     20  N   UNL     1      15.550   5.896  38.113  0.00  0.00    -0.302 NA
ATOM     21  C   UNL     1      17.014   6.344  38.066  0.00  0.00    +0.066 C 
ATOM     22  C   UNL     1      17.557   6.667  39.496  0.00  0.00    -0.064 C 
ATOM     23  N   UNL     1      17.395   5.436  40.390  0.00  0.00    +0.379 N 
ATOM     24  C   UNL     1      17.957   5.717  41.719  0.00  0.00    -0.096 C 
ATOM     25  H   UNL     1      17.991   4.609  39.938  0.00  0.00    -0.082 HD
ATOM     26  C   UNL     1      15.943   4.983  40.440  0.00  0.00    -0.064 C 
ATOM     27  C   UNL     1      15.404   4.693  39.011  0.00  0.00    +0.066 C 
ENDBRANCH  19  20
ENDBRANCH  18  19
ENDBRANCH  14  15
ENDBRANCH  12  13
TORSDOF 6
ENDMDL
MODEL 2
REMARK VINA RESULT:     -10.6      1.870      3.239
REMARK  Name = C:\Users\Docking\Desktop\test protocol\1iep_ligandH.pdb
REMARK  8 active torsions:
REMARK  status: ('A' for Active; 'I' for Inactive)
REMARK    1  A    between atoms: _5  and  _11
REMARK    2  A    between atoms: _19  and  _21
REMARK    3  A    between atoms: _22  and  _66
REMARK    4  A    between atoms: _27  and  _30
REMARK    5  A    between atoms: _32  and  _33
REMARK    6  A    between atoms: _38  and  _43
REMARK    7  A    between atoms: _43  and  _46
REMARK    8  A    between atoms: _53  and  _55
REMARK                            x       y       z     vdW  Elec       q    Type
REMARK                         _______ _______ _______ _____ _____    ______ ____
ROOT
ATOM     10  C   UNL     1       8.731  10.291  33.676  0.00  0.00    +0.038 A 
ATOM     11  C   UNL     1       9.593   9.424  34.396  0.00  0.00    +0.047 A 
ATOM     12  C   UNL     1      10.943   9.831  34.753  0.00  0.00    +0.035 A 
ATOM     32  C   UNL     1      11.383  11.130  34.363  0.00  0.00    +0.024 A 
ATOM     33  C   UNL     1      10.521  12.024  33.630  0.00  0.00    +0.007 A 
ATOM     34  C   UNL     1       9.189  11.627  33.273  0.00  0.00    -0.029 A 
ATOM     35  C   UNL     1       8.310  12.624  32.481  0.00  0.00    +0.045 C 
ENDROOT
BRANCH  10   9
ATOM      4  C   UNL     1       5.633   7.963  30.845  0.00  0.00    +0.077 A 
ATOM      5  C   UNL     1       6.659   7.621  29.903  0.00  0.00    +0.048 A 
ATOM      6  C   UNL     1       7.970   8.070  30.180  0.00  0.00    +0.116 A 
ATOM      7  N   UNL     1       8.224   8.805  31.318  0.00  0.00    -0.223 NA
ATOM      8  C   UNL     1       7.211   9.118  32.205  0.00  0.00    +0.220 A 
ATOM      9  N   UNL     1       7.445   9.849  33.360  0.00  0.00    -0.283 N 
ATOM     36  H   UNL     1       6.669  10.066  33.985  0.00  0.00    +0.155 HD
ATOM     37  N   UNL     1       5.950   8.703  31.962  0.00  0.00    -0.214 NA
BRANCH   4   3
ATOM      1  C   UNL     1       2.315   6.422  29.460  0.00  0.00    +0.020 A 
ATOM      2  C   UNL     1       3.710   6.786  29.559  0.00  0.00    +0.013 A 
ATOM      3  C   UNL     1       4.199   7.559  30.693  0.00  0.00    +0.019 A 
ATOM     38  C   UNL     1       3.244   7.949  31.720  0.00  0.00    +0.120 A 
ATOM     39  N   UNL     1       1.907   7.584  31.598  0.00  0.00    -0.263 NA
ATOM     40  C   UNL     1       1.424   6.842  30.509  0.00  0.00    +0.111 A 
ENDBRANCH   4   3
ENDBRANCH  10   9
BRANCH  12  13
ATOM     13  N   UNL     1      11.865   8.991  35.476  0.00  0.00    -0.281 N 
ATOM     14  C   UNL     1      12.210   7.677  35.206  0.00  0.00    +0.248 C 
ATOM     30  O   UNL     1      11.614   6.952  34.424  0.00  0.00    -0.270 OA
ATOM     31  H   UNL     1      12.319   9.417  36.284  0.00  0.00    +0.155 HD
BRANCH  14  15
ATOM     15  C   UNL     1      13.379   7.076  35.920  0.00  0.00    +0.037 A 
ATOM     16  C   UNL     1      13.463   5.633  36.158  0.00  0.00    +0.013 A 
ATOM     17  C   UNL     1      14.593   5.082  36.864  0.00  0.00    +0.005 A 
ATOM     18  C   UNL     1      15.649   5.975  37.335  0.00  0.00    -0.033 A 
ATOM     28  C   UNL     1      15.542   7.402  37.079  0.00  0.00    +0.005 A 
ATOM     29  C   UNL     1      14.436   7.946  36.389  0.00  0.00    +0.013 A 
BRANCH  18  19
ATOM     19  C   UNL     1      16.880   5.477  38.114  0.00  0.00    +0.119 C 
BRANCH  19  20
ATOM     20  N   UNL     1      16.664   5.039  39.526  0.00  0.00    -0.302 NA
ATOM     21  C   UNL     1      17.626   5.732  40.495  0.00  0.00    +0.066 C 
ATOM     22  C   UNL     1      17.371   5.280  41.970  0.00  0.00    -0.064 C 
ATOM     23  N   UNL     1      17.509   3.759  42.065  0.00  0.00    +0.379 N 
ATOM     24  C   UNL     1      17.327   3.336  43.461  0.00  0.00    -0.096 C 
ATOM     25  H   UNL     1      18.549   3.494  41.764  0.00  0.00    -0.082 HD
ATOM     26  C   UNL     1      16.558   3.062  41.102  0.00  0.00    -0.064 C 
ATOM     27  C   UNL     1      16.800   3.541  39.643  0.00  0.00    +0.066 C 
ENDBRANCH  19  20
ENDBRANCH  18  19
ENDBRANCH  14  15
ENDBRANCH  12  13
TORSDOF 6
ENDMDL
MODEL 3
REMARK VINA RESULT:      -9.6      4.011      6.485
REMARK  Name = C:\Users\Docking\Desktop\test protocol\1iep_ligandH.pdb
REMARK  8 active torsions:
REMARK  status: ('A' for Active; 'I' for Inactive)
REMARK    1  A    between atoms: _5  and  _11
REMARK    2  A    between atoms: _19  and  _21
REMARK    3  A    between atoms: _22  and  _66
REMARK    4  A    between atoms: _27  and  _30
REMARK    5  A    between atoms: _32  and  _33
REMARK    6  A    between atoms: _38  and  _43
REMARK    7  A    between atoms: _43  and  _46
REMARK    8  A    between atoms: _53  and  _55
REMARK                            x       y       z     vdW  Elec       q    Type
REMARK                         _______ _______ _______ _____ _____    ______ ____
ROOT
ATOM     10  C   UNL     1      12.371   8.652  34.225  0.00  0.00    +0.038 A 
ATOM     11  C   UNL     1      13.080   7.690  34.989  0.00  0.00    +0.047 A 
ATOM     12  C   UNL     1      13.681   8.038  36.267  0.00  0.00    +0.035 A 
ATOM     32  C   UNL     1      13.538   9.375  36.738  0.00  0.00    +0.024 A 
ATOM     33  C   UNL     1      12.821  10.366  35.975  0.00  0.00    +0.007 A 
ATOM     34  C   UNL     1      12.228  10.029  34.712  0.00  0.00    -0.029 A 
ATOM     35  C   UNL     1      11.477  11.133  33.933  0.00  0.00    +0.045 C 
ENDROOT
BRANCH  10   9
ATOM      4  C   UNL     1       8.613   7.902  31.334  0.00  0.00    +0.077 A 
ATOM      5  C   UNL     1       7.678   8.294  32.350  0.00  0.00    +0.048 A 
ATOM      6  C   UNL     1       8.205   8.674  33.605  0.00  0.00    +0.116 A 
ATOM      7  N   UNL     1       9.567   8.660  33.817  0.00  0.00    -0.223 NA
ATOM      8  C   UNL     1      10.440   8.276  32.816  0.00  0.00    +0.220 A 
ATOM      9  N   UNL     1      11.814   8.263  33.004  0.00  0.00    -0.283 N 
ATOM     36  H   UNL     1      12.424   7.966  32.244  0.00  0.00    +0.155 HD
ATOM     37  N   UNL     1       9.962   7.907  31.609  0.00  0.00    -0.214 NA
BRANCH   4   3
ATOM      1  C   UNL     1       8.640   6.307  27.763  0.00  0.00    +0.020 A 
ATOM      2  C   UNL     1       9.076   6.692  29.085  0.00  0.00    +0.013 A 
ATOM      3  C   UNL     1       8.211   7.478  29.956  0.00  0.00    +0.019 A 
ATOM     38  C   UNL     1       6.899   7.860  29.455  0.00  0.00    +0.120 A 
ATOM     39  N   UNL     1       6.506   7.476  28.177  0.00  0.00    -0.263 NA
ATOM     40  C   UNL     1       7.331   6.722  27.329  0.00  0.00    +0.111 A 
ENDBRANCH   4   3
ENDBRANCH  10   9
BRANCH  12  13
ATOM     13  N   UNL     1      14.419   7.106  37.082  0.00  0.00    -0.281 N 
ATOM     14  C   UNL     1      15.793   6.950  37.167  0.00  0.00    +0.248 C 
ATOM     30  O   UNL     1      16.593   7.447  36.389  0.00  0.00    -0.270 OA
ATOM     31  H   UNL     1      13.861   6.485  37.669  0.00  0.00    +0.155 HD
BRANCH  14  15
ATOM     15  C   UNL     1      16.358   6.108  38.265  0.00  0.00    +0.037 A 
ATOM     16  C   UNL     1      15.876   4.746  38.503  0.00  0.00    +0.013 A 
ATOM     17  C   UNL     1      16.426   3.962  39.580  0.00  0.00    +0.005 A 
ATOM     18  C   UNL     1      17.468   4.539  40.427  0.00  0.00    -0.033 A 
ATOM     28  C   UNL     1      17.932   5.891  40.164  0.00  0.00    +0.005 A 
ATOM     29  C   UNL     1      17.394   6.663  39.110  0.00  0.00    +0.013 A 
BRANCH  18  19
ATOM     19  C   UNL     1      18.097   3.783  41.611  0.00  0.00    +0.119 C 
BRANCH  19  20
ATOM     20  N   UNL     1      17.204   3.445  42.759  0.00  0.00    -0.302 NA
ATOM     21  C   UNL     1      17.017   4.631  43.710  0.00  0.00    +0.066 C 
ATOM     22  C   UNL     1      16.061   4.266  44.893  0.00  0.00    -0.064 C 
ATOM     23  N   UNL     1      16.620   3.055  45.641  0.00  0.00    +0.379 N 
ATOM     24  C   UNL     1      15.754   2.746  46.789  0.00  0.00    -0.096 C 
ATOM     25  H   UNL     1      17.622   3.337  46.040  0.00  0.00    -0.082 HD
ATOM     26  C   UNL     1      16.812   1.872  44.703  0.00  0.00    -0.064 C 
ATOM     27  C   UNL     1      17.739   2.254  43.515  0.00  0.00    +0.066 C 
ENDBRANCH  19  20
ENDBRANCH  18  19
ENDBRANCH  14  15
ENDBRANCH  12  13
TORSDOF 6
ENDMDL
MODEL 4
REMARK VINA RESULT:      -9.2      2.930      5.345
REMARK  Name = C:\Users\Docking\Desktop\test protocol\1iep_ligandH.pdb
REMARK  8 active torsions:
REMARK  status: ('A' for Active; 'I' for Inactive)
REMARK    1  A    between atoms: _5  and  _11
REMARK    2  A    between atoms: _19  and  _21
REMARK    3  A    between atoms: _22  and  _66
REMARK    4  A    between atoms: _27  and  _30
REMARK    5  A    between atoms: _32  and  _33
REMARK    6  A    between atoms: _38  and  _43
REMARK    7  A    between atoms: _43  and  _46
REMARK    8  A    between atoms: _53  and  _55
REMARK                            x       y       z     vdW  Elec       q    Type
REMARK                         _______ _______ _______ _____ _____    ______ ____
ROOT
ATOM     10  C   UNL     1      11.187  10.799  34.465  0.00  0.00    +0.038 A 
ATOM     11  C   UNL     1      11.744   9.708  35.180  0.00  0.00    +0.047 A 
ATOM     12  C   UNL     1      12.979   9.855  35.934  0.00  0.00    +0.035 A 
ATOM     32  C   UNL     1      13.620  11.128  35.940  0.00  0.00    +0.024 A 
ATOM     33  C   UNL     1      13.069  12.247  35.217  0.00  0.00    +0.007 A 
ATOM     34  C   UNL     1      11.852  12.108  34.470  0.00  0.00    -0.029 A 
ATOM     35  C   UNL     1      11.309  13.340  33.709  0.00  0.00    +0.045 C 
ENDROOT
BRANCH  10   9
ATOM      4  C   UNL     1       8.385   8.242  31.524  0.00  0.00    +0.077 A 
ATOM      5  C   UNL     1       9.384   7.225  31.361  0.00  0.00    +0.048 A 
ATOM      6  C   UNL     1      10.608   7.401  32.045  0.00  0.00    +0.116 A 
ATOM      7  N   UNL     1      10.806   8.515  32.831  0.00  0.00    -0.223 NA
ATOM      8  C   UNL     1       9.823   9.478  32.966  0.00  0.00    +0.220 A 
ATOM      9  N   UNL     1       9.999  10.602  33.758  0.00  0.00    -0.283 N 
ATOM     36  H   UNL     1       9.252  11.293  33.825  0.00  0.00    +0.155 HD
ATOM     37  N   UNL     1       8.646   9.334  32.322  0.00  0.00    -0.214 NA
BRANCH   4   3
ATOM      1  C   UNL     1       5.425   7.327  29.136  0.00  0.00    +0.020 A 
ATOM      2  C   UNL     1       6.741   7.334  29.733  0.00  0.00    +0.013 A 
ATOM      3  C   UNL     1       7.040   8.197  30.868  0.00  0.00    +0.019 A 
ATOM     38  C   UNL     1       5.977   9.048  31.381  0.00  0.00    +0.120 A 
ATOM     39  N   UNL     1       4.720   9.021  30.786  0.00  0.00    -0.263 NA
ATOM     40  C   UNL     1       4.421   8.196  29.691  0.00  0.00    +0.111 A 
ENDBRANCH   4   3
ENDBRANCH  10   9
BRANCH  12  13
ATOM     13  N   UNL     1      13.596   8.781  36.672  0.00  0.00    -0.281 N 
ATOM     14  C   UNL     1      14.103   7.590  36.180  0.00  0.00    +0.248 C 
ATOM     30  O   UNL     1      13.909   7.172  35.048  0.00  0.00    -0.270 OA
ATOM     31  H   UNL     1      13.668   8.915  37.681  0.00  0.00    +0.155 HD
BRANCH  14  15
ATOM     15  C   UNL     1      14.934   6.732  37.078  0.00  0.00    +0.037 A 
ATOM     16  C   UNL     1      14.419   5.468  37.612  0.00  0.00    +0.013 A 
ATOM     17  C   UNL     1      15.235   4.668  38.490  0.00  0.00    +0.005 A 
ATOM     18  C   UNL     1      16.576   5.129  38.840  0.00  0.00    -0.033 A 
ATOM     28  C   UNL     1      17.064   6.384  38.293  0.00  0.00    +0.005 A 
ATOM     29  C   UNL     1      16.267   7.172  37.432  0.00  0.00    +0.013 A 
BRANCH  18  19
ATOM     19  C   UNL     1      17.508   4.350  39.788  0.00  0.00    +0.119 C 
BRANCH  19  20
ATOM     20  N   UNL     1      17.023   4.113  41.180  0.00  0.00    -0.302 NA
ATOM     21  C   UNL     1      17.136   5.369  42.049  0.00  0.00    +0.066 C 
ATOM     22  C   UNL     1      16.604   5.109  43.496  0.00  0.00    -0.064 C 
ATOM     23  N   UNL     1      17.379   3.947  44.120  0.00  0.00    +0.379 N 
ATOM     24  C   UNL     1      16.921   3.738  45.502  0.00  0.00    -0.096 C 
ATOM     25  H   UNL     1      18.454   4.241  44.161  0.00  0.00    -0.082 HD
ATOM     26  C   UNL     1      17.275   2.695  43.261  0.00  0.00    -0.064 C 
ATOM     27  C   UNL     1      17.778   2.972  41.817  0.00  0.00    +0.066 C 
ENDBRANCH  19  20
ENDBRANCH  18  19
ENDBRANCH  14  15
ENDBRANCH  12  13
TORSDOF 6
ENDMDL
MODEL 5
REMARK VINA RESULT:      -8.4     19.319     20.790
REMARK  Name = C:\Users\Docking\Desktop\test protocol\1iep_ligandH.pdb
REMARK  8 active torsions:
REMARK  status: ('A' for Active; 'I' for Inactive)
REMARK    1  A    between atoms: _5  and  _11
REMARK    2  A    between atoms: _19  and  _21
REMARK    3  A    between atoms: _22  and  _66
REMARK    4  A    between atoms: _27  and  _30
REMARK    5  A    between atoms: _32  and  _33
REMARK    6  A    between atoms: _38  and  _43
REMARK    7  A    between atoms: _43  and  _46
REMARK    8  A    between atoms: _53  and  _55
REMARK                            x       y       z     vdW  Elec       q    Type
REMARK                         _______ _______ _______ _____ _____    ______ ____
ROOT
ATOM     10  C   UNL     1       8.874 -10.394  25.263  0.00  0.00    +0.038 A 
ATOM     11  C   UNL     1       9.822 -10.737  26.260  0.00  0.00    +0.047 A 
ATOM     12  C   UNL     1       9.408 -11.033  27.623  0.00  0.00    +0.035 A 
ATOM     32  C   UNL     1       8.018 -10.975  27.934  0.00  0.00    +0.024 A 
ATOM     33  C   UNL     1       7.041 -10.628  26.933  0.00  0.00    +0.007 A 
ATOM     34  C   UNL     1       7.444 -10.332  25.588  0.00  0.00    -0.029 A 
ATOM     35  C   UNL     1       6.353  -9.959  24.557  0.00  0.00    +0.045 C 
ENDROOT
BRANCH  10   9
ATOM      4  C   UNL     1      10.423  -7.366  21.876  0.00  0.00    +0.077 A 
ATOM      5  C   UNL     1      10.292  -6.233  22.746  0.00  0.00    +0.048 A 
ATOM      6  C   UNL     1       9.816  -6.471  24.055  0.00  0.00    +0.116 A 
ATOM      7  N   UNL     1       9.498  -7.752  24.454  0.00  0.00    -0.223 NA
ATOM      8  C   UNL     1       9.634  -8.822  23.589  0.00  0.00    +0.220 A 
ATOM      9  N   UNL     1       9.327 -10.119  23.971  0.00  0.00    -0.283 N 
ATOM     36  H   UNL     1       9.434 -10.881  23.301  0.00  0.00    +0.155 HD
ATOM     37  N   UNL     1      10.085  -8.621  22.333  0.00  0.00    -0.214 NA
BRANCH   4   3
ATOM      1  C   UNL     1      12.364  -8.048  18.550  0.00  0.00    +0.020 A 
ATOM      2  C   UNL     1      11.923  -8.177  19.920  0.00  0.00    +0.013 A 
ATOM      3  C   UNL     1      10.915  -7.277  20.465  0.00  0.00    +0.019 A 
ATOM     38  C   UNL     1      10.369  -6.249  19.592  0.00  0.00    +0.120 A 
ATOM     39  N   UNL     1      10.814  -6.148  18.277  0.00  0.00    -0.263 NA
ATOM     40  C   UNL     1      11.784  -7.008  17.742  0.00  0.00    +0.111 A 
ENDBRANCH   4   3
ENDBRANCH  10   9
BRANCH  12  13
ATOM     13  N   UNL     1      10.326 -11.379  28.679  0.00  0.00    -0.281 N 
ATOM     14  C   UNL     1      11.533 -10.774  28.991  0.00  0.00    +0.248 C 
ATOM     30  O   UNL     1      12.111  -9.973  28.270  0.00  0.00    -0.270 OA
ATOM     31  H   UNL     1      10.054 -12.165  29.269  0.00  0.00    +0.155 HD
BRANCH  14  15
ATOM     15  C   UNL     1      12.201 -11.118  30.283  0.00  0.00    +0.037 A 
ATOM     16  C   UNL     1      13.364 -10.366  30.760  0.00  0.00    +0.013 A 
ATOM     17  C   UNL     1      14.000 -10.729  32.002  0.00  0.00    +0.005 A 
ATOM     18  C   UNL     1      13.473 -11.851  32.775  0.00  0.00    -0.033 A 
ATOM     28  C   UNL     1      12.315 -12.576  32.280  0.00  0.00    +0.005 A 
ATOM     29  C   UNL     1      11.689 -12.223  31.064  0.00  0.00    +0.013 A 
BRANCH  18  19
ATOM     19  C   UNL     1      14.101 -12.322  34.100  0.00  0.00    +0.119 C 
BRANCH  19  20
ATOM     20  N   UNL     1      13.634 -13.629  34.652  0.00  0.00    -0.302 NA
ATOM     21  C   UNL     1      13.361 -13.552  36.157  0.00  0.00    +0.066 C 
ATOM     22  C   UNL     1      12.851 -14.922  36.713  0.00  0.00    -0.064 C 
ATOM     23  N   UNL     1      13.881 -16.009  36.404  0.00  0.00    +0.379 N 
ATOM     24  C   UNL     1      13.433 -17.287  36.977  0.00  0.00    -0.096 C 
ATOM     25  H   UNL     1      14.833 -15.727  36.911  0.00  0.00    -0.082 HD
ATOM     26  C   UNL     1      14.161 -16.090  34.910  0.00  0.00    -0.064 C 
ATOM     27  C   UNL     1      14.639 -14.717  34.362  0.00  0.00    +0.066 C 
ENDBRANCH  19  20
ENDBRANCH  18  19
ENDBRANCH  14  15
ENDBRANCH  12  13
TORSDOF 6
ENDMDL
