MODEL 1
REMARK VINA RESULT:     -10.4      0.000      0.000
REMARK  Name = C:\Users\Docking\Desktop\test protocol\1iep_ligandH.pdb
REMARK  8 active torsions:
REMARK  status: ('A' for Active; 'I' for Inactive)
REMARK    1  A    between atoms: _5  and  _11
REMARK    2  A    between atoms: _19  and  _21
REMARK    3  A    between atoms: _22  and  _66
REMARK    4  A    between atoms: _27  and  _30
REMARK    5  A    between atoms: _32  and  _33
REMARK    6  A    between atoms: _38  and  _43
REMARK    7  A    between atoms: _43  and  _46
REMARK    8  A    between atoms: _53  and  _55
REMARK                            x       y       z     vdW  Elec       q    Type
REMARK                         _______ _______ _______ _____ _____    ______ ____
ROOT
ATOM     10  C   UNL     1       7.508   9.550  31.784  0.00  0.00    +0.038 A 
ATOM     11  C   UNL     1       6.375   8.731  32.020  0.00  0.00    +0.047 A 
ATOM     12  C   UNL     1       5.237   8.740  31.114  0.00  0.00    +0.035 A 
ATOM     32  C   UNL     1       5.289   9.595  29.974  0.00  0.00    +0.024 A 
ATOM     33  C   UNL     1       6.432  10.435  29.719  0.00  0.00    +0.007 A 
ATOM     34  C   UNL     1       7.556  10.432  30.612  0.00  0.00    -0.029 A 
ATOM     35  C   UNL     1       8.752  11.359  30.292  0.00  0.00    +0.045 C 
ENDROOT
BRANCH  10   9
ATOM      4  C   UNL     1      11.569   7.599  33.440  0.00  0.00    +0.077 A 
ATOM      5  C   UNL     1      11.555   6.574  32.436  0.00  0.00    +0.048 A 
ATOM      6  C   UNL     1      10.481   6.579  31.518  0.00  0.00    +0.116 A 
ATOM      7  N   UNL     1       9.501   7.544  31.605  0.00  0.00    -0.223 NA
ATOM      8  C   UNL     1       9.543   8.517  32.586  0.00  0.00    +0.220 A 
ATOM      9  N   UNL     1       8.572   9.502  32.687  0.00  0.00    -0.283 N 
ATOM     36  H   UNL     1       8.636  10.198  33.430  0.00  0.00    +0.155 HD
ATOM     37  N   UNL     1      10.557   8.533  33.476  0.00  0.00    -0.214 NA
BRANCH   4   3
ATOM      1  C   UNL     1      14.469   6.780  35.933  0.00  0.00    +0.020 A 
ATOM      2  C   UNL     1      13.449   6.602  34.926  0.00  0.00    +0.013 A 
ATOM      3  C   UNL     1      12.638   7.728  34.479  0.00  0.00    +0.019 A 
ATOM     38  C   UNL     1      12.888   9.031  35.076  0.00  0.00    +0.120 A 
ATOM     39  N   UNL     1      13.877   9.172  36.045  0.00  0.00    -0.263 NA
ATOM     40  C   UNL     1      14.662   8.096  36.483  0.00  0.00    +0.111 A 
ENDBRANCH   4   3
ENDBRANCH  10   9
BRANCH  12  13
ATOM     13  N   UNL     1       4.056   7.936  31.306  0.00  0.00    -0.281 N 
ATOM     14  C   UNL     1       2.871   8.298  31.924  0.00  0.00    +0.248 C 
ATOM     30  O   UNL     1       2.723   9.307  32.598  0.00  0.00    -0.270 OA
ATOM     31  H   UNL     1       4.100   6.983  30.943  0.00  0.00    +0.155 HD
BRANCH  14  15
ATOM     15  C   UNL     1       1.681   7.404  31.786  0.00  0.00    +0.037 A 
ATOM     16  C   UNL     1       1.533   6.510  30.634  0.00  0.00    +0.013 A 
ATOM     17  C   UNL     1       0.367   5.670  30.516  0.00  0.00    +0.005 A 
ATOM     18  C   UNL     1      -0.659   5.719  31.555  0.00  0.00    -0.033 A 
ATOM     28  C   UNL     1      -0.484   6.611  32.689  0.00  0.00    +0.005 A 
ATOM     29  C   UNL     1       0.657   7.436  32.808  0.00  0.00    +0.013 A 
BRANCH  18  19
ATOM     19  C   UNL     1      -1.945   4.873  31.501  0.00  0.00    +0.119 C 
BRANCH  19  20
ATOM     20  N   UNL     1      -3.243   5.607  31.412  0.00  0.00    -0.302 NA
ATOM     21  C   UNL     1      -4.424   4.740  31.856  0.00  0.00    +0.066 C 
ATOM     22  C   UNL     1      -5.771   5.531  31.779  0.00  0.00    -0.064 C 
ATOM     23  N   UNL     1      -5.979   6.040  30.351  0.00  0.00    +0.379 N 
ATOM     24  C   UNL     1      -7.272   6.734  30.262  0.00  0.00    -0.096 C 
ATOM     25  H   UNL     1      -6.024   5.152  29.679  0.00  0.00    -0.082 HD
ATOM     26  C   UNL     1      -4.807   6.901  29.901  0.00  0.00    -0.064 C 
ATOM     27  C   UNL     1      -3.470   6.115  30.010  0.00  0.00    +0.066 C 
ENDBRANCH  19  20
ENDBRANCH  18  19
ENDBRANCH  14  15
ENDBRANCH  12  13
TORSDOF 6
ENDMDL
MODEL 2
REMARK VINA RESULT:     -10.0     10.174     16.039
REMARK  Name = C:\Users\Docking\Desktop\test protocol\1iep_ligandH.pdb
REMARK  8 active torsions:
REMARK  status: ('A' for Active; 'I' for Inactive)
REMARK    1  A    between atoms: _5  and  _11
REMARK    2  A    between atoms: _19  and  _21
REMARK    3  A    between atoms: _22  and  _66
REMARK    4  A    between atoms: _27  and  _30
REMARK    5  A    between atoms: _32  and  _33
REMARK    6  A    between atoms: _38  and  _43
REMARK    7  A    between atoms: _43  and  _46
REMARK    8  A    between atoms: _53  and  _55
REMARK                            x       y       z     vdW  Elec       q    Type
REMARK                         _______ _______ _______ _____ _____    ______ ____
ROOT
ATOM     10  C   UNL     1      12.663   7.928  35.283  0.00  0.00    +0.038 A 
ATOM     11  C   UNL     1      13.340   7.473  36.444  0.00  0.00    +0.047 A 
ATOM     12  C   UNL     1      14.278   6.363  36.380  0.00  0.00    +0.035 A 
ATOM     32  C   UNL     1      14.504   5.741  35.118  0.00  0.00    +0.024 A 
ATOM     33  C   UNL     1      13.824   6.190  33.929  0.00  0.00    +0.007 A 
ATOM     34  C   UNL     1      12.896   7.283  33.986  0.00  0.00    -0.029 A 
ATOM     35  C   UNL     1      12.190   7.719  32.680  0.00  0.00    +0.045 C 
ENDROOT
BRANCH  10   9
ATOM      4  C   UNL     1      11.703  12.622  35.584  0.00  0.00    +0.077 A 
ATOM      5  C   UNL     1      13.093  12.970  35.528  0.00  0.00    +0.048 A 
ATOM      6  C   UNL     1      14.024  11.911  35.429  0.00  0.00    +0.116 A 
ATOM      7  N   UNL     1      13.585  10.605  35.390  0.00  0.00    -0.223 NA
ATOM      8  C   UNL     1      12.237  10.304  35.448  0.00  0.00    +0.220 A 
ATOM      9  N   UNL     1      11.773   8.998  35.402  0.00  0.00    -0.283 N 
ATOM     36  H   UNL     1      10.771   8.817  35.455  0.00  0.00    +0.155 HD
ATOM     37  N   UNL     1      11.328  11.297  35.544  0.00  0.00    -0.214 NA
BRANCH   4   3
ATOM      1  C   UNL     1       9.571  15.877  35.189  0.00  0.00    +0.020 A 
ATOM      2  C   UNL     1      10.665  14.942  35.060  0.00  0.00    +0.013 A 
ATOM      3  C   UNL     1      10.599  13.628  35.686  0.00  0.00    +0.019 A 
ATOM     38  C   UNL     1       9.402  13.287  36.441  0.00  0.00    +0.120 A 
ATOM     39  N   UNL     1       8.365  14.209  36.549  0.00  0.00    -0.263 NA
ATOM     40  C   UNL     1       8.418  15.477  35.952  0.00  0.00    +0.111 A 
ENDBRANCH   4   3
ENDBRANCH  10   9
BRANCH  12  13
ATOM     13  N   UNL     1      14.988   5.852  37.526  0.00  0.00    -0.281 N 
ATOM     14  C   UNL     1      16.237   6.230  37.992  0.00  0.00    +0.248 C 
ATOM     30  O   UNL     1      17.028   6.920  37.367  0.00  0.00    -0.270 OA
ATOM     31  H   UNL     1      14.513   5.122  38.058  0.00  0.00    +0.155 HD
BRANCH  14  15
ATOM     15  C   UNL     1      16.675   5.763  39.343  0.00  0.00    +0.037 A 
ATOM     16  C   UNL     1      16.217   4.484  39.890  0.00  0.00    +0.013 A 
ATOM     17  C   UNL     1      16.641   4.065  41.203  0.00  0.00    +0.005 A 
ATOM     18  C   UNL     1      17.531   4.927  41.976  0.00  0.00    -0.033 A 
ATOM     28  C   UNL     1      17.975   6.189  41.407  0.00  0.00    +0.005 A 
ATOM     29  C   UNL     1      17.560   6.603  40.122  0.00  0.00    +0.013 A 
BRANCH  18  19
ATOM     19  C   UNL     1      18.018   4.570  43.394  0.00  0.00    +0.119 C 
BRANCH  19  20
ATOM     20  N   UNL     1      17.284   3.489  44.116  0.00  0.00    -0.302 NA
ATOM     21  C   UNL     1      17.073   3.827  45.595  0.00  0.00    +0.066 C 
ATOM     22  C   UNL     1      16.284   2.695  46.330  0.00  0.00    -0.064 C 
ATOM     23  N   UNL     1      17.036   1.372  46.179  0.00  0.00    +0.379 N 
ATOM     24  C   UNL     1      16.328   0.317  46.919  0.00  0.00    -0.096 C 
ATOM     25  H   UNL     1      18.040   1.498  46.649  0.00  0.00    -0.082 HD
ATOM     26  C   UNL     1      17.253   1.029  44.712  0.00  0.00    -0.064 C 
ATOM     27  C   UNL     1      18.012   2.174  43.984  0.00  0.00    +0.066 C 
ENDBRANCH  19  20
ENDBRANCH  18  19
ENDBRANCH  14  15
ENDBRANCH  12  13
TORSDOF 6
ENDMDL
MODEL 3
REMARK VINA RESULT:      -9.9      8.422     14.838
REMARK  Name = C:\Users\Docking\Desktop\test protocol\1iep_ligandH.pdb
REMARK  8 active torsions:
REMARK  status: ('A' for Active; 'I' for Inactive)
REMARK    1  A    between atoms: _5  and  _11
REMARK    2  A    between atoms: _19  and  _21
REMARK    3  A    between atoms: _22  and  _66
REMARK    4  A    between atoms: _27  and  _30
REMARK    5  A    between atoms: _32  and  _33
REMARK    6  A    between atoms: _38  and  _43
REMARK    7  A    between atoms: _43  and  _46
REMARK    8  A    between atoms: _53  and  _55
REMARK                            x       y       z     vdW  Elec       q    Type
REMARK                         _______ _______ _______ _____ _____    ______ ____
ROOT
ATOM     10  C   UNL     1      10.936   9.623  34.078  0.00  0.00    +0.038 A 
ATOM     11  C   UNL     1      11.943   8.995  34.855  0.00  0.00    +0.047 A 
ATOM     12  C   UNL     1      12.415   7.657  34.536  0.00  0.00    +0.035 A 
ATOM     32  C   UNL     1      11.842   6.987  33.416  0.00  0.00    +0.024 A 
ATOM     33  C   UNL     1      10.817   7.610  32.616  0.00  0.00    +0.007 A 
ATOM     34  C   UNL     1      10.345   8.929  32.928  0.00  0.00    -0.029 A 
ATOM     35  C   UNL     1       9.239   9.545  32.039  0.00  0.00    +0.045 C 
ENDROOT
BRANCH  10   9
ATOM      4  C   UNL     1       8.249  12.643  36.666  0.00  0.00    +0.077 A 
ATOM      5  C   UNL     1       7.599  11.566  37.357  0.00  0.00    +0.048 A 
ATOM      6  C   UNL     1       7.980  10.250  37.011  0.00  0.00    +0.116 A 
ATOM      7  N   UNL     1       8.940  10.038  36.046  0.00  0.00    -0.223 NA
ATOM      8  C   UNL     1       9.546  11.099  35.398  0.00  0.00    +0.220 A 
ATOM      9  N   UNL     1      10.520  10.909  34.430  0.00  0.00    -0.283 N 
ATOM     36  H   UNL     1      10.938  11.717  33.970  0.00  0.00    +0.155 HD
ATOM     37  N   UNL     1       9.199  12.365  35.709  0.00  0.00    -0.214 NA
BRANCH   4   3
ATOM      1  C   UNL     1       8.099  16.537  36.331  0.00  0.00    +0.020 A 
ATOM      2  C   UNL     1       8.408  15.156  36.038  0.00  0.00    +0.013 A 
ATOM      3  C   UNL     1       7.957  14.089  36.922  0.00  0.00    +0.019 A 
ATOM     38  C   UNL     1       7.188  14.455  38.101  0.00  0.00    +0.120 A 
ATOM     39  N   UNL     1       6.906  15.793  38.358  0.00  0.00    -0.263 NA
ATOM     40  C   UNL     1       7.337  16.829  37.516  0.00  0.00    +0.111 A 
ENDBRANCH   4   3
ENDBRANCH  10   9
BRANCH  12  13
ATOM     13  N   UNL     1      13.429   6.966  35.293  0.00  0.00    -0.281 N 
ATOM     14  C   UNL     1      14.371   7.511  36.151  0.00  0.00    +0.248 C 
ATOM     30  O   UNL     1      14.622   8.704  36.234  0.00  0.00    -0.270 OA
ATOM     31  H   UNL     1      13.456   5.952  35.184  0.00  0.00    +0.155 HD
BRANCH  14  15
ATOM     15  C   UNL     1      15.156   6.597  37.036  0.00  0.00    +0.037 A 
ATOM     16  C   UNL     1      16.586   6.813  37.274  0.00  0.00    +0.013 A 
ATOM     17  C   UNL     1      17.324   5.906  38.117  0.00  0.00    +0.005 A 
ATOM     18  C   UNL     1      16.632   4.775  38.731  0.00  0.00    -0.033 A 
ATOM     28  C   UNL     1      15.212   4.588  38.482  0.00  0.00    +0.005 A 
ATOM     29  C   UNL     1      14.486   5.473  37.655  0.00  0.00    +0.013 A 
BRANCH  18  19
ATOM     19  C   UNL     1      17.344   3.746  39.628  0.00  0.00    +0.119 C 
BRANCH  19  20
ATOM     20  N   UNL     1      16.937   3.692  41.064  0.00  0.00    -0.302 NA
ATOM     21  C   UNL     1      16.899   5.083  41.703  0.00  0.00    +0.066 C 
ATOM     22  C   UNL     1      16.449   5.011  43.198  0.00  0.00    -0.064 C 
ATOM     23  N   UNL     1      17.394   4.086  43.968  0.00  0.00    +0.379 N 
ATOM     24  C   UNL     1      17.009   4.062  45.386  0.00  0.00    -0.096 C 
ATOM     25  H   UNL     1      18.419   4.521  43.903  0.00  0.00    -0.082 HD
ATOM     26  C   UNL     1      17.440   2.702  43.338  0.00  0.00    -0.064 C 
ATOM     27  C   UNL     1      17.859   2.788  41.843  0.00  0.00    +0.066 C 
ENDBRANCH  19  20
ENDBRANCH  18  19
ENDBRANCH  14  15
ENDBRANCH  12  13
TORSDOF 6
ENDMDL
MODEL 4
REMARK VINA RESULT:      -9.9      7.077     15.450
REMARK  Name = C:\Users\Docking\Desktop\test protocol\1iep_ligandH.pdb
REMARK  8 active torsions:
REMARK  status: ('A' for Active; 'I' for Inactive)
REMARK    1  A    between atoms: _5  and  _11
REMARK    2  A    between atoms: _19  and  _21
REMARK    3  A    between atoms: _22  and  _66
REMARK    4  A    between atoms: _27  and  _30
REMARK    5  A    between atoms: _32  and  _33
REMARK    6  A    between atoms: _38  and  _43
REMARK    7  A    between atoms: _43  and  _46
REMARK    8  A    between atoms: _53  and  _55
REMARK                            x       y       z     vdW  Elec       q    Type
REMARK                         _______ _______ _______ _____ _____    ______ ____
ROOT
ATOM     10  C   UNL     1       8.687  10.631  33.773  0.00  0.00    +0.038 A 
ATOM     11  C   UNL     1       9.928  11.287  33.978  0.00  0.00    +0.047 A 
ATOM     12  C   UNL     1      10.279  11.844  35.275  0.00  0.00    +0.035 A 
ATOM     32  C   UNL     1       9.344  11.713  36.342  0.00  0.00    +0.024 A 
ATOM     33  C   UNL     1       8.078  11.050  36.151  0.00  0.00    +0.007 A 
ATOM     34  C   UNL     1       7.725  10.500  34.874  0.00  0.00    -0.029 A 
ATOM     35  C   UNL     1       6.351   9.806  34.725  0.00  0.00    +0.045 C 
ENDROOT
BRANCH  10   9
ATOM      4  C   UNL     1       9.160   7.291  30.359  0.00  0.00    +0.077 A 
ATOM      5  C   UNL     1      10.075   6.523  31.154  0.00  0.00    +0.048 A 
ATOM      6  C   UNL     1      10.403   7.026  32.432  0.00  0.00    +0.116 A 
ATOM      7  N   UNL     1       9.852   8.210  32.873  0.00  0.00    -0.223 NA
ATOM      8  C   UNL     1       8.974   8.926  32.081  0.00  0.00    +0.220 A 
ATOM      9  N   UNL     1       8.401  10.115  32.507  0.00  0.00    -0.283 N 
ATOM     36  H   UNL     1       7.764  10.617  31.890  0.00  0.00    +0.155 HD
ATOM     37  N   UNL     1       8.646   8.468  30.855  0.00  0.00    -0.214 NA
BRANCH   4   3
ATOM      1  C   UNL     1       9.080   5.780  26.752  0.00  0.00    +0.020 A 
ATOM      2  C   UNL     1       9.560   6.144  28.065  0.00  0.00    +0.013 A 
ATOM      3  C   UNL     1       8.713   6.889  28.988  0.00  0.00    +0.019 A 
ATOM     38  C   UNL     1       7.375   7.252  28.548  0.00  0.00    +0.120 A 
ATOM     39  N   UNL     1       6.940   6.889  27.277  0.00  0.00    -0.263 NA
ATOM     40  C   UNL     1       7.747   6.174  26.379  0.00  0.00    +0.111 A 
ENDBRANCH   4   3
ENDBRANCH  10   9
BRANCH  12  13
ATOM     13  N   UNL     1      11.520  12.529  35.540  0.00  0.00    -0.281 N 
ATOM     14  C   UNL     1      12.808  12.029  35.434  0.00  0.00    +0.248 C 
ATOM     30  O   UNL     1      13.081  10.845  35.298  0.00  0.00    -0.270 OA
ATOM     31  H   UNL     1      11.440  13.499  35.843  0.00  0.00    +0.155 HD
BRANCH  14  15
ATOM     15  C   UNL     1      13.960  12.979  35.501  0.00  0.00    +0.037 A 
ATOM     16  C   UNL     1      14.957  13.042  34.430  0.00  0.00    +0.013 A 
ATOM     17  C   UNL     1      16.067  13.956  34.529  0.00  0.00    +0.005 A 
ATOM     18  C   UNL     1      16.185  14.816  35.704  0.00  0.00    -0.033 A 
ATOM     28  C   UNL     1      15.179  14.736  36.749  0.00  0.00    +0.005 A 
ATOM     29  C   UNL     1      14.089  13.841  36.657  0.00  0.00    +0.013 A 
BRANCH  18  19
ATOM     19  C   UNL     1      17.348  15.806  35.903  0.00  0.00    +0.119 C 
BRANCH  19  20
ATOM     20  N   UNL     1      18.734  15.251  35.855  0.00  0.00    -0.302 NA
ATOM     21  C   UNL     1      19.126  14.570  37.170  0.00  0.00    +0.066 C 
ATOM     22  C   UNL     1      20.570  13.976  37.095  0.00  0.00    -0.064 C 
ATOM     23  N   UNL     1      21.559  15.089  36.746  0.00  0.00    +0.379 N 
ATOM     24  C   UNL     1      22.925  14.545  36.731  0.00  0.00    -0.096 C 
ATOM     25  H   UNL     1      21.507  15.853  37.556  0.00  0.00    -0.082 HD
ATOM     26  C   UNL     1      21.175  15.773  35.441  0.00  0.00    -0.064 C 
ATOM     27  C   UNL     1      19.728  16.334  35.516  0.00  0.00    +0.066 C 
ENDBRANCH  19  20
ENDBRANCH  18  19
ENDBRANCH  14  15
ENDBRANCH  12  13
TORSDOF 6
ENDMDL
MODEL 5
REMARK VINA RESULT:      -9.7      7.022     14.893
REMARK  Name = C:\Users\Docking\Desktop\test protocol\1iep_ligandH.pdb
REMARK  8 active torsions:
REMARK  status: ('A' for Active; 'I' for Inactive)
REMARK    1  A    between atoms: _5  and  _11
REMARK    2  A    between atoms: _19  and  _21
REMARK    3  A    between atoms: _22  and  _66
REMARK    4  A    between atoms: _27  and  _30
REMARK    5  A    between atoms: _32  and  _33
REMARK    6  A    between atoms: _38  and  _43
REMARK    7  A    between atoms: _43  and  _46
REMARK    8  A    between atoms: _53  and  _55
REMARK                            x       y       z     vdW  Elec       q    Type
REMARK                         _______ _______ _______ _____ _____    ______ ____
ROOT
ATOM     10  C   UNL     1       8.532  10.697  33.661  0.00  0.00    +0.038 A 
ATOM     11  C   UNL     1       9.783  11.327  33.886  0.00  0.00    +0.047 A 
ATOM     12  C   UNL     1      10.113  11.902  35.181  0.00  0.00    +0.035 A 
ATOM     32  C   UNL     1       9.147  11.815  36.225  0.00  0.00    +0.024 A 
ATOM     33  C   UNL     1       7.871  11.178  36.013  0.00  0.00    +0.007 A 
ATOM     34  C   UNL     1       7.538  10.612  34.738  0.00  0.00    -0.029 A 
ATOM     35  C   UNL     1       6.153   9.947  34.566  0.00  0.00    +0.045 C 
ENDROOT
BRANCH  10   9
ATOM      4  C   UNL     1       9.093   7.327  30.290  0.00  0.00    +0.077 A 
ATOM      5  C   UNL     1      10.011   6.583  31.102  0.00  0.00    +0.048 A 
ATOM      6  C   UNL     1      10.319   7.105  32.379  0.00  0.00    +0.116 A 
ATOM      7  N   UNL     1       9.744   8.284  32.801  0.00  0.00    -0.223 NA
ATOM      8  C   UNL     1       8.863   8.978  31.991  0.00  0.00    +0.220 A 
ATOM      9  N   UNL     1       8.268  10.162  32.398  0.00  0.00    -0.283 N 
ATOM     36  H   UNL     1       7.629  10.647  31.769  0.00  0.00    +0.155 HD
ATOM     37  N   UNL     1       8.555   8.501  30.767  0.00  0.00    -0.214 NA
BRANCH   4   3
ATOM      1  C   UNL     1       9.075   5.777  26.698  0.00  0.00    +0.020 A 
ATOM      2  C   UNL     1       9.536   6.163  28.012  0.00  0.00    +0.013 A 
ATOM      3  C   UNL     1       8.666   6.902  28.919  0.00  0.00    +0.019 A 
ATOM     38  C   UNL     1       7.326   7.237  28.462  0.00  0.00    +0.120 A 
ATOM     39  N   UNL     1       6.910   6.853  27.191  0.00  0.00    -0.263 NA
ATOM     40  C   UNL     1       7.738   6.143  26.309  0.00  0.00    +0.111 A 
ENDBRANCH   4   3
ENDBRANCH  10   9
BRANCH  12  13
ATOM     13  N   UNL     1      11.363  12.562  35.466  0.00  0.00    -0.281 N 
ATOM     14  C   UNL     1      12.603  11.982  35.677  0.00  0.00    +0.248 C 
ATOM     30  O   UNL     1      12.785  10.788  35.864  0.00  0.00    -0.270 OA
ATOM     31  H   UNL     1      11.330  13.580  35.519  0.00  0.00    +0.155 HD
BRANCH  14  15
ATOM     15  C   UNL     1      13.815  12.856  35.697  0.00  0.00    +0.037 A 
ATOM     16  C   UNL     1      14.648  13.028  34.504  0.00  0.00    +0.013 A 
ATOM     17  C   UNL     1      15.822  13.863  34.555  0.00  0.00    +0.005 A 
ATOM     18  C   UNL     1      16.168  14.535  35.805  0.00  0.00    -0.033 A 
ATOM     28  C   UNL     1      15.322  14.352  36.972  0.00  0.00    +0.005 A 
ATOM     29  C   UNL     1      14.171  13.533  36.926  0.00  0.00    +0.013 A 
BRANCH  18  19
ATOM     19  C   UNL     1      17.414  15.429  35.957  0.00  0.00    +0.119 C 
BRANCH  19  20
ATOM     20  N   UNL     1      17.385  16.762  35.285  0.00  0.00    -0.302 NA
ATOM     21  C   UNL     1      18.717  17.504  35.424  0.00  0.00    +0.066 C 
ATOM     22  C   UNL     1      18.676  18.888  34.696  0.00  0.00    -0.064 C 
ATOM     23  N   UNL     1      17.528  19.725  35.262  0.00  0.00    +0.379 N 
ATOM     24  C   UNL     1      17.523  21.048  34.620  0.00  0.00    -0.096 C 
ATOM     25  H   UNL     1      17.724  19.877  36.349  0.00  0.00    -0.082 HD
ATOM     26  C   UNL     1      16.200  18.993  35.130  0.00  0.00    -0.064 C 
ATOM     27  C   UNL     1      16.261  17.607  35.832  0.00  0.00    +0.066 C 
ENDBRANCH  19  20
ENDBRANCH  18  19
ENDBRANCH  14  15
ENDBRANCH  12  13
TORSDOF 6
ENDMDL
