MODEL 1
REMARK VINA RESULT:     -10.5      0.000      0.000
REMARK  Name = C:\Users\Docking\Desktop\test protocol\1iep_ligandH.pdb
REMARK  8 active torsions:
REMARK  status: ('A' for Active; 'I' for Inactive)
REMARK    1  A    between atoms: _5  and  _11
REMARK    2  A    between atoms: _19  and  _21
REMARK    3  A    between atoms: _22  and  _66
REMARK    4  A    between atoms: _27  and  _30
REMARK    5  A    between atoms: _32  and  _33
REMARK    6  A    between atoms: _38  and  _43
REMARK    7  A    between atoms: _43  and  _46
REMARK    8  A    between atoms: _53  and  _55
REMARK                            x       y       z     vdW  Elec       q    Type
REMARK                         _______ _______ _______ _____ _____    ______ ____
ROOT
ATOM     10  C   UNL     1       7.576   9.682  31.936  0.00  0.00    +0.038 A 
ATOM     11  C   UNL     1       6.447   8.851  32.153  0.00  0.00    +0.047 A 
ATOM     12  C   UNL     1       5.305   8.882  31.253  0.00  0.00    +0.035 A 
ATOM     32  C   UNL     1       5.347   9.771  30.140  0.00  0.00    +0.024 A 
ATOM     33  C   UNL     1       6.485  10.623  29.904  0.00  0.00    +0.007 A 
ATOM     34  C   UNL     1       7.614  10.599  30.790  0.00  0.00    -0.029 A 
ATOM     35  C   UNL     1       8.805  11.539  30.492  0.00  0.00    +0.045 C 
ENDROOT
BRANCH  10   9
ATOM      4  C   UNL     1      11.636   7.679  33.530  0.00  0.00    +0.077 A 
ATOM      5  C   UNL     1      11.611   6.673  32.508  0.00  0.00    +0.048 A 
ATOM      6  C   UNL     1      10.532   6.702  31.596  0.00  0.00    +0.116 A 
ATOM      7  N   UNL     1       9.557   7.669  31.707  0.00  0.00    -0.223 NA
ATOM      8  C   UNL     1       9.610   8.624  32.706  0.00  0.00    +0.220 A 
ATOM      9  N   UNL     1       8.645   9.611  32.832  0.00  0.00    -0.283 N 
ATOM     36  H   UNL     1       8.716  10.293  33.587  0.00  0.00    +0.155 HD
ATOM     37  N   UNL     1      10.630   8.617  33.590  0.00  0.00    -0.214 NA
BRANCH   4   3
ATOM      1  C   UNL     1      13.894   8.972  36.451  0.00  0.00    +0.020 A 
ATOM      2  C   UNL     1      12.836   8.921  35.468  0.00  0.00    +0.013 A 
ATOM      3  C   UNL     1      12.712   7.783  34.566  0.00  0.00    +0.019 A 
ATOM     38  C   UNL     1      13.682   6.705  34.686  0.00  0.00    +0.120 A 
ATOM     39  N   UNL     1      14.690   6.782  35.641  0.00  0.00    -0.263 NA
ATOM     40  C   UNL     1      14.821   7.873  36.514  0.00  0.00    +0.111 A 
ENDBRANCH   4   3
ENDBRANCH  10   9
BRANCH  12  13
ATOM     13  N   UNL     1       4.128   8.068  31.428  0.00  0.00    -0.281 N 
ATOM     14  C   UNL     1       2.930   8.420  32.027  0.00  0.00    +0.248 C 
ATOM     30  O   UNL     1       2.762   9.427  32.698  0.00  0.00    -0.270 OA
ATOM     31  H   UNL     1       4.186   7.116  31.066  0.00  0.00    +0.155 HD
BRANCH  14  15
ATOM     15  C   UNL     1       1.751   7.514  31.871  0.00  0.00    +0.037 A 
ATOM     16  C   UNL     1       1.587   6.680  30.677  0.00  0.00    +0.013 A 
ATOM     17  C   UNL     1       0.431   5.828  30.544  0.00  0.00    +0.005 A 
ATOM     18  C   UNL     1      -0.569   5.806  31.608  0.00  0.00    -0.033 A 
ATOM     28  C   UNL     1      -0.378   6.640  32.784  0.00  0.00    +0.005 A 
ATOM     29  C   UNL     1       0.752   7.477  32.918  0.00  0.00    +0.013 A 
BRANCH  18  19
ATOM     19  C   UNL     1      -1.843   4.944  31.541  0.00  0.00    +0.119 C 
BRANCH  19  20
ATOM     20  N   UNL     1      -3.145   5.659  31.385  0.00  0.00    -0.302 NA
ATOM     21  C   UNL     1      -4.332   4.791  31.815  0.00  0.00    +0.066 C 
ATOM     22  C   UNL     1      -5.684   5.563  31.667  0.00  0.00    -0.064 C 
ATOM     23  N   UNL     1      -5.847   6.025  30.218  0.00  0.00    +0.379 N 
ATOM     24  C   UNL     1      -7.144   6.700  30.062  0.00  0.00    -0.096 C 
ATOM     25  H   UNL     1      -5.859   5.116  29.572  0.00  0.00    -0.082 HD
ATOM     26  C   UNL     1      -4.670   6.886  29.781  0.00  0.00    -0.064 C 
ATOM     27  C   UNL     1      -3.330   6.120  29.960  0.00  0.00    +0.066 C 
ENDBRANCH  19  20
ENDBRANCH  18  19
ENDBRANCH  14  15
ENDBRANCH  12  13
TORSDOF 6
ENDMDL
MODEL 2
REMARK VINA RESULT:      -9.9      7.178     15.572
REMARK  Name = C:\Users\Docking\Desktop\test protocol\1iep_ligandH.pdb
REMARK  8 active torsions:
REMARK  status: ('A' for Active; 'I' for Inactive)
REMARK    1  A    between atoms: _5  and  _11
REMARK    2  A    between atoms: _19  and  _21
REMARK    3  A    between atoms: _22  and  _66
REMARK    4  A    between atoms: _27  and  _30
REMARK    5  A    between atoms: _32  and  _33
REMARK    6  A    between atoms: _38  and  _43
REMARK    7  A    between atoms: _43  and  _46
REMARK    8  A    between atoms: _53  and  _55
REMARK                            x       y       z     vdW  Elec       q    Type
REMARK                         _______ _______ _______ _____ _____    ______ ____
ROOT
ATOM     10  C   UNL     1       9.052  10.314  33.873  0.00  0.00    +0.038 A 
ATOM     11  C   UNL     1      10.248  11.046  34.084  0.00  0.00    +0.047 A 
ATOM     12  C   UNL     1      10.610  11.532  35.406  0.00  0.00    +0.035 A 
ATOM     32  C   UNL     1       9.731  11.252  36.493  0.00  0.00    +0.024 A 
ATOM     33  C   UNL     1       8.510  10.510  36.296  0.00  0.00    +0.007 A 
ATOM     34  C   UNL     1       8.147  10.030  34.993  0.00  0.00    -0.029 A 
ATOM     35  C   UNL     1       6.823   9.246  34.839  0.00  0.00    +0.045 C 
ENDROOT
BRANCH  10   9
ATOM      4  C   UNL     1       9.420   7.130  30.300  0.00  0.00    +0.077 A 
ATOM      5  C   UNL     1      10.301   6.291  31.059  0.00  0.00    +0.048 A 
ATOM      6  C   UNL     1      10.641   6.718  32.363  0.00  0.00    +0.116 A 
ATOM      7  N   UNL     1      10.131   7.898  32.859  0.00  0.00    -0.223 NA
ATOM      8  C   UNL     1       9.285   8.685  32.100  0.00  0.00    +0.220 A 
ATOM      9  N   UNL     1       8.754   9.871  32.582  0.00  0.00    -0.283 N 
ATOM     36  H   UNL     1       8.140  10.427  31.988  0.00  0.00    +0.155 HD
ATOM     37  N   UNL     1       8.947   8.300  30.852  0.00  0.00    -0.214 NA
BRANCH   4   3
ATOM      1  C   UNL     1       9.326   5.854  26.603  0.00  0.00    +0.020 A 
ATOM      2  C   UNL     1       9.813   6.138  27.934  0.00  0.00    +0.013 A 
ATOM      3  C   UNL     1       8.966   6.813  28.909  0.00  0.00    +0.019 A 
ATOM     38  C   UNL     1       7.620   7.191  28.503  0.00  0.00    +0.120 A 
ATOM     39  N   UNL     1       7.179   6.906  27.215  0.00  0.00    -0.263 NA
ATOM     40  C   UNL     1       7.986   6.258  26.267  0.00  0.00    +0.111 A 
ENDBRANCH   4   3
ENDBRANCH  10   9
BRANCH  12  13
ATOM     13  N   UNL     1      11.807  12.288  35.680  0.00  0.00    -0.281 N 
ATOM     14  C   UNL     1      13.116  11.835  35.689  0.00  0.00    +0.248 C 
ATOM     30  O   UNL     1      13.440  10.657  35.672  0.00  0.00    -0.270 OA
ATOM     31  H   UNL     1      11.673  13.276  35.893  0.00  0.00    +0.155 HD
BRANCH  14  15
ATOM     15  C   UNL     1      14.226  12.835  35.738  0.00  0.00    +0.037 A 
ATOM     16  C   UNL     1      14.553  13.547  36.976  0.00  0.00    +0.013 A 
ATOM     17  C   UNL     1      15.617  14.519  36.992  0.00  0.00    +0.005 A 
ATOM     18  C   UNL     1      16.363  14.785  35.764  0.00  0.00    -0.033 A 
ATOM     28  C   UNL     1      16.021  14.061  34.551  0.00  0.00    +0.005 A 
ATOM     29  C   UNL     1      14.978  13.108  34.531  0.00  0.00    +0.013 A 
BRANCH  18  19
ATOM     19  C   UNL     1      17.500  15.820  35.683  0.00  0.00    +0.119 C 
BRANCH  19  20
ATOM     20  N   UNL     1      18.830  15.420  36.231  0.00  0.00    -0.302 NA
ATOM     21  C   UNL     1      19.643  16.628  36.706  0.00  0.00    +0.066 C 
ATOM     22  C   UNL     1      21.022  16.188  37.297  0.00  0.00    -0.064 C 
ATOM     23  N   UNL     1      21.796  15.395  36.243  0.00  0.00    +0.379 N 
ATOM     24  C   UNL     1      23.117  15.030  36.775  0.00  0.00    -0.096 C 
ATOM     25  H   UNL     1      21.958  16.065  35.366  0.00  0.00    -0.082 HD
ATOM     26  C   UNL     1      20.994  14.194  35.763  0.00  0.00    -0.064 C 
ATOM     27  C   UNL     1      19.613  14.638  35.205  0.00  0.00    +0.066 C 
ENDBRANCH  19  20
ENDBRANCH  18  19
ENDBRANCH  14  15
ENDBRANCH  12  13
TORSDOF 6
ENDMDL
MODEL 3
REMARK VINA RESULT:      -9.5      8.902     12.902
REMARK  Name = C:\Users\Docking\Desktop\test protocol\1iep_ligandH.pdb
REMARK  8 active torsions:
REMARK  status: ('A' for Active; 'I' for Inactive)
REMARK    1  A    between atoms: _5  and  _11
REMARK    2  A    between atoms: _19  and  _21
REMARK    3  A    between atoms: _22  and  _66
REMARK    4  A    between atoms: _27  and  _30
REMARK    5  A    between atoms: _32  and  _33
REMARK    6  A    between atoms: _38  and  _43
REMARK    7  A    between atoms: _43  and  _46
REMARK    8  A    between atoms: _53  and  _55
REMARK                            x       y       z     vdW  Elec       q    Type
REMARK                         _______ _______ _______ _____ _____    ______ ____
ROOT
ATOM     10  C   UNL     1       6.429   9.773  36.692  0.00  0.00    +0.038 A 
ATOM     11  C   UNL     1       6.945  10.024  37.988  0.00  0.00    +0.047 A 
ATOM     12  C   UNL     1       6.250  10.899  38.919  0.00  0.00    +0.035 A 
ATOM     32  C   UNL     1       5.028  11.499  38.498  0.00  0.00    +0.024 A 
ATOM     33  C   UNL     1       4.489  11.256  37.183  0.00  0.00    +0.007 A 
ATOM     34  C   UNL     1       5.172  10.396  36.259  0.00  0.00    -0.029 A 
ATOM     35  C   UNL     1       4.551  10.176  34.860  0.00  0.00    +0.045 C 
ENDROOT
BRANCH  10   9
ATOM      4  C   UNL     1       9.653   8.989  33.224  0.00  0.00    +0.077 A 
ATOM      5  C   UNL     1       9.928  10.389  33.081  0.00  0.00    +0.048 A 
ATOM      6  C   UNL     1       9.213  11.279  33.914  0.00  0.00    +0.116 A 
ATOM      7  N   UNL     1       8.294  10.793  34.819  0.00  0.00    -0.223 NA
ATOM      8  C   UNL     1       8.052   9.436  34.930  0.00  0.00    +0.220 A 
ATOM      9  N   UNL     1       7.138   8.925  35.838  0.00  0.00    -0.283 N 
ATOM     36  H   UNL     1       6.982   7.918  35.884  0.00  0.00    +0.155 HD
ATOM     37  N   UNL     1       8.720   8.566  34.145  0.00  0.00    -0.214 NA
BRANCH   4   3
ATOM      1  C   UNL     1      12.282   6.413  31.899  0.00  0.00    +0.020 A 
ATOM      2  C   UNL     1      11.674   7.444  32.708  0.00  0.00    +0.013 A 
ATOM      3  C   UNL     1      10.329   7.924  32.417  0.00  0.00    +0.019 A 
ATOM     38  C   UNL     1       9.620   7.334  31.292  0.00  0.00    +0.120 A 
ATOM     39  N   UNL     1      10.231   6.344  30.529  0.00  0.00    -0.263 NA
ATOM     40  C   UNL     1      11.526   5.876  30.798  0.00  0.00    +0.111 A 
ENDBRANCH   4   3
ENDBRANCH  10   9
BRANCH  12  13
ATOM     13  N   UNL     1       6.730  11.197  40.246  0.00  0.00    -0.281 N 
ATOM     14  C   UNL     1       7.460  12.299  40.659  0.00  0.00    +0.248 C 
ATOM     30  O   UNL     1       7.997  13.096  39.903  0.00  0.00    -0.270 OA
ATOM     31  H   UNL     1       6.505  10.512  40.967  0.00  0.00    +0.155 HD
BRANCH  14  15
ATOM     15  C   UNL     1       7.631  12.545  42.123  0.00  0.00    +0.037 A 
ATOM     16  C   UNL     1       8.929  12.364  42.778  0.00  0.00    +0.013 A 
ATOM     17  C   UNL     1       9.063  12.591  44.195  0.00  0.00    +0.005 A 
ATOM     18  C   UNL     1       7.893  13.003  44.968  0.00  0.00    -0.033 A 
ATOM     28  C   UNL     1       6.618  13.180  44.292  0.00  0.00    +0.005 A 
ATOM     29  C   UNL     1       6.484  12.957  42.903  0.00  0.00    +0.013 A 
BRANCH  18  19
ATOM     19  C   UNL     1       7.938  13.246  46.488  0.00  0.00    +0.119 C 
BRANCH  19  20
ATOM     20  N   UNL     1       7.037  12.416  47.341  0.00  0.00    -0.302 NA
ATOM     21  C   UNL     1       6.121  13.276  48.216  0.00  0.00    +0.066 C 
ATOM     22  C   UNL     1       5.169  12.391  49.085  0.00  0.00    -0.064 C 
ATOM     23  N   UNL     1       6.004  11.441  49.945  0.00  0.00    +0.379 N 
ATOM     24  C   UNL     1       5.114  10.648  50.805  0.00  0.00    -0.096 C 
ATOM     25  H   UNL     1       6.649  12.064  50.607  0.00  0.00    -0.082 HD
ATOM     26  C   UNL     1       6.919  10.584  49.082  0.00  0.00    -0.064 C 
ATOM     27  C   UNL     1       7.841  11.473  48.201  0.00  0.00    +0.066 C 
ENDBRANCH  19  20
ENDBRANCH  18  19
ENDBRANCH  14  15
ENDBRANCH  12  13
TORSDOF 6
ENDMDL
MODEL 4
REMARK VINA RESULT:      -9.3     14.023     17.118
REMARK  Name = C:\Users\Docking\Desktop\test protocol\1iep_ligandH.pdb
REMARK  8 active torsions:
REMARK  status: ('A' for Active; 'I' for Inactive)
REMARK    1  A    between atoms: _5  and  _11
REMARK    2  A    between atoms: _19  and  _21
REMARK    3  A    between atoms: _22  and  _66
REMARK    4  A    between atoms: _27  and  _30
REMARK    5  A    between atoms: _32  and  _33
REMARK    6  A    between atoms: _38  and  _43
REMARK    7  A    between atoms: _43  and  _46
REMARK    8  A    between atoms: _53  and  _55
REMARK                            x       y       z     vdW  Elec       q    Type
REMARK                         _______ _______ _______ _____ _____    ______ ____
ROOT
ATOM     10  C   UNL     1      -1.621  -5.660  42.985  0.00  0.00    +0.038 A 
ATOM     11  C   UNL     1      -2.250  -5.077  41.855  0.00  0.00    +0.047 A 
ATOM     12  C   UNL     1      -3.620  -5.411  41.500  0.00  0.00    +0.035 A 
ATOM     32  C   UNL     1      -4.323  -6.342  42.320  0.00  0.00    +0.024 A 
ATOM     33  C   UNL     1      -3.699  -6.945  43.472  0.00  0.00    +0.007 A 
ATOM     34  C   UNL     1      -2.347  -6.621  43.826  0.00  0.00    -0.029 A 
ATOM     35  C   UNL     1      -1.727  -7.302  45.067  0.00  0.00    +0.045 C 
ENDROOT
BRANCH  10   9
ATOM      4  C   UNL     1       3.101  -6.518  42.968  0.00  0.00    +0.077 A 
ATOM      5  C   UNL     1       2.926  -7.798  42.344  0.00  0.00    +0.048 A 
ATOM      6  C   UNL     1       1.604  -8.201  42.050  0.00  0.00    +0.116 A 
ATOM      7  N   UNL     1       0.544  -7.378  42.362  0.00  0.00    -0.223 NA
ATOM      8  C   UNL     1       0.747  -6.151  42.965  0.00  0.00    +0.220 A 
ATOM      9  N   UNL     1      -0.304  -5.303  43.280  0.00  0.00    -0.283 N 
ATOM     36  H   UNL     1      -0.113  -4.409  43.731  0.00  0.00    +0.155 HD
ATOM     37  N   UNL     1       2.000  -5.743  43.257  0.00  0.00    -0.214 NA
BRANCH   4   3
ATOM      1  C   UNL     1       5.961  -4.035  43.945  0.00  0.00    +0.020 A 
ATOM      2  C   UNL     1       4.651  -4.532  43.591  0.00  0.00    +0.013 A 
ATOM      3  C   UNL     1       4.436  -5.951  43.338  0.00  0.00    +0.019 A 
ATOM     38  C   UNL     1       5.576  -6.848  43.453  0.00  0.00    +0.120 A 
ATOM     39  N   UNL     1       6.826  -6.341  43.794  0.00  0.00    -0.263 NA
ATOM     40  C   UNL     1       7.045  -4.977  44.039  0.00  0.00    +0.111 A 
ENDBRANCH   4   3
ENDBRANCH  10   9
BRANCH  12  13
ATOM     13  N   UNL     1      -4.307  -4.858  40.360  0.00  0.00    -0.281 N 
ATOM     14  C   UNL     1      -5.134  -5.514  39.463  0.00  0.00    +0.248 C 
ATOM     30  O   UNL     1      -5.239  -6.728  39.380  0.00  0.00    -0.270 OA
ATOM     31  H   UNL     1      -4.167  -3.861  40.194  0.00  0.00    +0.155 HD
BRANCH  14  15
ATOM     15  C   UNL     1      -5.953  -4.704  38.510  0.00  0.00    +0.037 A 
ATOM     16  C   UNL     1      -6.884  -5.341  37.576  0.00  0.00    +0.013 A 
ATOM     17  C   UNL     1      -7.649  -4.538  36.656  0.00  0.00    +0.005 A 
ATOM     18  C   UNL     1      -7.486  -3.086  36.666  0.00  0.00    -0.033 A 
ATOM     28  C   UNL     1      -6.559  -2.479  37.606  0.00  0.00    +0.005 A 
ATOM     29  C   UNL     1      -5.806  -3.264  38.509  0.00  0.00    +0.013 A 
BRANCH  18  19
ATOM     19  C   UNL     1      -8.246  -2.152  35.705  0.00  0.00    +0.119 C 
BRANCH  19  20
ATOM     20  N   UNL     1      -7.449  -1.106  34.996  0.00  0.00    -0.302 NA
ATOM     21  C   UNL     1      -8.275   0.152  34.714  0.00  0.00    +0.066 C 
ATOM     22  C   UNL     1      -7.421   1.244  33.992  0.00  0.00    -0.064 C 
ATOM     23  N   UNL     1      -6.852   0.667  32.695  0.00  0.00    +0.379 N 
ATOM     24  C   UNL     1      -6.096   1.709  31.985  0.00  0.00    -0.096 C 
ATOM     25  H   UNL     1      -7.713   0.375  32.049  0.00  0.00    -0.082 HD
ATOM     26  C   UNL     1      -6.032  -0.586  32.966  0.00  0.00    -0.064 C 
ATOM     27  C   UNL     1      -6.882  -1.653  33.709  0.00  0.00    +0.066 C 
ENDBRANCH  19  20
ENDBRANCH  18  19
ENDBRANCH  14  15
ENDBRANCH  12  13
TORSDOF 6
ENDMDL
MODEL 5
REMARK VINA RESULT:      -9.1      8.460     13.398
REMARK  Name = C:\Users\Docking\Desktop\test protocol\1iep_ligandH.pdb
REMARK  8 active torsions:
REMARK  status: ('A' for Active; 'I' for Inactive)
REMARK    1  A    between atoms: _5  and  _11
REMARK    2  A    between atoms: _19  and  _21
REMARK    3  A    between atoms: _22  and  _66
REMARK    4  A    between atoms: _27  and  _30
REMARK    5  A    between atoms: _32  and  _33
REMARK    6  A    between atoms: _38  and  _43
REMARK    7  A    between atoms: _43  and  _46
REMARK    8  A    between atoms: _53  and  _55
REMARK                            x       y       z     vdW  Elec       q    Type
REMARK                         _______ _______ _______ _____ _____    ______ ____
ROOT
ATOM     10  C   UNL     1       6.414   9.749  36.685  0.00  0.00    +0.038 A 
ATOM     11  C   UNL     1       6.893  10.021  37.992  0.00  0.00    +0.047 A 
ATOM     12  C   UNL     1       6.161  10.897  38.894  0.00  0.00    +0.035 A 
ATOM     32  C   UNL     1       4.943  11.477  38.433  0.00  0.00    +0.024 A 
ATOM     33  C   UNL     1       4.442  11.211  37.107  0.00  0.00    +0.007 A 
ATOM     34  C   UNL     1       5.161  10.350  36.212  0.00  0.00    -0.029 A 
ATOM     35  C   UNL     1       4.581  10.106  34.800  0.00  0.00    +0.045 C 
ENDROOT
BRANCH  10   9
ATOM      4  C   UNL     1       9.593   8.974  33.174  0.00  0.00    +0.077 A 
ATOM      5  C   UNL     1       9.769  10.379  32.943  0.00  0.00    +0.048 A 
ATOM      6  C   UNL     1       9.018  11.268  33.744  0.00  0.00    +0.116 A 
ATOM      7  N   UNL     1       8.158  10.777  34.703  0.00  0.00    -0.223 NA
ATOM      8  C   UNL     1       8.010   9.416  34.898  0.00  0.00    +0.220 A 
ATOM      9  N   UNL     1       7.157   8.900  35.862  0.00  0.00    -0.283 N 
ATOM     36  H   UNL     1       7.071   7.890  35.970  0.00  0.00    +0.155 HD
ATOM     37  N   UNL     1       8.716   8.547  34.145  0.00  0.00    -0.214 NA
BRANCH   4   3
ATOM      1  C   UNL     1      12.321   6.436  31.983  0.00  0.00    +0.020 A 
ATOM      2  C   UNL     1      11.665   7.468  32.753  0.00  0.00    +0.013 A 
ATOM      3  C   UNL     1      10.319   7.911  32.410  0.00  0.00    +0.019 A 
ATOM     38  C   UNL     1       9.660   7.284  31.274  0.00  0.00    +0.120 A 
ATOM     39  N   UNL     1      10.318   6.294  30.551  0.00  0.00    -0.263 NA
ATOM     40  C   UNL     1      11.613   5.861  30.870  0.00  0.00    +0.111 A 
ENDBRANCH   4   3
ENDBRANCH  10   9
BRANCH  12  13
ATOM     13  N   UNL     1       6.602  11.217  40.229  0.00  0.00    -0.281 N 
ATOM     14  C   UNL     1       7.368  12.297  40.637  0.00  0.00    +0.248 C 
ATOM     30  O   UNL     1       7.972  13.042  39.879  0.00  0.00    -0.270 OA
ATOM     31  H   UNL     1       6.315  10.569  40.962  0.00  0.00    +0.155 HD
BRANCH  14  15
ATOM     15  C   UNL     1       7.491  12.584  42.099  0.00  0.00    +0.037 A 
ATOM     16  C   UNL     1       6.372  13.144  42.861  0.00  0.00    +0.013 A 
ATOM     17  C   UNL     1       6.524  13.427  44.266  0.00  0.00    +0.005 A 
ATOM     18  C   UNL     1       7.800  13.148  44.919  0.00  0.00    -0.033 A 
ATOM     28  C   UNL     1       8.892  12.587  44.141  0.00  0.00    +0.005 A 
ATOM     29  C   UNL     1       8.748  12.309  42.763  0.00  0.00    +0.013 A 
BRANCH  18  19
ATOM     19  C   UNL     1       8.058  13.438  46.410  0.00  0.00    +0.119 C 
BRANCH  19  20
ATOM     20  N   UNL     1       8.622  12.327  47.234  0.00  0.00    -0.302 NA
ATOM     21  C   UNL     1       7.734  11.999  48.438  0.00  0.00    +0.066 C 
ATOM     22  C   UNL     1       8.327  10.820  49.277  0.00  0.00    -0.064 C 
ATOM     23  N   UNL     1       9.742  11.182  49.731  0.00  0.00    +0.379 N 
ATOM     24  C   UNL     1      10.280  10.100  50.569  0.00  0.00    -0.096 C 
ATOM     25  H   UNL     1       9.670  12.097  50.364  0.00  0.00    -0.082 HD
ATOM     26  C   UNL     1      10.631  11.513  48.540  0.00  0.00    -0.064 C 
ATOM     27  C   UNL     1      10.018  12.665  47.697  0.00  0.00    +0.066 C 
ENDBRANCH  19  20
ENDBRANCH  18  19
ENDBRANCH  14  15
ENDBRANCH  12  13
TORSDOF 6
ENDMDL
