MODEL 1
REMARK VINA RESULT:     -11.2      0.000      0.000
REMARK  Name = C:\Users\Docking\Desktop\test protocol\1iep_ligandH.pdb
REMARK  8 active torsions:
REMARK  status: ('A' for Active; 'I' for Inactive)
REMARK    1  A    between atoms: _5  and  _11
REMARK    2  A    between atoms: _19  and  _21
REMARK    3  A    between atoms: _22  and  _66
REMARK    4  A    between atoms: _27  and  _30
REMARK    5  A    between atoms: _32  and  _33
REMARK    6  A    between atoms: _38  and  _43
REMARK    7  A    between atoms: _43  and  _46
REMARK    8  A    between atoms: _53  and  _55
REMARK                            x       y       z     vdW  Elec       q    Type
REMARK                         _______ _______ _______ _____ _____    ______ ____
ROOT
ATOM     10  C   UNL     1       4.291   8.095  31.607  0.00  0.00    +0.038 A 
ATOM     11  C   UNL     1       4.778   8.817  32.726  0.00  0.00    +0.047 A 
ATOM     12  C   UNL     1       3.877   9.571  33.585  0.00  0.00    +0.035 A 
ATOM     32  C   UNL     1       2.486   9.565  33.276  0.00  0.00    +0.024 A 
ATOM     33  C   UNL     1       1.974   8.837  32.142  0.00  0.00    +0.007 A 
ATOM     34  C   UNL     1       2.858   8.094  31.289  0.00  0.00    -0.029 A 
ATOM     35  C   UNL     1       2.254   7.337  30.083  0.00  0.00    +0.045 C 
ENDROOT
BRANCH  10   9
ATOM      4  C   UNL     1       8.127   7.883  28.730  0.00  0.00    +0.077 A 
ATOM      5  C   UNL     1       8.320   9.304  28.785  0.00  0.00    +0.048 A 
ATOM      6  C   UNL     1       7.406  10.054  29.559  0.00  0.00    +0.116 A 
ATOM      7  N   UNL     1       6.380   9.419  30.224  0.00  0.00    -0.223 NA
ATOM      8  C   UNL     1       6.221   8.048  30.149  0.00  0.00    +0.220 A 
ATOM      9  N   UNL     1       5.200   7.389  30.816  0.00  0.00    -0.283 N 
ATOM     36  H   UNL     1       5.112   6.376  30.729  0.00  0.00    +0.155 HD
ATOM     37  N   UNL     1       7.079   7.310  29.415  0.00  0.00    -0.214 NA
BRANCH   4   3
ATOM      1  C   UNL     1       9.718   5.790  25.834  0.00  0.00    +0.020 A 
ATOM      2  C   UNL     1       8.836   6.696  26.533  0.00  0.00    +0.013 A 
ATOM      3  C   UNL     1       9.011   6.955  27.957  0.00  0.00    +0.019 A 
ATOM     38  C   UNL     1      10.098   6.277  28.648  0.00  0.00    +0.120 A 
ATOM     39  N   UNL     1      10.930   5.410  27.948  0.00  0.00    -0.263 NA
ATOM     40  C   UNL     1      10.770   5.151  26.579  0.00  0.00    +0.111 A 
ENDBRANCH   4   3
ENDBRANCH  10   9
BRANCH  12  13
ATOM     13  N   UNL     1       4.315  10.330  34.730  0.00  0.00    -0.281 N 
ATOM     14  C   UNL     1       5.262   9.974  35.677  0.00  0.00    +0.248 C 
ATOM     30  O   UNL     1       5.725   8.850  35.802  0.00  0.00    -0.270 OA
ATOM     31  H   UNL     1       3.873  11.240  34.859  0.00  0.00    +0.155 HD
BRANCH  14  15
ATOM     15  C   UNL     1       5.755  11.013  36.631  0.00  0.00    +0.037 A 
ATOM     16  C   UNL     1       7.133  11.507  36.571  0.00  0.00    +0.013 A 
ATOM     17  C   UNL     1       7.588  12.497  37.515  0.00  0.00    +0.005 A 
ATOM     18  C   UNL     1       6.662  13.001  38.527  0.00  0.00    -0.033 A 
ATOM     28  C   UNL     1       5.299  12.496  38.561  0.00  0.00    +0.005 A 
ATOM     29  C   UNL     1       4.850  11.525  37.638  0.00  0.00    +0.013 A 
BRANCH  18  19
ATOM     19  C   UNL     1       7.067  14.042  39.587  0.00  0.00    +0.119 C 
BRANCH  19  20
ATOM     20  N   UNL     1       7.703  15.302  39.100  0.00  0.00    -0.302 NA
ATOM     21  C   UNL     1       7.101  15.774  37.774  0.00  0.00    +0.066 C 
ATOM     22  C   UNL     1       7.763  17.105  37.290  0.00  0.00    -0.064 C 
ATOM     23  N   UNL     1       9.273  16.902  37.157  0.00  0.00    +0.379 N 
ATOM     24  C   UNL     1       9.891  18.135  36.647  0.00  0.00    -0.096 C 
ATOM     25  H   UNL     1       9.441  16.101  36.400  0.00  0.00    -0.082 HD
ATOM     26  C   UNL     1       9.880  16.430  38.471  0.00  0.00    -0.064 C 
ATOM     27  C   UNL     1       9.195  15.122  38.957  0.00  0.00    +0.066 C 
ENDBRANCH  19  20
ENDBRANCH  18  19
ENDBRANCH  14  15
ENDBRANCH  12  13
TORSDOF 6
ENDMDL
MODEL 2
REMARK VINA RESULT:     -10.8     10.401     13.011
REMARK  Name = C:\Users\Docking\Desktop\test protocol\1iep_ligandH.pdb
REMARK  8 active torsions:
REMARK  status: ('A' for Active; 'I' for Inactive)
REMARK    1  A    between atoms: _5  and  _11
REMARK    2  A    between atoms: _19  and  _21
REMARK    3  A    between atoms: _22  and  _66
REMARK    4  A    between atoms: _27  and  _30
REMARK    5  A    between atoms: _32  and  _33
REMARK    6  A    between atoms: _38  and  _43
REMARK    7  A    between atoms: _43  and  _46
REMARK    8  A    between atoms: _53  and  _55
REMARK                            x       y       z     vdW  Elec       q    Type
REMARK                         _______ _______ _______ _____ _____    ______ ____
ROOT
ATOM     10  C   UNL     1      13.567   8.558  35.182  0.00  0.00    +0.038 A 
ATOM     11  C   UNL     1      14.242   8.169  36.367  0.00  0.00    +0.047 A 
ATOM     12  C   UNL     1      14.716   6.806  36.551  0.00  0.00    +0.035 A 
ATOM     32  C   UNL     1      14.486   5.864  35.506  0.00  0.00    +0.024 A 
ATOM     33  C   UNL     1      13.800   6.242  34.295  0.00  0.00    +0.007 A 
ATOM     34  C   UNL     1      13.329   7.585  34.109  0.00  0.00    -0.029 A 
ATOM     35  C   UNL     1      12.595   7.932  32.794  0.00  0.00    +0.045 C 
ENDROOT
BRANCH  10   9
ATOM      4  C   UNL     1      10.278  12.006  35.757  0.00  0.00    +0.077 A 
ATOM      5  C   UNL     1       9.332  11.091  36.327  0.00  0.00    +0.048 A 
ATOM      6  C   UNL     1       9.728   9.740  36.448  0.00  0.00    +0.116 A 
ATOM      7  N   UNL     1      10.980   9.345  36.028  0.00  0.00    -0.223 NA
ATOM      8  C   UNL     1      11.868  10.253  35.481  0.00  0.00    +0.220 A 
ATOM      9  N   UNL     1      13.134   9.880  35.059  0.00  0.00    -0.283 N 
ATOM     36  H   UNL     1      13.757  10.578  34.654  0.00  0.00    +0.155 HD
ATOM     37  N   UNL     1      11.513  11.549  35.353  0.00  0.00    -0.214 NA
BRANCH   4   3
ATOM      1  C   UNL     1       9.119  15.421  34.243  0.00  0.00    +0.020 A 
ATOM      2  C   UNL     1       9.356  14.003  34.378  0.00  0.00    +0.013 A 
ATOM      3  C   UNL     1      10.009  13.466  35.566  0.00  0.00    +0.019 A 
ATOM     38  C   UNL     1      10.411  14.400  36.607  0.00  0.00    +0.120 A 
ATOM     39  N   UNL     1      10.170  15.761  36.449  0.00  0.00    -0.263 NA
ATOM     40  C   UNL     1       9.545  16.289  35.309  0.00  0.00    +0.111 A 
ENDBRANCH   4   3
ENDBRANCH  10   9
BRANCH  12  13
ATOM     13  N   UNL     1      15.400   6.351  37.736  0.00  0.00    -0.281 N 
ATOM     14  C   UNL     1      16.711   6.599  38.110  0.00  0.00    +0.248 C 
ATOM     30  O   UNL     1      17.561   7.075  37.374  0.00  0.00    -0.270 OA
ATOM     31  H   UNL     1      14.852   5.777  38.377  0.00  0.00    +0.155 HD
BRANCH  14  15
ATOM     15  C   UNL     1      17.142   6.255  39.499  0.00  0.00    +0.037 A 
ATOM     16  C   UNL     1      18.297   6.909  40.120  0.00  0.00    +0.013 A 
ATOM     17  C   UNL     1      18.702   6.546  41.455  0.00  0.00    +0.005 A 
ATOM     18  C   UNL     1      17.950   5.524  42.179  0.00  0.00    -0.033 A 
ATOM     28  C   UNL     1      16.806   4.895  41.541  0.00  0.00    +0.005 A 
ATOM     29  C   UNL     1      16.406   5.247  40.232  0.00  0.00    +0.013 A 
BRANCH  18  19
ATOM     19  C   UNL     1      18.324   5.059  43.599  0.00  0.00    +0.119 C 
BRANCH  19  20
ATOM     20  N   UNL     1      17.494   3.975  44.204  0.00  0.00    -0.302 NA
ATOM     21  C   UNL     1      17.167   4.254  45.674  0.00  0.00    +0.066 C 
ATOM     22  C   UNL     1      16.280   3.121  46.285  0.00  0.00    -0.064 C 
ATOM     23  N   UNL     1      16.997   1.779  46.136  0.00  0.00    +0.379 N 
ATOM     24  C   UNL     1      16.191   0.720  46.761  0.00  0.00    -0.096 C 
ATOM     25  H   UNL     1      17.960   1.846  46.694  0.00  0.00    -0.082 HD
ATOM     26  C   UNL     1      17.328   1.494  44.677  0.00  0.00    -0.064 C 
ATOM     27  C   UNL     1      18.186   2.640  44.072  0.00  0.00    +0.066 C 
ENDBRANCH  19  20
ENDBRANCH  18  19
ENDBRANCH  14  15
ENDBRANCH  12  13
TORSDOF 6
ENDMDL
MODEL 3
REMARK VINA RESULT:     -10.3      4.199      5.768
REMARK  Name = C:\Users\Docking\Desktop\test protocol\1iep_ligandH.pdb
REMARK  8 active torsions:
REMARK  status: ('A' for Active; 'I' for Inactive)
REMARK    1  A    between atoms: _5  and  _11
REMARK    2  A    between atoms: _19  and  _21
REMARK    3  A    between atoms: _22  and  _66
REMARK    4  A    between atoms: _27  and  _30
REMARK    5  A    between atoms: _32  and  _33
REMARK    6  A    between atoms: _38  and  _43
REMARK    7  A    between atoms: _43  and  _46
REMARK    8  A    between atoms: _53  and  _55
REMARK                            x       y       z     vdW  Elec       q    Type
REMARK                         _______ _______ _______ _____ _____    ______ ____
ROOT
ATOM     10  C   UNL     1       5.976   9.750  35.223  0.00  0.00    +0.038 A 
ATOM     11  C   UNL     1       6.846  10.115  36.283  0.00  0.00    +0.047 A 
ATOM     12  C   UNL     1       6.375  10.918  37.400  0.00  0.00    +0.035 A 
ATOM     32  C   UNL     1       5.011  11.331  37.408  0.00  0.00    +0.024 A 
ATOM     33  C   UNL     1       4.113  10.971  36.339  0.00  0.00    +0.007 A 
ATOM     34  C   UNL     1       4.573  10.180  35.232  0.00  0.00    -0.029 A 
ATOM     35  C   UNL     1       3.568   9.829  34.111  0.00  0.00    +0.045 C 
ENDROOT
BRANCH  10   9
ATOM      4  C   UNL     1       7.930   9.290  30.864  0.00  0.00    +0.077 A 
ATOM      5  C   UNL     1       7.920  10.707  30.644  0.00  0.00    +0.048 A 
ATOM      6  C   UNL     1       7.396  11.520  31.675  0.00  0.00    +0.116 A 
ATOM      7  N   UNL     1       6.922  10.946  32.835  0.00  0.00    -0.223 NA
ATOM      8  C   UNL     1       6.945   9.575  33.014  0.00  0.00    +0.220 A 
ATOM      9  N   UNL     1       6.481   8.977  34.175  0.00  0.00    -0.283 N 
ATOM     36  H   UNL     1       6.509   7.962  34.266  0.00  0.00    +0.155 HD
ATOM     37  N   UNL     1       7.439   8.778  32.044  0.00  0.00    -0.214 NA
BRANCH   4   3
ATOM      1  C   UNL     1       8.610   7.335  27.544  0.00  0.00    +0.020 A 
ATOM      2  C   UNL     1       8.074   8.313  28.463  0.00  0.00    +0.013 A 
ATOM      3  C   UNL     1       8.455   8.300  29.870  0.00  0.00    +0.019 A 
ATOM     38  C   UNL     1       9.387   7.277  30.318  0.00  0.00    +0.120 A 
ATOM     39  N   UNL     1       9.885   6.347  29.411  0.00  0.00    -0.263 NA
ATOM     40  C   UNL     1       9.525   6.349  28.055  0.00  0.00    +0.111 A 
ENDBRANCH   4   3
ENDBRANCH  10   9
BRANCH  12  13
ATOM     13  N   UNL     1       7.214  11.326  38.500  0.00  0.00    -0.281 N 
ATOM     14  C   UNL     1       7.534  12.615  38.894  0.00  0.00    +0.248 C 
ATOM     30  O   UNL     1       7.318  13.615  38.227  0.00  0.00    -0.270 OA
ATOM     31  H   UNL     1       7.621  10.573  39.055  0.00  0.00    +0.155 HD
BRANCH  14  15
ATOM     15  C   UNL     1       8.204  12.820  40.214  0.00  0.00    +0.037 A 
ATOM     16  C   UNL     1       9.327  13.750  40.360  0.00  0.00    +0.013 A 
ATOM     17  C   UNL     1       9.966  13.917  41.641  0.00  0.00    +0.005 A 
ATOM     18  C   UNL     1       9.483  13.152  42.788  0.00  0.00    -0.033 A 
ATOM     28  C   UNL     1       8.364  12.240  42.616  0.00  0.00    +0.005 A 
ATOM     29  C   UNL     1       7.735  12.073  41.362  0.00  0.00    +0.013 A 
BRANCH  18  19
ATOM     19  C   UNL     1      10.118  13.250  44.187  0.00  0.00    +0.119 C 
BRANCH  19  20
ATOM     20  N   UNL     1       9.235  12.976  45.360  0.00  0.00    -0.302 NA
ATOM     21  C   UNL     1       8.518  14.239  45.847  0.00  0.00    +0.066 C 
ATOM     22  C   UNL     1       7.582  13.930  47.060  0.00  0.00    -0.064 C 
ATOM     23  N   UNL     1       8.403  13.304  48.189  0.00  0.00    +0.379 N 
ATOM     24  C   UNL     1       7.537  13.066  49.352  0.00  0.00    -0.096 C 
ATOM     25  H   UNL     1       9.180  14.045  48.491  0.00  0.00    -0.082 HD
ATOM     26  C   UNL     1       9.122  12.050  47.713  0.00  0.00    -0.064 C 
ATOM     27  C   UNL     1      10.027  12.362  46.488  0.00  0.00    +0.066 C 
ENDBRANCH  19  20
ENDBRANCH  18  19
ENDBRANCH  14  15
ENDBRANCH  12  13
TORSDOF 6
ENDMDL
MODEL 4
REMARK VINA RESULT:     -10.2      9.997     12.703
REMARK  Name = C:\Users\Docking\Desktop\test protocol\1iep_ligandH.pdb
REMARK  8 active torsions:
REMARK  status: ('A' for Active; 'I' for Inactive)
REMARK    1  A    between atoms: _5  and  _11
REMARK    2  A    between atoms: _19  and  _21
REMARK    3  A    between atoms: _22  and  _66
REMARK    4  A    between atoms: _27  and  _30
REMARK    5  A    between atoms: _32  and  _33
REMARK    6  A    between atoms: _38  and  _43
REMARK    7  A    between atoms: _43  and  _46
REMARK    8  A    between atoms: _53  and  _55
REMARK                            x       y       z     vdW  Elec       q    Type
REMARK                         _______ _______ _______ _____ _____    ______ ____
ROOT
ATOM     10  C   UNL     1      12.132   9.057  35.048  0.00  0.00    +0.038 A 
ATOM     11  C   UNL     1      12.877   8.529  36.134  0.00  0.00    +0.047 A 
ATOM     12  C   UNL     1      13.622   7.286  36.001  0.00  0.00    +0.035 A 
ATOM     32  C   UNL     1      13.588   6.609  34.748  0.00  0.00    +0.024 A 
ATOM     33  C   UNL     1      12.836   7.131  33.634  0.00  0.00    +0.007 A 
ATOM     34  C   UNL     1      12.097   8.355  33.760  0.00  0.00    -0.029 A 
ATOM     35  C   UNL     1      11.303   8.865  32.535  0.00  0.00    +0.045 C 
ENDROOT
BRANCH  10   9
ATOM      4  C   UNL     1      11.766  13.832  34.729  0.00  0.00    +0.077 A 
ATOM      5  C   UNL     1      13.084  13.955  34.176  0.00  0.00    +0.048 A 
ATOM      6  C   UNL     1      13.826  12.767  33.997  0.00  0.00    +0.116 A 
ATOM      7  N   UNL     1      13.281  11.551  34.347  0.00  0.00    -0.223 NA
ATOM      8  C   UNL     1      12.007  11.467  34.879  0.00  0.00    +0.220 A 
ATOM      9  N   UNL     1      11.436  10.254  35.231  0.00  0.00    -0.283 N 
ATOM     36  H   UNL     1      10.497  10.235  35.627  0.00  0.00    +0.155 HD
ATOM     37  N   UNL     1      11.279  12.588  35.062  0.00  0.00    -0.214 NA
BRANCH   4   3
ATOM      1  C   UNL     1       8.572  16.045  35.179  0.00  0.00    +0.020 A 
ATOM      2  C   UNL     1       9.404  14.890  34.933  0.00  0.00    +0.013 A 
ATOM      3  C   UNL     1      10.857  14.996  34.976  0.00  0.00    +0.019 A 
ATOM     38  C   UNL     1      11.441  16.295  35.273  0.00  0.00    +0.120 A 
ATOM     39  N   UNL     1      10.614  17.390  35.505  0.00  0.00    -0.263 NA
ATOM     40  C   UNL     1       9.215  17.301  35.465  0.00  0.00    +0.111 A 
ENDBRANCH   4   3
ENDBRANCH  10   9
BRANCH  12  13
ATOM     13  N   UNL     1      14.389   6.697  37.071  0.00  0.00    -0.281 N 
ATOM     14  C   UNL     1      15.765   6.695  37.231  0.00  0.00    +0.248 C 
ATOM     30  O   UNL     1      16.562   7.017  36.362  0.00  0.00    -0.270 OA
ATOM     31  H   UNL     1      13.853   6.224  37.798  0.00  0.00    +0.155 HD
BRANCH  14  15
ATOM     15  C   UNL     1      16.339   6.259  38.540  0.00  0.00    +0.037 A 
ATOM     16  C   UNL     1      15.745   5.157  39.300  0.00  0.00    +0.013 A 
ATOM     17  C   UNL     1      16.308   4.767  40.569  0.00  0.00    +0.005 A 
ATOM     18  C   UNL     1      17.475   5.480  41.084  0.00  0.00    -0.033 A 
ATOM     28  C   UNL     1      18.048   6.566  40.306  0.00  0.00    +0.005 A 
ATOM     29  C   UNL     1      17.497   6.951  39.063  0.00  0.00    +0.013 A 
BRANCH  18  19
ATOM     19  C   UNL     1      18.129   5.145  42.437  0.00  0.00    +0.119 C 
BRANCH  19  20
ATOM     20  N   UNL     1      17.463   4.108  43.281  0.00  0.00    -0.302 NA
ATOM     21  C   UNL     1      17.421   4.510  44.758  0.00  0.00    +0.066 C 
ATOM     22  C   UNL     1      16.701   3.424  45.622  0.00  0.00    -0.064 C 
ATOM     23  N   UNL     1      17.413   2.081  45.446  0.00  0.00    +0.379 N 
ATOM     24  C   UNL     1      16.775   1.071  46.302  0.00  0.00    -0.096 C 
ATOM     25  H   UNL     1      18.464   2.208  45.797  0.00  0.00    -0.082 HD
ATOM     26  C   UNL     1      17.462   1.676  43.980  0.00  0.00    -0.064 C 
ATOM     27  C   UNL     1      18.153   2.775  43.125  0.00  0.00    +0.066 C 
ENDBRANCH  19  20
ENDBRANCH  18  19
ENDBRANCH  14  15
ENDBRANCH  12  13
TORSDOF 6
ENDMDL
MODEL 5
REMARK VINA RESULT:     -10.1      9.447     12.606
REMARK  Name = C:\Users\Docking\Desktop\test protocol\1iep_ligandH.pdb
REMARK  8 active torsions:
REMARK  status: ('A' for Active; 'I' for Inactive)
REMARK    1  A    between atoms: _5  and  _11
REMARK    2  A    between atoms: _19  and  _21
REMARK    3  A    between atoms: _22  and  _66
REMARK    4  A    between atoms: _27  and  _30
REMARK    5  A    between atoms: _32  and  _33
REMARK    6  A    between atoms: _38  and  _43
REMARK    7  A    between atoms: _43  and  _46
REMARK    8  A    between atoms: _53  and  _55
REMARK                            x       y       z     vdW  Elec       q    Type
REMARK                         _______ _______ _______ _____ _____    ______ ____
ROOT
ATOM     10  C   UNL     1      12.185  10.016  35.013  0.00  0.00    +0.038 A 
ATOM     11  C   UNL     1      12.896   9.387  36.067  0.00  0.00    +0.047 A 
ATOM     12  C   UNL     1      13.366   8.016  35.944  0.00  0.00    +0.035 A 
ATOM     32  C   UNL     1      13.095   7.315  34.733  0.00  0.00    +0.024 A 
ATOM     33  C   UNL     1      12.373   7.939  33.652  0.00  0.00    +0.007 A 
ATOM     34  C   UNL     1      11.906   9.291  33.768  0.00  0.00    -0.029 A 
ATOM     35  C   UNL     1      11.131   9.906  32.580  0.00  0.00    +0.045 C 
ENDROOT
BRANCH  10   9
ATOM      4  C   UNL     1       9.031  13.273  36.589  0.00  0.00    +0.077 A 
ATOM      5  C   UNL     1       8.146  12.260  37.089  0.00  0.00    +0.048 A 
ATOM      6  C   UNL     1       8.536  10.914  36.915  0.00  0.00    +0.116 A 
ATOM      7  N   UNL     1       9.725  10.613  36.285  0.00  0.00    -0.223 NA
ATOM      8  C   UNL     1      10.554  11.614  35.813  0.00  0.00    +0.220 A 
ATOM      9  N   UNL     1      11.758  11.335  35.184  0.00  0.00    -0.283 N 
ATOM     36  H   UNL     1      12.338  12.101  34.843  0.00  0.00    +0.155 HD
ATOM     37  N   UNL     1      10.204  12.908  35.966  0.00  0.00    -0.214 NA
BRANCH   4   3
ATOM      1  C   UNL     1       7.255  16.706  37.190  0.00  0.00    +0.020 A 
ATOM      2  C   UNL     1       7.465  15.279  37.098  0.00  0.00    +0.013 A 
ATOM      3  C   UNL     1       8.759  14.741  36.700  0.00  0.00    +0.019 A 
ATOM     38  C   UNL     1       9.830  15.681  36.401  0.00  0.00    +0.120 A 
ATOM     39  N   UNL     1       9.598  17.049  36.498  0.00  0.00    -0.263 NA
ATOM     40  C   UNL     1       8.356  17.579  36.878  0.00  0.00    +0.111 A 
ENDBRANCH   4   3
ENDBRANCH  10   9
BRANCH  12  13
ATOM     13  N   UNL     1      14.085   7.323  36.984  0.00  0.00    -0.281 N 
ATOM     14  C   UNL     1      15.296   6.657  36.883  0.00  0.00    +0.248 C 
ATOM     30  O   UNL     1      15.843   6.373  35.827  0.00  0.00    -0.270 OA
ATOM     31  H   UNL     1      13.649   7.323  37.906  0.00  0.00    +0.155 HD
BRANCH  14  15
ATOM     15  C   UNL     1      15.993   6.232  38.135  0.00  0.00    +0.037 A 
ATOM     16  C   UNL     1      15.509   5.098  38.927  0.00  0.00    +0.013 A 
ATOM     17  C   UNL     1      16.190   4.720  40.139  0.00  0.00    +0.005 A 
ATOM     18  C   UNL     1      17.365   5.477  40.567  0.00  0.00    -0.033 A 
ATOM     28  C   UNL     1      17.826   6.594  39.760  0.00  0.00    +0.005 A 
ATOM     29  C   UNL     1      17.160   6.968  38.571  0.00  0.00    +0.013 A 
BRANCH  18  19
ATOM     19  C   UNL     1      18.141   5.158  41.858  0.00  0.00    +0.119 C 
BRANCH  19  20
ATOM     20  N   UNL     1      17.425   4.375  42.910  0.00  0.00    -0.302 NA
ATOM     21  C   UNL     1      17.251   5.177  44.204  0.00  0.00    +0.066 C 
ATOM     22  C   UNL     1      16.481   4.352  45.285  0.00  0.00    -0.064 C 
ATOM     23  N   UNL     1      17.230   3.045  45.555  0.00  0.00    +0.379 N 
ATOM     24  C   UNL     1      16.540   2.294  46.613  0.00  0.00    -0.096 C 
ATOM     25  H   UNL     1      18.245   3.309  45.933  0.00  0.00    -0.082 HD
ATOM     26  C   UNL     1      17.410   2.243  44.273  0.00  0.00    -0.064 C 
ATOM     27  C   UNL     1      18.150   3.083  43.195  0.00  0.00    +0.066 C 
ENDBRANCH  19  20
ENDBRANCH  18  19
ENDBRANCH  14  15
ENDBRANCH  12  13
TORSDOF 6
ENDMDL
