MODEL 1
REMARK VINA RESULT:     -11.2      0.000      0.000
REMARK  Name = C:\Users\Docking\Desktop\test protocol\1iep_ligandH.pdb
REMARK  8 active torsions:
REMARK  status: ('A' for Active; 'I' for Inactive)
REMARK    1  A    between atoms: _5  and  _11
REMARK    2  A    between atoms: _19  and  _21
REMARK    3  A    between atoms: _22  and  _66
REMARK    4  A    between atoms: _27  and  _30
REMARK    5  A    between atoms: _32  and  _33
REMARK    6  A    between atoms: _38  and  _43
REMARK    7  A    between atoms: _43  and  _46
REMARK    8  A    between atoms: _53  and  _55
REMARK                            x       y       z     vdW  Elec       q    Type
REMARK                         _______ _______ _______ _____ _____    ______ ____
ROOT
ATOM     10  C   UNL     1      18.439   4.625  41.944  0.00  0.00    +0.038 A 
ATOM     11  C   UNL     1      17.375   4.931  41.057  0.00  0.00    +0.047 A 
ATOM     12  C   UNL     1      17.417   6.113  40.210  0.00  0.00    +0.035 A 
ATOM     32  C   UNL     1      18.559   6.962  40.291  0.00  0.00    +0.024 A 
ATOM     33  C   UNL     1      19.649   6.667  41.188  0.00  0.00    +0.007 A 
ATOM     34  C   UNL     1      19.612   5.503  42.027  0.00  0.00    -0.029 A 
ATOM     35  C   UNL     1      20.806   5.240  42.974  0.00  0.00    +0.045 C 
ENDROOT
BRANCH  10   9
ATOM      4  C   UNL     1      16.974   2.302  45.880  0.00  0.00    +0.077 A 
ATOM      5  C   UNL     1      16.365   3.483  46.422  0.00  0.00    +0.048 A 
ATOM      6  C   UNL     1      16.457   4.669  45.659  0.00  0.00    +0.116 A 
ATOM      7  N   UNL     1      17.112   4.663  44.447  0.00  0.00    -0.223 NA
ATOM      8  C   UNL     1      17.690   3.508  43.954  0.00  0.00    +0.220 A 
ATOM      9  N   UNL     1      18.346   3.477  42.733  0.00  0.00    -0.283 N 
ATOM     36  H   UNL     1      18.766   2.607  42.408  0.00  0.00    +0.155 HD
ATOM     37  N   UNL     1      17.617   2.362  44.664  0.00  0.00    -0.214 NA
BRANCH   4   3
ATOM      1  C   UNL     1      15.933  -0.733  48.118  0.00  0.00    +0.020 A 
ATOM      2  C   UNL     1      15.901   0.564  47.482  0.00  0.00    +0.013 A 
ATOM      3  C   UNL     1      16.959   0.971  46.566  0.00  0.00    +0.019 A 
ATOM     38  C   UNL     1      18.043   0.035  46.311  0.00  0.00    +0.120 A 
ATOM     39  N   UNL     1      18.048  -1.207  46.939  0.00  0.00    -0.263 NA
ATOM     40  C   UNL     1      17.037  -1.609  47.824  0.00  0.00    +0.111 A 
ENDBRANCH   4   3
ENDBRANCH  10   9
BRANCH  12  13
ATOM     13  N   UNL     1      16.363   6.479  39.297  0.00  0.00    -0.281 N 
ATOM     14  C   UNL     1      16.466   6.749  37.942  0.00  0.00    +0.248 C 
ATOM     30  O   UNL     1      17.520   6.925  37.351  0.00  0.00    -0.270 OA
ATOM     31  H   UNL     1      15.427   6.547  39.698  0.00  0.00    +0.155 HD
BRANCH  14  15
ATOM     15  C   UNL     1      15.216   6.851  37.129  0.00  0.00    +0.037 A 
ATOM     16  C   UNL     1      14.698   8.150  36.692  0.00  0.00    +0.013 A 
ATOM     17  C   UNL     1      13.480   8.221  35.923  0.00  0.00    +0.005 A 
ATOM     18  C   UNL     1      12.773   6.989  35.585  0.00  0.00    -0.033 A 
ATOM     28  C   UNL     1      13.312   5.713  36.028  0.00  0.00    +0.005 A 
ATOM     29  C   UNL     1      14.504   5.639  36.782  0.00  0.00    +0.013 A 
BRANCH  18  19
ATOM     19  C   UNL     1      11.456   6.972  34.787  0.00  0.00    +0.119 C 
BRANCH  19  20
ATOM     20  N   UNL     1      10.926   8.286  34.315  0.00  0.00    -0.302 NA
ATOM     21  C   UNL     1       9.831   8.828  35.238  0.00  0.00    +0.066 C 
ATOM     22  C   UNL     1       9.303  10.213  34.743  0.00  0.00    -0.064 C 
ATOM     23  N   UNL     1       8.784  10.076  33.310  0.00  0.00    +0.379 N 
ATOM     24  C   UNL     1       8.234  11.363  32.862  0.00  0.00    -0.096 C 
ATOM     25  H   UNL     1       7.950   9.337  33.322  0.00  0.00    -0.082 HD
ATOM     26  C   UNL     1       9.866   9.535  32.386  0.00  0.00    -0.064 C 
ATOM     27  C   UNL     1      10.404   8.172  32.904  0.00  0.00    +0.066 C 
ENDBRANCH  19  20
ENDBRANCH  18  19
ENDBRANCH  14  15
ENDBRANCH  12  13
TORSDOF 6
ENDMDL
MODEL 2
REMARK VINA RESULT:     -10.2     10.531     14.507
REMARK  Name = C:\Users\Docking\Desktop\test protocol\1iep_ligandH.pdb
REMARK  8 active torsions:
REMARK  status: ('A' for Active; 'I' for Inactive)
REMARK    1  A    between atoms: _5  and  _11
REMARK    2  A    between atoms: _19  and  _21
REMARK    3  A    between atoms: _22  and  _66
REMARK    4  A    between atoms: _27  and  _30
REMARK    5  A    between atoms: _32  and  _33
REMARK    6  A    between atoms: _38  and  _43
REMARK    7  A    between atoms: _43  and  _46
REMARK    8  A    between atoms: _53  and  _55
REMARK                            x       y       z     vdW  Elec       q    Type
REMARK                         _______ _______ _______ _____ _____    ______ ____
ROOT
ATOM     10  C   UNL     1       8.935  10.302  33.803  0.00  0.00    +0.038 A 
ATOM     11  C   UNL     1      10.112  11.056  34.045  0.00  0.00    +0.047 A 
ATOM     12  C   UNL     1      10.411  11.580  35.368  0.00  0.00    +0.035 A 
ATOM     32  C   UNL     1       9.492  11.314  36.424  0.00  0.00    +0.024 A 
ATOM     33  C   UNL     1       8.290  10.550  36.196  0.00  0.00    +0.007 A 
ATOM     34  C   UNL     1       7.988  10.033  34.892  0.00  0.00    -0.029 A 
ATOM     35  C   UNL     1       6.682   9.227  34.704  0.00  0.00    +0.045 C 
ENDROOT
BRANCH  10   9
ATOM      4  C   UNL     1       9.560   7.078  30.303  0.00  0.00    +0.077 A 
ATOM      5  C   UNL     1      10.457   6.295  31.103  0.00  0.00    +0.048 A 
ATOM      6  C   UNL     1      10.737   6.761  32.407  0.00  0.00    +0.116 A 
ATOM      7  N   UNL     1      10.157   7.924  32.867  0.00  0.00    -0.223 NA
ATOM      8  C   UNL     1       9.298   8.656  32.068  0.00  0.00    +0.220 A 
ATOM      9  N   UNL     1       8.697   9.823  32.513  0.00  0.00    -0.283 N 
ATOM     36  H   UNL     1       8.075  10.339  31.891  0.00  0.00    +0.155 HD
ATOM     37  N   UNL     1       9.015   8.233  30.819  0.00  0.00    -0.214 NA
BRANCH   4   3
ATOM      1  C   UNL     1       9.623   5.701  26.642  0.00  0.00    +0.020 A 
ATOM      2  C   UNL     1      10.056   6.029  27.981  0.00  0.00    +0.013 A 
ATOM      3  C   UNL     1       9.163   6.715  28.905  0.00  0.00    +0.019 A 
ATOM     38  C   UNL     1       7.827   7.058  28.440  0.00  0.00    +0.120 A 
ATOM     39  N   UNL     1       7.439   6.731  27.145  0.00  0.00    -0.263 NA
ATOM     40  C   UNL     1       8.290   6.071  26.246  0.00  0.00    +0.111 A 
ENDBRANCH   4   3
ENDBRANCH  10   9
BRANCH  12  13
ATOM     13  N   UNL     1      11.586  12.359  35.671  0.00  0.00    -0.281 N 
ATOM     14  C   UNL     1      12.911  11.955  35.629  0.00  0.00    +0.248 C 
ATOM     30  O   UNL     1      13.276  10.793  35.528  0.00  0.00    -0.270 OA
ATOM     31  H   UNL     1      11.422  13.326  35.952  0.00  0.00    +0.155 HD
BRANCH  14  15
ATOM     15  C   UNL     1      13.985  12.990  35.726  0.00  0.00    +0.037 A 
ATOM     16  C   UNL     1      14.234  13.712  36.976  0.00  0.00    +0.013 A 
ATOM     17  C   UNL     1      15.265  14.717  37.038  0.00  0.00    +0.005 A 
ATOM     18  C   UNL     1      16.057  15.005  35.844  0.00  0.00    -0.033 A 
ATOM     28  C   UNL     1      15.792  14.270  34.618  0.00  0.00    +0.005 A 
ATOM     29  C   UNL     1      14.782  13.285  34.554  0.00  0.00    +0.013 A 
BRANCH  18  19
ATOM     19  C   UNL     1      17.163  16.076  35.813  0.00  0.00    +0.119 C 
BRANCH  19  20
ATOM     20  N   UNL     1      18.575  15.598  35.731  0.00  0.00    -0.302 NA
ATOM     21  C   UNL     1      18.959  14.731  36.933  0.00  0.00    +0.066 C 
ATOM     22  C   UNL     1      20.433  14.221  36.820  0.00  0.00    -0.064 C 
ATOM     23  N   UNL     1      21.376  15.418  36.693  0.00  0.00    +0.379 N 
ATOM     24  C   UNL     1      22.767  14.945  36.644  0.00  0.00    -0.096 C 
ATOM     25  H   UNL     1      21.261  16.038  37.613  0.00  0.00    -0.082 HD
ATOM     26  C   UNL     1      20.999  16.288  35.501  0.00  0.00    -0.064 C 
ATOM     27  C   UNL     1      19.524  16.765  35.609  0.00  0.00    +0.066 C 
ENDBRANCH  19  20
ENDBRANCH  18  19
ENDBRANCH  14  15
ENDBRANCH  12  13
TORSDOF 6
ENDMDL
MODEL 3
REMARK VINA RESULT:     -10.2      2.689     13.371
REMARK  Name = C:\Users\Docking\Desktop\test protocol\1iep_ligandH.pdb
REMARK  8 active torsions:
REMARK  status: ('A' for Active; 'I' for Inactive)
REMARK    1  A    between atoms: _5  and  _11
REMARK    2  A    between atoms: _19  and  _21
REMARK    3  A    between atoms: _22  and  _66
REMARK    4  A    between atoms: _27  and  _30
REMARK    5  A    between atoms: _32  and  _33
REMARK    6  A    between atoms: _38  and  _43
REMARK    7  A    between atoms: _43  and  _46
REMARK    8  A    between atoms: _53  and  _55
REMARK                            x       y       z     vdW  Elec       q    Type
REMARK                         _______ _______ _______ _____ _____    ______ ____
ROOT
ATOM     10  C   UNL     1      12.585   9.260  35.131  0.00  0.00    +0.038 A 
ATOM     11  C   UNL     1      13.287   8.711  36.234  0.00  0.00    +0.047 A 
ATOM     12  C   UNL     1      13.827   7.361  36.185  0.00  0.00    +0.035 A 
ATOM     32  C   UNL     1      13.635   6.599  34.996  0.00  0.00    +0.024 A 
ATOM     33  C   UNL     1      12.923   7.141  33.866  0.00  0.00    +0.007 A 
ATOM     34  C   UNL     1      12.386   8.471  33.909  0.00  0.00    -0.029 A 
ATOM     35  C   UNL     1      11.625   8.998  32.670  0.00  0.00    +0.045 C 
ENDROOT
BRANCH  10   9
ATOM      4  C   UNL     1       9.102  12.391  36.181  0.00  0.00    +0.077 A 
ATOM      5  C   UNL     1       8.186  11.345  36.534  0.00  0.00    +0.048 A 
ATOM      6  C   UNL     1       8.648  10.014  36.424  0.00  0.00    +0.116 A 
ATOM      7  N   UNL     1       9.932   9.760  35.993  0.00  0.00    -0.223 NA
ATOM      8  C   UNL     1      10.790  10.793  35.660  0.00  0.00    +0.220 A 
ATOM      9  N   UNL     1      12.088  10.561  35.232  0.00  0.00    -0.283 N 
ATOM     36  H   UNL     1      12.686  11.350  34.988  0.00  0.00    +0.155 HD
ATOM     37  N   UNL     1      10.372  12.072  35.754  0.00  0.00    -0.214 NA
BRANCH   4   3
ATOM      1  C   UNL     1       7.444  15.797  37.157  0.00  0.00    +0.020 A 
ATOM      2  C   UNL     1       7.733  14.382  37.130  0.00  0.00    +0.013 A 
ATOM      3  C   UNL     1       8.763  13.848  36.248  0.00  0.00    +0.019 A 
ATOM     38  C   UNL     1       9.488  14.780  35.399  0.00  0.00    +0.120 A 
ATOM     39  N   UNL     1       9.188  16.138  35.444  0.00  0.00    -0.263 NA
ATOM     40  C   UNL     1       8.198  16.663  36.288  0.00  0.00    +0.111 A 
ENDBRANCH   4   3
ENDBRANCH  10   9
BRANCH  12  13
ATOM     13  N   UNL     1      14.542   6.748  37.277  0.00  0.00    -0.281 N 
ATOM     14  C   UNL     1      15.913   6.694  37.474  0.00  0.00    +0.248 C 
ATOM     30  O   UNL     1      16.744   6.981  36.626  0.00  0.00    -0.270 OA
ATOM     31  H   UNL     1      13.969   6.299  37.991  0.00  0.00    +0.155 HD
BRANCH  14  15
ATOM     15  C   UNL     1      16.434   6.241  38.799  0.00  0.00    +0.037 A 
ATOM     16  C   UNL     1      15.795   5.146  39.534  0.00  0.00    +0.013 A 
ATOM     17  C   UNL     1      16.308   4.740  40.818  0.00  0.00    +0.005 A 
ATOM     18  C   UNL     1      17.469   5.430  41.376  0.00  0.00    -0.033 A 
ATOM     28  C   UNL     1      18.087   6.509  40.624  0.00  0.00    +0.005 A 
ATOM     29  C   UNL     1      17.586   6.910  39.365  0.00  0.00    +0.013 A 
BRANCH  18  19
ATOM     19  C   UNL     1      18.071   5.078  42.749  0.00  0.00    +0.119 C 
BRANCH  19  20
ATOM     20  N   UNL     1      17.376   4.026  43.551  0.00  0.00    -0.302 NA
ATOM     21  C   UNL     1      17.217   4.434  45.018  0.00  0.00    +0.066 C 
ATOM     22  C   UNL     1      16.468   3.333  45.837  0.00  0.00    -0.064 C 
ATOM     23  N   UNL     1      17.229   2.011  45.722  0.00  0.00    +0.379 N 
ATOM     24  C   UNL     1      16.560   0.987  46.538  0.00  0.00    -0.096 C 
ATOM     25  H   UNL     1      18.248   2.169  46.147  0.00  0.00    -0.082 HD
ATOM     26  C   UNL     1      17.394   1.599  44.266  0.00  0.00    -0.064 C 
ATOM     27  C   UNL     1      18.113   2.713  43.455  0.00  0.00    +0.066 C 
ENDBRANCH  19  20
ENDBRANCH  18  19
ENDBRANCH  14  15
ENDBRANCH  12  13
TORSDOF 6
ENDMDL
MODEL 4
REMARK VINA RESULT:     -10.1      2.387     12.500
REMARK  Name = C:\Users\Docking\Desktop\test protocol\1iep_ligandH.pdb
REMARK  8 active torsions:
REMARK  status: ('A' for Active; 'I' for Inactive)
REMARK    1  A    between atoms: _5  and  _11
REMARK    2  A    between atoms: _19  and  _21
REMARK    3  A    between atoms: _22  and  _66
REMARK    4  A    between atoms: _27  and  _30
REMARK    5  A    between atoms: _32  and  _33
REMARK    6  A    between atoms: _38  and  _43
REMARK    7  A    between atoms: _43  and  _46
REMARK    8  A    between atoms: _53  and  _55
REMARK                            x       y       z     vdW  Elec       q    Type
REMARK                         _______ _______ _______ _____ _____    ______ ____
ROOT
ATOM     10  C   UNL     1      18.379   6.469  40.855  0.00  0.00    +0.038 A 
ATOM     11  C   UNL     1      17.811   5.587  41.809  0.00  0.00    +0.047 A 
ATOM     12  C   UNL     1      18.643   4.879  42.769  0.00  0.00    +0.035 A 
ATOM     32  C   UNL     1      20.052   5.095  42.730  0.00  0.00    +0.024 A 
ATOM     33  C   UNL     1      20.646   5.987  41.766  0.00  0.00    +0.007 A 
ATOM     34  C   UNL     1      19.830   6.687  40.815  0.00  0.00    -0.029 A 
ATOM     35  C   UNL     1      20.522   7.626  39.800  0.00  0.00    +0.045 C 
ENDROOT
BRANCH  10   9
ATOM      4  C   UNL     1      15.357   6.476  37.126  0.00  0.00    +0.077 A 
ATOM      5  C   UNL     1      15.498   5.062  36.933  0.00  0.00    +0.048 A 
ATOM      6  C   UNL     1      16.363   4.370  37.811  0.00  0.00    +0.116 A 
ATOM      7  N   UNL     1      17.032   5.053  38.803  0.00  0.00    -0.223 NA
ATOM      8  C   UNL     1      16.875   6.418  38.961  0.00  0.00    +0.220 A 
ATOM      9  N   UNL     1      17.532   7.123  39.957  0.00  0.00    -0.283 N 
ATOM     36  H   UNL     1      17.395   8.131  40.036  0.00  0.00    +0.155 HD
ATOM     37  N   UNL     1      16.056   7.101  38.135  0.00  0.00    -0.214 NA
BRANCH   4   3
ATOM      1  C   UNL     1      13.353   9.539  35.746  0.00  0.00    +0.020 A 
ATOM      2  C   UNL     1      14.210   8.743  36.594  0.00  0.00    +0.013 A 
ATOM      3  C   UNL     1      14.477   7.345  36.282  0.00  0.00    +0.019 A 
ATOM     38  C   UNL     1      13.857   6.778  35.094  0.00  0.00    +0.120 A 
ATOM     39  N   UNL     1      13.035   7.568  34.296  0.00  0.00    -0.263 NA
ATOM     40  C   UNL     1      12.770   8.914  34.588  0.00  0.00    +0.111 A 
ENDBRANCH   4   3
ENDBRANCH  10   9
BRANCH  12  13
ATOM     13  N   UNL     1      18.124   3.965  43.756  0.00  0.00    -0.281 N 
ATOM     14  C   UNL     1      17.723   2.652  43.572  0.00  0.00    +0.248 C 
ATOM     30  O   UNL     1      17.548   2.128  42.482  0.00  0.00    -0.270 OA
ATOM     31  H   UNL     1      18.042   4.330  44.705  0.00  0.00    +0.155 HD
BRANCH  14  15
ATOM     15  C   UNL     1      17.463   1.801  44.774  0.00  0.00    +0.037 A 
ATOM     16  C   UNL     1      17.995   0.440  44.870  0.00  0.00    +0.013 A 
ATOM     17  C   UNL     1      17.716  -0.365  46.033  0.00  0.00    +0.005 A 
ATOM     18  C   UNL     1      16.901   0.191  47.110  0.00  0.00    -0.033 A 
ATOM     28  C   UNL     1      16.390   1.547  46.991  0.00  0.00    +0.005 A 
ATOM     29  C   UNL     1      16.661   2.338  45.852  0.00  0.00    +0.013 A 
BRANCH  18  19
ATOM     19  C   UNL     1      16.535  -0.603  48.378  0.00  0.00    +0.119 C 
BRANCH  19  20
ATOM     20  N   UNL     1      15.195  -0.344  48.985  0.00  0.00    -0.302 NA
ATOM     21  C   UNL     1      15.179  -0.638  50.487  0.00  0.00    +0.066 C 
ATOM     22  C   UNL     1      13.776  -0.339  51.110  0.00  0.00    -0.064 C 
ATOM     23  N   UNL     1      12.713  -1.166  50.385  0.00  0.00    +0.379 N 
ATOM     24  C   UNL     1      11.401  -0.931  51.006  0.00  0.00    -0.096 C 
ATOM     25  H   UNL     1      12.967  -2.242  50.526  0.00  0.00    -0.082 HD
ATOM     26  C   UNL     1      12.724  -0.882  48.889  0.00  0.00    -0.064 C 
ATOM     27  C   UNL     1      14.131  -1.153  48.286  0.00  0.00    +0.066 C 
ENDBRANCH  19  20
ENDBRANCH  18  19
ENDBRANCH  14  15
ENDBRANCH  12  13
TORSDOF 6
ENDMDL
MODEL 5
REMARK VINA RESULT:     -10.0      9.767     15.630
REMARK  Name = C:\Users\Docking\Desktop\test protocol\1iep_ligandH.pdb
REMARK  8 active torsions:
REMARK  status: ('A' for Active; 'I' for Inactive)
REMARK    1  A    between atoms: _5  and  _11
REMARK    2  A    between atoms: _19  and  _21
REMARK    3  A    between atoms: _22  and  _66
REMARK    4  A    between atoms: _27  and  _30
REMARK    5  A    between atoms: _32  and  _33
REMARK    6  A    between atoms: _38  and  _43
REMARK    7  A    between atoms: _43  and  _46
REMARK    8  A    between atoms: _53  and  _55
REMARK                            x       y       z     vdW  Elec       q    Type
REMARK                         _______ _______ _______ _____ _____    ______ ____
ROOT
ATOM     10  C   UNL     1       6.097   9.595  35.101  0.00  0.00    +0.038 A 
ATOM     11  C   UNL     1       6.968  10.025  36.134  0.00  0.00    +0.047 A 
ATOM     12  C   UNL     1       6.482  10.836  37.239  0.00  0.00    +0.035 A 
ATOM     32  C   UNL     1       5.100  11.187  37.262  0.00  0.00    +0.024 A 
ATOM     33  C   UNL     1       4.201  10.759  36.220  0.00  0.00    +0.007 A 
ATOM     34  C   UNL     1       4.676   9.962  35.125  0.00  0.00    -0.029 A 
ATOM     35  C   UNL     1       3.669   9.536  34.032  0.00  0.00    +0.045 C 
ENDROOT
BRANCH  10   9
ATOM      4  C   UNL     1       7.918   9.100  30.687  0.00  0.00    +0.077 A 
ATOM      5  C   UNL     1       7.796  10.503  30.415  0.00  0.00    +0.048 A 
ATOM      6  C   UNL     1       7.253  11.317  31.435  0.00  0.00    +0.116 A 
ATOM      7  N   UNL     1       6.865  10.758  32.634  0.00  0.00    -0.223 NA
ATOM      8  C   UNL     1       6.995   9.400  32.862  0.00  0.00    +0.220 A 
ATOM      9  N   UNL     1       6.618   8.818  34.063  0.00  0.00    -0.283 N 
ATOM     36  H   UNL     1       6.723   7.812  34.190  0.00  0.00    +0.155 HD
ATOM     37  N   UNL     1       7.509   8.602  31.904  0.00  0.00    -0.214 NA
BRANCH   4   3
ATOM      1  C   UNL     1       8.696   7.137  27.394  0.00  0.00    +0.020 A 
ATOM      2  C   UNL     1       8.129   8.114  28.295  0.00  0.00    +0.013 A 
ATOM      3  C   UNL     1       8.475   8.111  29.711  0.00  0.00    +0.019 A 
ATOM     38  C   UNL     1       9.407   7.099  30.187  0.00  0.00    +0.120 A 
ATOM     39  N   UNL     1       9.936   6.170  29.296  0.00  0.00    -0.263 NA
ATOM     40  C   UNL     1       9.608   6.162  27.932  0.00  0.00    +0.111 A 
ENDBRANCH   4   3
ENDBRANCH  10   9
BRANCH  12  13
ATOM     13  N   UNL     1       7.320  11.309  38.313  0.00  0.00    -0.281 N 
ATOM     14  C   UNL     1       7.401  12.592  38.828  0.00  0.00    +0.248 C 
ATOM     30  O   UNL     1       6.917  13.581  38.298  0.00  0.00    -0.270 OA
ATOM     31  H   UNL     1       7.928  10.613  38.745  0.00  0.00    +0.155 HD
BRANCH  14  15
ATOM     15  C   UNL     1       8.140  12.811  40.108  0.00  0.00    +0.037 A 
ATOM     16  C   UNL     1       7.795  12.065  41.321  0.00  0.00    +0.013 A 
ATOM     17  C   UNL     1       8.512  12.307  42.548  0.00  0.00    +0.005 A 
ATOM     18  C   UNL     1       9.583  13.301  42.567  0.00  0.00    -0.033 A 
ATOM     28  C   UNL     1       9.908  14.023  41.348  0.00  0.00    +0.005 A 
ATOM     29  C   UNL     1       9.207  13.788  40.144  0.00  0.00    +0.013 A 
BRANCH  18  19
ATOM     19  C   UNL     1      10.387  13.640  43.836  0.00  0.00    +0.119 C 
BRANCH  19  20
ATOM     20  N   UNL     1      10.233  12.726  45.008  0.00  0.00    -0.302 NA
ATOM     21  C   UNL     1       9.216  13.259  46.021  0.00  0.00    +0.066 C 
ATOM     22  C   UNL     1       9.050  12.281  47.229  0.00  0.00    -0.064 C 
ATOM     23  N   UNL     1      10.411  12.058  47.892  0.00  0.00    +0.379 N 
ATOM     24  C   UNL     1      10.248  11.184  49.064  0.00  0.00    -0.096 C 
ATOM     25  H   UNL     1      10.775  13.047  48.256  0.00  0.00    -0.082 HD
ATOM     26  C   UNL     1      11.428  11.531  46.891  0.00  0.00    -0.064 C 
ATOM     27  C   UNL     1      11.564  12.496  45.680  0.00  0.00    +0.066 C 
ENDBRANCH  19  20
ENDBRANCH  18  19
ENDBRANCH  14  15
ENDBRANCH  12  13
TORSDOF 6
ENDMDL
