MODEL 1
REMARK VINA RESULT:      -8.6      0.000      0.000
REMARK  Name = C:\Users\Docking\Desktop\test protocol\1iep_ligandH.pdb
REMARK  8 active torsions:
REMARK  status: ('A' for Active; 'I' for Inactive)
REMARK    1  A    between atoms: _5  and  _11
REMARK    2  A    between atoms: _19  and  _21
REMARK    3  A    between atoms: _22  and  _66
REMARK    4  A    between atoms: _27  and  _30
REMARK    5  A    between atoms: _32  and  _33
REMARK    6  A    between atoms: _38  and  _43
REMARK    7  A    between atoms: _43  and  _46
REMARK    8  A    between atoms: _53  and  _55
REMARK                            x       y       z     vdW  Elec       q    Type
REMARK                         _______ _______ _______ _____ _____    ______ ____
ROOT
ATOM     10  C   UNL     1      38.528  27.265  55.771  0.00  0.00    +0.038 A 
ATOM     11  C   UNL     1      37.609  28.115  55.104  0.00  0.00    +0.047 A 
ATOM     12  C   UNL     1      36.346  28.490  55.720  0.00  0.00    +0.035 A 
ATOM     32  C   UNL     1      36.051  27.982  57.019  0.00  0.00    +0.024 A 
ATOM     33  C   UNL     1      36.973  27.115  57.711  0.00  0.00    +0.007 A 
ATOM     34  C   UNL     1      38.219  26.741  57.107  0.00  0.00    -0.029 A 
ATOM     35  C   UNL     1      39.166  25.804  57.893  0.00  0.00    +0.045 C 
ENDROOT
BRANCH  10   9
ATOM      4  C   UNL     1      41.171  24.459  52.911  0.00  0.00    +0.077 A 
ATOM      5  C   UNL     1      40.080  23.554  52.692  0.00  0.00    +0.048 A 
ATOM      6  C   UNL     1      38.858  23.842  53.340  0.00  0.00    +0.116 A 
ATOM      7  N   UNL     1      38.746  24.956  54.143  0.00  0.00    -0.223 NA
ATOM      8  C   UNL     1      39.818  25.808  54.335  0.00  0.00    +0.220 A 
ATOM      9  N   UNL     1      39.726  26.938  55.132  0.00  0.00    -0.283 N 
ATOM     36  H   UNL     1      40.542  27.537  55.254  0.00  0.00    +0.155 HD
ATOM     37  N   UNL     1      40.997  25.553  53.729  0.00  0.00    -0.214 NA
BRANCH   4   3
ATOM      1  C   UNL     1      44.319  24.918  50.635  0.00  0.00    +0.020 A 
ATOM      2  C   UNL     1      43.002  25.120  51.195  0.00  0.00    +0.013 A 
ATOM      3  C   UNL     1      42.525  24.292  52.295  0.00  0.00    +0.019 A 
ATOM     38  C   UNL     1      43.412  23.259  52.810  0.00  0.00    +0.120 A 
ATOM     39  N   UNL     1      44.674  23.086  52.250  0.00  0.00    -0.263 NA
ATOM     40  C   UNL     1      45.143  23.876  51.190  0.00  0.00    +0.111 A 
ENDBRANCH   4   3
ENDBRANCH  10   9
BRANCH  12  13
ATOM     13  N   UNL     1      35.371  29.343  55.087  0.00  0.00    -0.281 N 
ATOM     14  C   UNL     1      34.716  29.141  53.884  0.00  0.00    +0.248 C 
ATOM     30  O   UNL     1      35.029  28.294  53.060  0.00  0.00    -0.270 OA
ATOM     31  H   UNL     1      35.135  30.200  55.588  0.00  0.00    +0.155 HD
BRANCH  14  15
ATOM     15  C   UNL     1      33.554  30.015  53.538  0.00  0.00    +0.037 A 
ATOM     16  C   UNL     1      33.399  30.577  52.194  0.00  0.00    +0.013 A 
ATOM     17  C   UNL     1      32.277  31.432  51.893  0.00  0.00    +0.005 A 
ATOM     18  C   UNL     1      31.301  31.727  52.938  0.00  0.00    -0.033 A 
ATOM     28  C   UNL     1      31.476  31.152  54.261  0.00  0.00    +0.005 A 
ATOM     29  C   UNL     1      32.575  30.315  54.561  0.00  0.00    +0.013 A 
BRANCH  18  19
ATOM     19  C   UNL     1      30.085  32.646  52.712  0.00  0.00    +0.119 C 
BRANCH  19  20
ATOM     20  N   UNL     1      28.771  31.988  52.448  0.00  0.00    -0.302 NA
ATOM     21  C   UNL     1      27.935  31.844  53.723  0.00  0.00    +0.066 C 
ATOM     22  C   UNL     1      26.554  31.174  53.425  0.00  0.00    -0.064 C 
ATOM     23  N   UNL     1      26.782  29.810  52.771  0.00  0.00    +0.379 N 
ATOM     24  C   UNL     1      25.487  29.153  52.543  0.00  0.00    -0.096 C 
ATOM     25  H   UNL     1      27.358  29.183  53.490  0.00  0.00    -0.082 HD
ATOM     26  C   UNL     1      27.615  29.944  51.504  0.00  0.00    -0.064 C 
ATOM     27  C   UNL     1      28.973  30.637  51.806  0.00  0.00    +0.066 C 
ENDBRANCH  19  20
ENDBRANCH  18  19
ENDBRANCH  14  15
ENDBRANCH  12  13
TORSDOF 6
ENDMDL
MODEL 2
REMARK VINA RESULT:      -8.6     27.483     30.983
REMARK  Name = C:\Users\Docking\Desktop\test protocol\1iep_ligandH.pdb
REMARK  8 active torsions:
REMARK  status: ('A' for Active; 'I' for Inactive)
REMARK    1  A    between atoms: _5  and  _11
REMARK    2  A    between atoms: _19  and  _21
REMARK    3  A    between atoms: _22  and  _66
REMARK    4  A    between atoms: _27  and  _30
REMARK    5  A    between atoms: _32  and  _33
REMARK    6  A    between atoms: _38  and  _43
REMARK    7  A    between atoms: _43  and  _46
REMARK    8  A    between atoms: _53  and  _55
REMARK                            x       y       z     vdW  Elec       q    Type
REMARK                         _______ _______ _______ _____ _____    ______ ____
ROOT
ATOM     10  C   UNL     1      39.598   0.820  41.723  0.00  0.00    +0.038 A 
ATOM     11  C   UNL     1      40.649   1.538  41.097  0.00  0.00    +0.047 A 
ATOM     12  C   UNL     1      41.705   2.161  41.880  0.00  0.00    +0.035 A 
ATOM     32  C   UNL     1      41.661   2.032  43.298  0.00  0.00    +0.024 A 
ATOM     33  C   UNL     1      40.599   1.306  43.951  0.00  0.00    +0.007 A 
ATOM     34  C   UNL     1      39.554   0.691  43.184  0.00  0.00    -0.029 A 
ATOM     35  C   UNL     1      38.437  -0.068  43.938  0.00  0.00    +0.045 C 
ENDROOT
BRANCH  10   9
ATOM      4  C   UNL     1      35.733   1.114  38.894  0.00  0.00    +0.077 A 
ATOM      5  C   UNL     1      35.658   2.539  39.044  0.00  0.00    +0.048 A 
ATOM      6  C   UNL     1      36.629   3.157  39.863  0.00  0.00    +0.116 A 
ATOM      7  N   UNL     1      37.598   2.396  40.482  0.00  0.00    -0.223 NA
ATOM      8  C   UNL     1      37.641   1.024  40.317  0.00  0.00    +0.220 A 
ATOM      9  N   UNL     1      38.611   0.241  40.923  0.00  0.00    -0.283 N 
ATOM     36  H   UNL     1      38.604  -0.769  40.782  0.00  0.00    +0.155 HD
ATOM     37  N   UNL     1      36.724   0.410  39.540  0.00  0.00    -0.214 NA
BRANCH   4   3
ATOM      1  C   UNL     1      32.738  -1.136  37.764  0.00  0.00    +0.020 A 
ATOM      2  C   UNL     1      33.628  -0.380  38.616  0.00  0.00    +0.013 A 
ATOM      3  C   UNL     1      34.780   0.317  38.058  0.00  0.00    +0.019 A 
ATOM     38  C   UNL     1      35.005   0.229  36.623  0.00  0.00    +0.120 A 
ATOM     39  N   UNL     1      34.132  -0.508  35.828  0.00  0.00    -0.263 NA
ATOM     40  C   UNL     1      33.021  -1.184  36.354  0.00  0.00    +0.111 A 
ENDBRANCH   4   3
ENDBRANCH  10   9
BRANCH  12  13
ATOM     13  N   UNL     1      42.793   2.909  41.300  0.00  0.00    -0.281 N 
ATOM     14  C   UNL     1      42.804   4.242  40.923  0.00  0.00    +0.248 C 
ATOM     30  O   UNL     1      41.807   4.942  40.829  0.00  0.00    -0.270 OA
ATOM     31  H   UNL     1      43.660   2.394  41.150  0.00  0.00    +0.155 HD
BRANCH  14  15
ATOM     15  C   UNL     1      44.110   4.887  40.588  0.00  0.00    +0.037 A 
ATOM     16  C   UNL     1      44.398   6.269  40.979  0.00  0.00    +0.013 A 
ATOM     17  C   UNL     1      45.660   6.872  40.628  0.00  0.00    +0.005 A 
ATOM     18  C   UNL     1      46.644   6.092  39.882  0.00  0.00    -0.033 A 
ATOM     28  C   UNL     1      46.334   4.721  39.511  0.00  0.00    +0.005 A 
ATOM     29  C   UNL     1      45.099   4.127  39.852  0.00  0.00    +0.013 A 
BRANCH  18  19
ATOM     19  C   UNL     1      48.007   6.661  39.447  0.00  0.00    +0.119 C 
BRANCH  19  20
ATOM     20  N   UNL     1      48.292   6.708  37.982  0.00  0.00    -0.302 NA
ATOM     21  C   UNL     1      49.750   7.076  37.692  0.00  0.00    +0.066 C 
ATOM     22  C   UNL     1      50.037   7.098  36.155  0.00  0.00    -0.064 C 
ATOM     23  N   UNL     1      49.084   8.084  35.476  0.00  0.00    +0.379 N 
ATOM     24  C   UNL     1      49.390   8.150  34.039  0.00  0.00    -0.096 C 
ATOM     25  H   UNL     1      49.276   9.092  35.909  0.00  0.00    -0.082 HD
ATOM     26  C   UNL     1      47.632   7.727  35.761  0.00  0.00    -0.064 C 
ATOM     27  C   UNL     1      47.366   7.678  37.291  0.00  0.00    +0.066 C 
ENDBRANCH  19  20
ENDBRANCH  18  19
ENDBRANCH  14  15
ENDBRANCH  12  13
TORSDOF 6
ENDMDL
MODEL 3
REMARK VINA RESULT:      -8.4      1.688      2.743
REMARK  Name = C:\Users\Docking\Desktop\test protocol\1iep_ligandH.pdb
REMARK  8 active torsions:
REMARK  status: ('A' for Active; 'I' for Inactive)
REMARK    1  A    between atoms: _5  and  _11
REMARK    2  A    between atoms: _19  and  _21
REMARK    3  A    between atoms: _22  and  _66
REMARK    4  A    between atoms: _27  and  _30
REMARK    5  A    between atoms: _32  and  _33
REMARK    6  A    between atoms: _38  and  _43
REMARK    7  A    between atoms: _43  and  _46
REMARK    8  A    between atoms: _53  and  _55
REMARK                            x       y       z     vdW  Elec       q    Type
REMARK                         _______ _______ _______ _____ _____    ______ ____
ROOT
ATOM     10  C   UNL     1      38.439  27.461  55.745  0.00  0.00    +0.038 A 
ATOM     11  C   UNL     1      37.479  28.286  55.105  0.00  0.00    +0.047 A 
ATOM     12  C   UNL     1      36.247  28.668  55.778  0.00  0.00    +0.035 A 
ATOM     32  C   UNL     1      36.027  28.194  57.104  0.00  0.00    +0.024 A 
ATOM     33  C   UNL     1      36.991  27.354  57.769  0.00  0.00    +0.007 A 
ATOM     34  C   UNL     1      38.207  26.972  57.110  0.00  0.00    -0.029 A 
ATOM     35  C   UNL     1      39.203  26.064  57.869  0.00  0.00    +0.045 C 
ENDROOT
BRANCH  10   9
ATOM      4  C   UNL     1      41.004  24.519  52.952  0.00  0.00    +0.077 A 
ATOM      5  C   UNL     1      39.942  23.557  52.889  0.00  0.00    +0.048 A 
ATOM      6  C   UNL     1      38.755  23.854  53.595  0.00  0.00    +0.116 A 
ATOM      7  N   UNL     1      38.649  25.029  54.307  0.00  0.00    -0.223 NA
ATOM      8  C   UNL     1      39.693  25.934  54.349  0.00  0.00    +0.220 A 
ATOM      9  N   UNL     1      39.605  27.125  55.053  0.00  0.00    -0.283 N 
ATOM     36  H   UNL     1      40.400  27.764  55.065  0.00  0.00    +0.155 HD
ATOM     37  N   UNL     1      40.838  25.673  53.685  0.00  0.00    -0.214 NA
BRANCH   4   3
ATOM      1  C   UNL     1      44.093  25.083  50.619  0.00  0.00    +0.020 A 
ATOM      2  C   UNL     1      42.816  25.292  51.261  0.00  0.00    +0.013 A 
ATOM      3  C   UNL     1      42.319  24.350  52.256  0.00  0.00    +0.019 A 
ATOM     38  C   UNL     1      43.146  23.198  52.582  0.00  0.00    +0.120 A 
ATOM     39  N   UNL     1      44.371  23.022  51.947  0.00  0.00    -0.263 NA
ATOM     40  C   UNL     1      44.859  23.921  50.986  0.00  0.00    +0.111 A 
ENDBRANCH   4   3
ENDBRANCH  10   9
BRANCH  12  13
ATOM     13  N   UNL     1      35.232  29.496  55.175  0.00  0.00    -0.281 N 
ATOM     14  C   UNL     1      34.563  29.289  53.980  0.00  0.00    +0.248 C 
ATOM     30  O   UNL     1      34.890  28.465  53.139  0.00  0.00    -0.270 OA
ATOM     31  H   UNL     1      34.977  30.337  55.693  0.00  0.00    +0.155 HD
BRANCH  14  15
ATOM     15  C   UNL     1      33.366  30.128  53.669  0.00  0.00    +0.037 A 
ATOM     16  C   UNL     1      33.161  30.693  52.333  0.00  0.00    +0.013 A 
ATOM     17  C   UNL     1      32.006  31.513  52.064  0.00  0.00    +0.005 A 
ATOM     18  C   UNL     1      31.046  31.771  53.134  0.00  0.00    -0.033 A 
ATOM     28  C   UNL     1      31.271  31.193  54.448  0.00  0.00    +0.005 A 
ATOM     29  C   UNL     1      32.402  30.390  54.716  0.00  0.00    +0.013 A 
BRANCH  18  19
ATOM     19  C   UNL     1      29.797  32.651  52.942  0.00  0.00    +0.119 C 
BRANCH  19  20
ATOM     20  N   UNL     1      29.957  33.900  52.139  0.00  0.00    -0.302 NA
ATOM     21  C   UNL     1      30.710  34.987  52.910  0.00  0.00    +0.066 C 
ATOM     22  C   UNL     1      30.888  36.278  52.046  0.00  0.00    -0.064 C 
ATOM     23  N   UNL     1      29.515  36.783  51.601  0.00  0.00    +0.379 N 
ATOM     24  C   UNL     1      29.675  38.029  50.837  0.00  0.00    -0.096 C 
ATOM     25  H   UNL     1      28.929  37.021  52.518  0.00  0.00    -0.082 HD
ATOM     26  C   UNL     1      28.758  35.707  50.835  0.00  0.00    -0.064 C 
ATOM     27  C   UNL     1      28.612  34.419  51.691  0.00  0.00    +0.066 C 
ENDBRANCH  19  20
ENDBRANCH  18  19
ENDBRANCH  14  15
ENDBRANCH  12  13
TORSDOF 6
ENDMDL
MODEL 4
REMARK VINA RESULT:      -8.4     18.160     21.396
REMARK  Name = C:\Users\Docking\Desktop\test protocol\1iep_ligandH.pdb
REMARK  8 active torsions:
REMARK  status: ('A' for Active; 'I' for Inactive)
REMARK    1  A    between atoms: _5  and  _11
REMARK    2  A    between atoms: _19  and  _21
REMARK    3  A    between atoms: _22  and  _66
REMARK    4  A    between atoms: _27  and  _30
REMARK    5  A    between atoms: _32  and  _33
REMARK    6  A    between atoms: _38  and  _43
REMARK    7  A    between atoms: _43  and  _46
REMARK    8  A    between atoms: _53  and  _55
REMARK                            x       y       z     vdW  Elec       q    Type
REMARK                         _______ _______ _______ _____ _____    ______ ____
ROOT
ATOM     10  C   UNL     1      26.932  14.711  47.943  0.00  0.00    +0.038 A 
ATOM     11  C   UNL     1      26.405  14.277  46.699  0.00  0.00    +0.047 A 
ATOM     12  C   UNL     1      26.609  15.050  45.484  0.00  0.00    +0.035 A 
ATOM     32  C   UNL     1      27.356  16.261  45.571  0.00  0.00    +0.024 A 
ATOM     33  C   UNL     1      27.897  16.718  46.827  0.00  0.00    +0.007 A 
ATOM     34  C   UNL     1      27.698  15.961  48.029  0.00  0.00    -0.029 A 
ATOM     35  C   UNL     1      28.295  16.502  49.349  0.00  0.00    +0.045 C 
ENDROOT
BRANCH  10   9
ATOM      4  C   UNL     1      24.469  13.633  51.919  0.00  0.00    +0.077 A 
ATOM      5  C   UNL     1      23.572  14.737  51.734  0.00  0.00    +0.048 A 
ATOM      6  C   UNL     1      23.783  15.563  50.607  0.00  0.00    +0.116 A 
ATOM      7  N   UNL     1      24.817  15.294  49.736  0.00  0.00    -0.223 NA
ATOM      8  C   UNL     1      25.665  14.222  49.945  0.00  0.00    +0.220 A 
ATOM      9  N   UNL     1      26.706  13.929  49.078  0.00  0.00    -0.283 N 
ATOM     36  H   UNL     1      27.315  13.134  49.271  0.00  0.00    +0.155 HD
ATOM     37  N   UNL     1      25.486  13.420  51.015  0.00  0.00    -0.214 NA
BRANCH   4   3
ATOM      1  C   UNL     1      24.591  12.063  55.500  0.00  0.00    +0.020 A 
ATOM      2  C   UNL     1      24.700  13.032  54.434  0.00  0.00    +0.013 A 
ATOM      3  C   UNL     1      24.374  12.669  53.060  0.00  0.00    +0.019 A 
ATOM     38  C   UNL     1      23.936  11.306  52.798  0.00  0.00    +0.120 A 
ATOM     39  N   UNL     1      23.841  10.394  53.844  0.00  0.00    -0.263 NA
ATOM     40  C   UNL     1      24.154  10.732  55.169  0.00  0.00    +0.111 A 
ENDBRANCH   4   3
ENDBRANCH  10   9
BRANCH  12  13
ATOM     13  N   UNL     1      26.091  14.663  44.195  0.00  0.00    -0.281 N 
ATOM     14  C   UNL     1      24.766  14.557  43.807  0.00  0.00    +0.248 C 
ATOM     30  O   UNL     1      23.816  14.574  44.576  0.00  0.00    -0.270 OA
ATOM     31  H   UNL     1      26.786  14.440  43.483  0.00  0.00    +0.155 HD
BRANCH  14  15
ATOM     15  C   UNL     1      24.450  14.395  42.355  0.00  0.00    +0.037 A 
ATOM     16  C   UNL     1      24.533  15.527  41.428  0.00  0.00    +0.013 A 
ATOM     17  C   UNL     1      24.207  15.347  40.036  0.00  0.00    +0.005 A 
ATOM     18  C   UNL     1      23.795  14.028  39.561  0.00  0.00    -0.033 A 
ATOM     28  C   UNL     1      23.726  12.922  40.501  0.00  0.00    +0.005 A 
ATOM     29  C   UNL     1      24.044  13.094  41.867  0.00  0.00    +0.013 A 
BRANCH  18  19
ATOM     19  C   UNL     1      23.408  13.750  38.097  0.00  0.00    +0.119 C 
BRANCH  19  20
ATOM     20  N   UNL     1      21.983  13.977  37.711  0.00  0.00    -0.302 NA
ATOM     21  C   UNL     1      21.593  13.182  36.462  0.00  0.00    +0.066 C 
ATOM     22  C   UNL     1      20.093  13.414  36.085  0.00  0.00    -0.064 C 
ATOM     23  N   UNL     1      19.848  14.910  35.874  0.00  0.00    +0.379 N 
ATOM     24  C   UNL     1      18.453  15.125  35.464  0.00  0.00    -0.096 C 
ATOM     25  H   UNL     1      20.503  15.244  35.037  0.00  0.00    -0.082 HD
ATOM     26  C   UNL     1      20.237  15.708  37.111  0.00  0.00    -0.064 C 
ATOM     27  C   UNL     1      21.721  15.447  37.493  0.00  0.00    +0.066 C 
ENDBRANCH  19  20
ENDBRANCH  18  19
ENDBRANCH  14  15
ENDBRANCH  12  13
TORSDOF 6
ENDMDL
MODEL 5
REMARK VINA RESULT:      -8.4     15.906     20.470
REMARK  Name = C:\Users\Docking\Desktop\test protocol\1iep_ligandH.pdb
REMARK  8 active torsions:
REMARK  status: ('A' for Active; 'I' for Inactive)
REMARK    1  A    between atoms: _5  and  _11
REMARK    2  A    between atoms: _19  and  _21
REMARK    3  A    between atoms: _22  and  _66
REMARK    4  A    between atoms: _27  and  _30
REMARK    5  A    between atoms: _32  and  _33
REMARK    6  A    between atoms: _38  and  _43
REMARK    7  A    between atoms: _43  and  _46
REMARK    8  A    between atoms: _53  and  _55
REMARK                            x       y       z     vdW  Elec       q    Type
REMARK                         _______ _______ _______ _____ _____    ______ ____
ROOT
ATOM     10  C   UNL     1      25.541  16.695  48.382  0.00  0.00    +0.038 A 
ATOM     11  C   UNL     1      25.207  16.402  47.035  0.00  0.00    +0.047 A 
ATOM     12  C   UNL     1      26.017  15.493  46.239  0.00  0.00    +0.035 A 
ATOM     32  C   UNL     1      27.160  14.897  46.849  0.00  0.00    +0.024 A 
ATOM     33  C   UNL     1      27.514  15.184  48.216  0.00  0.00    +0.007 A 
ATOM     34  C   UNL     1      26.720  16.083  49.005  0.00  0.00    -0.029 A 
ATOM     35  C   UNL     1      27.151  16.359  50.464  0.00  0.00    +0.045 C 
ENDROOT
BRANCH  10   9
ATOM      4  C   UNL     1      24.454  21.075  50.016  0.00  0.00    +0.077 A 
ATOM      5  C   UNL     1      25.619  21.654  49.412  0.00  0.00    +0.048 A 
ATOM      6  C   UNL     1      26.477  20.789  48.695  0.00  0.00    +0.116 A 
ATOM      7  N   UNL     1      26.180  19.447  48.596  0.00  0.00    -0.223 NA
ATOM      8  C   UNL     1      25.049  18.921  49.192  0.00  0.00    +0.220 A 
ATOM      9  N   UNL     1      24.728  17.575  49.099  0.00  0.00    -0.283 N 
ATOM     36  H   UNL     1      23.888  17.224  49.559  0.00  0.00    +0.155 HD
ATOM     37  N   UNL     1      24.215  19.725  49.883  0.00  0.00    -0.214 NA
BRANCH   4   3
ATOM      1  C   UNL     1      22.093  23.937  51.254  0.00  0.00    +0.020 A 
ATOM      2  C   UNL     1      23.067  23.224  50.461  0.00  0.00    +0.013 A 
ATOM      3  C   UNL     1      23.451  21.860  50.803  0.00  0.00    +0.019 A 
ATOM     38  C   UNL     1      22.823  21.241  51.961  0.00  0.00    +0.120 A 
ATOM     39  N   UNL     1      21.889  21.953  52.706  0.00  0.00    -0.263 NA
ATOM     40  C   UNL     1      21.514  23.267  52.388  0.00  0.00    +0.111 A 
ENDBRANCH   4   3
ENDBRANCH  10   9
BRANCH  12  13
ATOM     13  N   UNL     1      25.732  15.164  44.865  0.00  0.00    -0.281 N 
ATOM     14  C   UNL     1      24.573  14.613  44.343  0.00  0.00    +0.248 C 
ATOM     30  O   UNL     1      23.679  14.120  45.016  0.00  0.00    -0.270 OA
ATOM     31  H   UNL     1      26.475  15.361  44.194  0.00  0.00    +0.155 HD
BRANCH  14  15
ATOM     15  C   UNL     1      24.385  14.596  42.861  0.00  0.00    +0.037 A 
ATOM     16  C   UNL     1      24.543  15.812  42.060  0.00  0.00    +0.013 A 
ATOM     17  C   UNL     1      24.339  15.771  40.634  0.00  0.00    +0.005 A 
ATOM     18  C   UNL     1      23.976  14.506  39.998  0.00  0.00    -0.033 A 
ATOM     28  C   UNL     1      23.831  13.313  40.816  0.00  0.00    +0.005 A 
ATOM     29  C   UNL     1      24.029  13.350  42.214  0.00  0.00    +0.013 A 
BRANCH  18  19
ATOM     19  C   UNL     1      23.719  14.374  38.486  0.00  0.00    +0.119 C 
BRANCH  19  20
ATOM     20  N   UNL     1      22.296  14.380  38.031  0.00  0.00    -0.302 NA
ATOM     21  C   UNL     1      22.078  13.476  36.814  0.00  0.00    +0.066 C 
ATOM     22  C   UNL     1      20.580  13.477  36.366  0.00  0.00    -0.064 C 
ATOM     23  N   UNL     1      20.143  14.911  36.061  0.00  0.00    +0.379 N 
ATOM     24  C   UNL     1      18.752  14.908  35.583  0.00  0.00    -0.096 C 
ATOM     25  H   UNL     1      20.785  15.291  35.232  0.00  0.00    -0.082 HD
ATOM     26  C   UNL     1      20.359  15.817  37.265  0.00  0.00    -0.064 C 
ATOM     27  C   UNL     1      21.844  15.786  37.720  0.00  0.00    +0.066 C 
ENDBRANCH  19  20
ENDBRANCH  18  19
ENDBRANCH  14  15
ENDBRANCH  12  13
TORSDOF 6
ENDMDL
