MODEL 1
REMARK VINA RESULT:      -8.3      0.000      0.000
REMARK  Name = C:\Users\Docking\Desktop\test protocol\1iep_ligandH.pdb
REMARK  8 active torsions:
REMARK  status: ('A' for Active; 'I' for Inactive)
REMARK    1  A    between atoms: _5  and  _11
REMARK    2  A    between atoms: _19  and  _21
REMARK    3  A    between atoms: _22  and  _66
REMARK    4  A    between atoms: _27  and  _30
REMARK    5  A    between atoms: _32  and  _33
REMARK    6  A    between atoms: _38  and  _43
REMARK    7  A    between atoms: _43  and  _46
REMARK    8  A    between atoms: _53  and  _55
REMARK                            x       y       z     vdW  Elec       q    Type
REMARK                         _______ _______ _______ _____ _____    ______ ____
ROOT
ATOM     10  C   UNL     1      25.191  16.174  48.180  0.00  0.00    +0.038 A 
ATOM     11  C   UNL     1      24.894  15.872  46.827  0.00  0.00    +0.047 A 
ATOM     12  C   UNL     1      25.644  14.860  46.100  0.00  0.00    +0.035 A 
ATOM     32  C   UNL     1      26.688  14.171  46.783  0.00  0.00    +0.024 A 
ATOM     33  C   UNL     1      27.004  14.466  48.159  0.00  0.00    +0.007 A 
ATOM     34  C   UNL     1      26.270  15.466  48.880  0.00  0.00    -0.029 A 
ATOM     35  C   UNL     1      26.656  15.745  50.351  0.00  0.00    +0.045 C 
ENDROOT
BRANCH  10   9
ATOM      4  C   UNL     1      24.551  20.662  49.757  0.00  0.00    +0.077 A 
ATOM      5  C   UNL     1      25.834  21.080  49.269  0.00  0.00    +0.048 A 
ATOM      6  C   UNL     1      26.631  20.107  48.624  0.00  0.00    +0.116 A 
ATOM      7  N   UNL     1      26.169  18.817  48.483  0.00  0.00    -0.223 NA
ATOM      8  C   UNL     1      24.928  18.447  48.967  0.00  0.00    +0.220 A 
ATOM      9  N   UNL     1      24.440  17.156  48.830  0.00  0.00    -0.283 N 
ATOM     36  H   UNL     1      23.522  16.921  49.207  0.00  0.00    +0.155 HD
ATOM     37  N   UNL     1      24.148  19.356  49.588  0.00  0.00    -0.214 NA
BRANCH   4   3
ATOM      1  C   UNL     1      22.409  23.785  50.738  0.00  0.00    +0.020 A 
ATOM      2  C   UNL     1      23.345  22.945  50.027  0.00  0.00    +0.013 A 
ATOM      3  C   UNL     1      23.593  21.575  50.457  0.00  0.00    +0.019 A 
ATOM     38  C   UNL     1      22.871  21.081  51.620  0.00  0.00    +0.120 A 
ATOM     39  N   UNL     1      21.976  21.913  52.286  0.00  0.00    -0.263 NA
ATOM     40  C   UNL     1      21.731  23.234  51.882  0.00  0.00    +0.111 A 
ENDBRANCH   4   3
ENDBRANCH  10   9
BRANCH  12  13
ATOM     13  N   UNL     1      25.393  14.516  44.722  0.00  0.00    -0.281 N 
ATOM     14  C   UNL     1      24.191  14.140  44.143  0.00  0.00    +0.248 C 
ATOM     30  O   UNL     1      23.188  13.835  44.770  0.00  0.00    -0.270 OA
ATOM     31  H   UNL     1      26.198  14.554  44.098  0.00  0.00    +0.155 HD
BRANCH  14  15
ATOM     15  C   UNL     1      24.095  14.082  42.653  0.00  0.00    +0.037 A 
ATOM     16  C   UNL     1      24.193  15.295  41.837  0.00  0.00    +0.013 A 
ATOM     17  C   UNL     1      24.080  15.212  40.402  0.00  0.00    +0.005 A 
ATOM     18  C   UNL     1      23.869  13.910  39.774  0.00  0.00    -0.033 A 
ATOM     28  C   UNL     1      23.780  12.723  40.607  0.00  0.00    +0.005 A 
ATOM     29  C   UNL     1      23.890  12.800  42.014  0.00  0.00    +0.013 A 
BRANCH  18  19
ATOM     19  C   UNL     1      23.715  13.731  38.252  0.00  0.00    +0.119 C 
BRANCH  19  20
ATOM     20  N   UNL     1      22.327  13.604  37.715  0.00  0.00    -0.302 NA
ATOM     21  C   UNL     1      22.284  12.779  36.426  0.00  0.00    +0.066 C 
ATOM     22  C   UNL     1      20.822  12.637  35.890  0.00  0.00    -0.064 C 
ATOM     23  N   UNL     1      20.228  14.029  35.663  0.00  0.00    +0.379 N 
ATOM     24  C   UNL     1      18.874  13.899  35.105  0.00  0.00    -0.096 C 
ATOM     25  H   UNL     1      20.859  14.546  34.904  0.00  0.00    -0.082 HD
ATOM     26  C   UNL     1      20.270  14.857  36.940  0.00  0.00    -0.064 C 
ATOM     27  C   UNL     1      21.723  14.966  37.480  0.00  0.00    +0.066 C 
ENDBRANCH  19  20
ENDBRANCH  18  19
ENDBRANCH  14  15
ENDBRANCH  12  13
TORSDOF 6
ENDMDL
MODEL 2
REMARK VINA RESULT:      -8.3      3.590      5.490
REMARK  Name = C:\Users\Docking\Desktop\test protocol\1iep_ligandH.pdb
REMARK  8 active torsions:
REMARK  status: ('A' for Active; 'I' for Inactive)
REMARK    1  A    between atoms: _5  and  _11
REMARK    2  A    between atoms: _19  and  _21
REMARK    3  A    between atoms: _22  and  _66
REMARK    4  A    between atoms: _27  and  _30
REMARK    5  A    between atoms: _32  and  _33
REMARK    6  A    between atoms: _38  and  _43
REMARK    7  A    between atoms: _43  and  _46
REMARK    8  A    between atoms: _53  and  _55
REMARK                            x       y       z     vdW  Elec       q    Type
REMARK                         _______ _______ _______ _____ _____    ______ ____
ROOT
ATOM     10  C   UNL     1      26.783  14.685  48.175  0.00  0.00    +0.038 A 
ATOM     11  C   UNL     1      26.242  14.265  46.933  0.00  0.00    +0.047 A 
ATOM     12  C   UNL     1      26.424  15.055  45.726  0.00  0.00    +0.035 A 
ATOM     32  C   UNL     1      27.166  16.269  45.819  0.00  0.00    +0.024 A 
ATOM     33  C   UNL     1      27.722  16.713  47.073  0.00  0.00    +0.007 A 
ATOM     34  C   UNL     1      27.543  15.938  48.268  0.00  0.00    -0.029 A 
ATOM     35  C   UNL     1      28.156  16.465  49.586  0.00  0.00    +0.045 C 
ENDROOT
BRANCH  10   9
ATOM      4  C   UNL     1      24.298  13.450  52.091  0.00  0.00    +0.077 A 
ATOM      5  C   UNL     1      23.343  14.501  51.889  0.00  0.00    +0.048 A 
ATOM      6  C   UNL     1      23.531  15.342  50.769  0.00  0.00    +0.116 A 
ATOM      7  N   UNL     1      24.598  15.138  49.921  0.00  0.00    -0.223 NA
ATOM      8  C   UNL     1      25.502  14.116  50.146  0.00  0.00    +0.220 A 
ATOM      9  N   UNL     1      26.578  13.887  49.302  0.00  0.00    -0.283 N 
ATOM     36  H   UNL     1      27.227  13.127  49.507  0.00  0.00    +0.155 HD
ATOM     37  N   UNL     1      25.345  13.300  51.209  0.00  0.00    -0.214 NA
BRANCH   4   3
ATOM      1  C   UNL     1      24.367  11.887  55.676  0.00  0.00    +0.020 A 
ATOM      2  C   UNL     1      24.441  12.866  54.616  0.00  0.00    +0.013 A 
ATOM      3  C   UNL     1      24.233  12.477  53.227  0.00  0.00    +0.019 A 
ATOM     38  C   UNL     1      23.948  11.079  52.942  0.00  0.00    +0.120 A 
ATOM     39  N   UNL     1      23.884  10.158  53.984  0.00  0.00    -0.263 NA
ATOM     40  C   UNL     1      24.085  10.521  55.324  0.00  0.00    +0.111 A 
ENDBRANCH   4   3
ENDBRANCH  10   9
BRANCH  12  13
ATOM     13  N   UNL     1      25.891  14.683  44.439  0.00  0.00    -0.281 N 
ATOM     14  C   UNL     1      24.606  14.877  43.961  0.00  0.00    +0.248 C 
ATOM     30  O   UNL     1      23.655  15.212  44.652  0.00  0.00    -0.270 OA
ATOM     31  H   UNL     1      26.540  14.219  43.804  0.00  0.00    +0.155 HD
BRANCH  14  15
ATOM     15  C   UNL     1      24.334  14.653  42.509  0.00  0.00    +0.037 A 
ATOM     16  C   UNL     1      23.922  13.340  42.006  0.00  0.00    +0.013 A 
ATOM     17  C   UNL     1      23.683  13.147  40.598  0.00  0.00    +0.005 A 
ATOM     18  C   UNL     1      23.854  14.272  39.682  0.00  0.00    -0.033 A 
ATOM     28  C   UNL     1      24.258  15.566  40.208  0.00  0.00    +0.005 A 
ATOM     29  C   UNL     1      24.494  15.758  41.587  0.00  0.00    +0.013 A 
BRANCH  18  19
ATOM     19  C   UNL     1      23.641  14.153  38.161  0.00  0.00    +0.119 C 
BRANCH  19  20
ATOM     20  N   UNL     1      22.271  13.788  37.689  0.00  0.00    -0.302 NA
ATOM     21  C   UNL     1      22.311  12.852  36.478  0.00  0.00    +0.066 C 
ATOM     22  C   UNL     1      20.871  12.463  36.012  0.00  0.00    -0.064 C 
ATOM     23  N   UNL     1      20.082  13.733  35.688  0.00  0.00    +0.379 N 
ATOM     24  C   UNL     1      18.746  13.369  35.194  0.00  0.00    -0.096 C 
ATOM     25  H   UNL     1      20.616  14.261  34.864  0.00  0.00    -0.082 HD
ATOM     26  C   UNL     1      20.040  14.671  36.886  0.00  0.00    -0.064 C 
ATOM     27  C   UNL     1      21.477  15.028  37.360  0.00  0.00    +0.066 C 
ENDBRANCH  19  20
ENDBRANCH  18  19
ENDBRANCH  14  15
ENDBRANCH  12  13
TORSDOF 6
ENDMDL
MODEL 3
REMARK VINA RESULT:      -8.2     17.199     20.958
REMARK  Name = C:\Users\Docking\Desktop\test protocol\1iep_ligandH.pdb
REMARK  8 active torsions:
REMARK  status: ('A' for Active; 'I' for Inactive)
REMARK    1  A    between atoms: _5  and  _11
REMARK    2  A    between atoms: _19  and  _21
REMARK    3  A    between atoms: _22  and  _66
REMARK    4  A    between atoms: _27  and  _30
REMARK    5  A    between atoms: _32  and  _33
REMARK    6  A    between atoms: _38  and  _43
REMARK    7  A    between atoms: _43  and  _46
REMARK    8  A    between atoms: _53  and  _55
REMARK                            x       y       z     vdW  Elec       q    Type
REMARK                         _______ _______ _______ _____ _____    ______ ____
ROOT
ATOM     10  C   UNL     1      38.516  27.464  55.886  0.00  0.00    +0.038 A 
ATOM     11  C   UNL     1      37.557  28.255  55.204  0.00  0.00    +0.047 A 
ATOM     12  C   UNL     1      36.326  28.674  55.856  0.00  0.00    +0.035 A 
ATOM     32  C   UNL     1      36.106  28.271  57.206  0.00  0.00    +0.024 A 
ATOM     33  C   UNL     1      37.071  27.467  57.914  0.00  0.00    +0.007 A 
ATOM     34  C   UNL     1      38.285  27.049  57.275  0.00  0.00    -0.029 A 
ATOM     35  C   UNL     1      39.281  26.181  58.080  0.00  0.00    +0.045 C 
ENDROOT
BRANCH  10   9
ATOM      4  C   UNL     1      40.997  24.485  53.056  0.00  0.00    +0.077 A 
ATOM      5  C   UNL     1      39.888  23.583  52.933  0.00  0.00    +0.048 A 
ATOM      6  C   UNL     1      38.700  23.919  53.620  0.00  0.00    +0.116 A 
ATOM      7  N   UNL     1      38.636  25.073  54.370  0.00  0.00    -0.223 NA
ATOM      8  C   UNL     1      39.725  25.920  54.469  0.00  0.00    +0.220 A 
ATOM      9  N   UNL     1      39.681  27.090  55.211  0.00  0.00    -0.283 N 
ATOM     36  H   UNL     1      40.507  27.685  55.265  0.00  0.00    +0.155 HD
ATOM     37  N   UNL     1      40.871  25.621  53.824  0.00  0.00    -0.214 NA
BRANCH   4   3
ATOM      1  C   UNL     1      44.481  23.011  52.060  0.00  0.00    +0.020 A 
ATOM      2  C   UNL     1      43.215  23.175  52.737  0.00  0.00    +0.013 A 
ATOM      3  C   UNL     1      42.319  24.270  52.387  0.00  0.00    +0.019 A 
ATOM     38  C   UNL     1      42.737  25.189  51.339  0.00  0.00    +0.120 A 
ATOM     39  N   UNL     1      43.963  25.007  50.706  0.00  0.00    -0.263 NA
ATOM     40  C   UNL     1      44.834  23.958  51.035  0.00  0.00    +0.111 A 
ENDBRANCH   4   3
ENDBRANCH  10   9
BRANCH  12  13
ATOM     13  N   UNL     1      35.311  29.470  55.212  0.00  0.00    -0.281 N 
ATOM     14  C   UNL     1      34.625  29.190  54.042  0.00  0.00    +0.248 C 
ATOM     30  O   UNL     1      34.933  28.309  53.253  0.00  0.00    -0.270 OA
ATOM     31  H   UNL     1      35.070  30.347  55.674  0.00  0.00    +0.155 HD
BRANCH  14  15
ATOM     15  C   UNL     1      33.432  30.018  53.688  0.00  0.00    +0.037 A 
ATOM     16  C   UNL     1      33.251  30.553  52.336  0.00  0.00    +0.013 A 
ATOM     17  C   UNL     1      32.100  31.363  52.027  0.00  0.00    +0.005 A 
ATOM     18  C   UNL     1      31.119  31.642  53.073  0.00  0.00    -0.033 A 
ATOM     28  C   UNL     1      31.320  31.095  54.404  0.00  0.00    +0.005 A 
ATOM     29  C   UNL     1      32.448  30.301  54.712  0.00  0.00    +0.013 A 
BRANCH  18  19
ATOM     19  C   UNL     1      29.871  32.515  52.838  0.00  0.00    +0.119 C 
BRANCH  19  20
ATOM     20  N   UNL     1      28.690  31.861  52.201  0.00  0.00    -0.302 NA
ATOM     21  C   UNL     1      28.013  32.772  51.173  0.00  0.00    +0.066 C 
ATOM     22  C   UNL     1      26.793  32.064  50.500  0.00  0.00    -0.064 C 
ATOM     23  N   UNL     1      25.798  31.633  51.579  0.00  0.00    +0.379 N 
ATOM     24  C   UNL     1      24.623  31.018  50.945  0.00  0.00    -0.096 C 
ATOM     25  H   UNL     1      25.455  32.551  52.109  0.00  0.00    -0.082 HD
ATOM     26  C   UNL     1      26.463  30.728  52.606  0.00  0.00    -0.064 C 
ATOM     27  C   UNL     1      27.692  31.430  53.248  0.00  0.00    +0.066 C 
ENDBRANCH  19  20
ENDBRANCH  18  19
ENDBRANCH  14  15
ENDBRANCH  12  13
TORSDOF 6
ENDMDL
MODEL 4
REMARK VINA RESULT:      -8.1     20.734     24.801
REMARK  Name = C:\Users\Docking\Desktop\test protocol\1iep_ligandH.pdb
REMARK  8 active torsions:
REMARK  status: ('A' for Active; 'I' for Inactive)
REMARK    1  A    between atoms: _5  and  _11
REMARK    2  A    between atoms: _19  and  _21
REMARK    3  A    between atoms: _22  and  _66
REMARK    4  A    between atoms: _27  and  _30
REMARK    5  A    between atoms: _32  and  _33
REMARK    6  A    between atoms: _38  and  _43
REMARK    7  A    between atoms: _43  and  _46
REMARK    8  A    between atoms: _53  and  _55
REMARK                            x       y       z     vdW  Elec       q    Type
REMARK                         _______ _______ _______ _____ _____    ______ ____
ROOT
ATOM     10  C   UNL     1      39.556   0.868  41.605  0.00  0.00    +0.038 A 
ATOM     11  C   UNL     1      40.581   1.555  40.905  0.00  0.00    +0.047 A 
ATOM     12  C   UNL     1      41.693   2.171  41.613  0.00  0.00    +0.035 A 
ATOM     32  C   UNL     1      41.730   2.066  43.034  0.00  0.00    +0.024 A 
ATOM     33  C   UNL     1      40.697   1.373  43.761  0.00  0.00    +0.007 A 
ATOM     34  C   UNL     1      39.597   0.765  43.069  0.00  0.00    -0.029 A 
ATOM     35  C   UNL     1      38.513   0.039  43.901  0.00  0.00    +0.045 C 
ENDROOT
BRANCH  10   9
ATOM      4  C   UNL     1      35.542   1.189  38.993  0.00  0.00    +0.077 A 
ATOM      5  C   UNL     1      35.507   2.617  39.116  0.00  0.00    +0.048 A 
ATOM      6  C   UNL     1      36.536   3.231  39.865  0.00  0.00    +0.116 A 
ATOM      7  N   UNL     1      37.522   2.462  40.444  0.00  0.00    -0.223 NA
ATOM      8  C   UNL     1      37.526   1.086  40.308  0.00  0.00    +0.220 A 
ATOM      9  N   UNL     1      38.513   0.294  40.875  0.00  0.00    -0.283 N 
ATOM     36  H   UNL     1      38.476  -0.718  40.758  0.00  0.00    +0.155 HD
ATOM     37  N   UNL     1      36.554   0.476  39.599  0.00  0.00    -0.214 NA
BRANCH   4   3
ATOM      1  C   UNL     1      32.538   0.201  36.691  0.00  0.00    +0.020 A 
ATOM      2  C   UNL     1      33.495   1.013  37.408  0.00  0.00    +0.013 A 
ATOM      3  C   UNL     1      34.527   0.395  38.231  0.00  0.00    +0.019 A 
ATOM     38  C   UNL     1      34.565  -1.057  38.307  0.00  0.00    +0.120 A 
ATOM     39  N   UNL     1      33.630  -1.813  37.607  0.00  0.00    -0.263 NA
ATOM     40  C   UNL     1      32.631  -1.230  36.813  0.00  0.00    +0.111 A 
ENDBRANCH   4   3
ENDBRANCH  10   9
BRANCH  12  13
ATOM     13  N   UNL     1      42.757   2.888  40.957  0.00  0.00    -0.281 N 
ATOM     14  C   UNL     1      42.878   4.257  40.776  0.00  0.00    +0.248 C 
ATOM     30  O   UNL     1      41.977   5.061  40.966  0.00  0.00    -0.270 OA
ATOM     31  H   UNL     1      43.514   2.318  40.579  0.00  0.00    +0.155 HD
BRANCH  14  15
ATOM     15  C   UNL     1      44.183   4.811  40.303  0.00  0.00    +0.037 A 
ATOM     16  C   UNL     1      44.563   6.199  40.576  0.00  0.00    +0.013 A 
ATOM     17  C   UNL     1      45.820   6.713  40.093  0.00  0.00    +0.005 A 
ATOM     18  C   UNL     1      46.708   5.836  39.334  0.00  0.00    -0.033 A 
ATOM     28  C   UNL     1      46.308   4.462  39.082  0.00  0.00    +0.005 A 
ATOM     29  C   UNL     1      45.076   3.955  39.552  0.00  0.00    +0.013 A 
BRANCH  18  19
ATOM     19  C   UNL     1      48.059   6.306  38.762  0.00  0.00    +0.119 C 
BRANCH  19  20
ATOM     20  N   UNL     1      48.178   6.397  37.276  0.00  0.00    -0.302 NA
ATOM     21  C   UNL     1      49.635   6.315  36.811  0.00  0.00    +0.066 C 
ATOM     22  C   UNL     1      49.740   6.389  35.253  0.00  0.00    -0.064 C 
ATOM     23  N   UNL     1      49.086   7.681  34.761  0.00  0.00    +0.379 N 
ATOM     24  C   UNL     1      49.234   7.781  33.302  0.00  0.00    -0.096 C 
ATOM     25  H   UNL     1      49.639   8.535  35.217  0.00  0.00    -0.082 HD
ATOM     26  C   UNL     1      47.638   7.771  35.221  0.00  0.00    -0.064 C 
ATOM     27  C   UNL     1      47.542   7.668  36.769  0.00  0.00    +0.066 C 
ENDBRANCH  19  20
ENDBRANCH  18  19
ENDBRANCH  14  15
ENDBRANCH  12  13
TORSDOF 6
ENDMDL
MODEL 5
REMARK VINA RESULT:      -8.0     20.584     22.748
REMARK  Name = C:\Users\Docking\Desktop\test protocol\1iep_ligandH.pdb
REMARK  8 active torsions:
REMARK  status: ('A' for Active; 'I' for Inactive)
REMARK    1  A    between atoms: _5  and  _11
REMARK    2  A    between atoms: _19  and  _21
REMARK    3  A    between atoms: _22  and  _66
REMARK    4  A    between atoms: _27  and  _30
REMARK    5  A    between atoms: _32  and  _33
REMARK    6  A    between atoms: _38  and  _43
REMARK    7  A    between atoms: _43  and  _46
REMARK    8  A    between atoms: _53  and  _55
REMARK                            x       y       z     vdW  Elec       q    Type
REMARK                         _______ _______ _______ _____ _____    ______ ____
ROOT
ATOM     10  C   UNL     1      36.674  27.188  55.845  0.00  0.00    +0.038 A 
ATOM     11  C   UNL     1      37.850  26.502  55.449  0.00  0.00    +0.047 A 
ATOM     12  C   UNL     1      38.663  26.980  54.341  0.00  0.00    +0.035 A 
ATOM     32  C   UNL     1      38.249  28.162  53.661  0.00  0.00    +0.024 A 
ATOM     33  C   UNL     1      37.056  28.871  54.049  0.00  0.00    +0.007 A 
ATOM     34  C   UNL     1      36.249  28.403  55.140  0.00  0.00    -0.029 A 
ATOM     35  C   UNL     1      34.975  29.200  55.509  0.00  0.00    +0.045 C 
ENDROOT
BRANCH  10   9
ATOM      4  C   UNL     1      35.566  27.001  60.512  0.00  0.00    +0.077 A 
ATOM      5  C   UNL     1      36.571  27.968  60.849  0.00  0.00    +0.048 A 
ATOM      6  C   UNL     1      37.356  28.484  59.794  0.00  0.00    +0.116 A 
ATOM      7  N   UNL     1      37.143  28.058  58.501  0.00  0.00    -0.223 NA
ATOM      8  C   UNL     1      36.167  27.122  58.210  0.00  0.00    +0.220 A 
ATOM      9  N   UNL     1      35.931  26.685  56.916  0.00  0.00    -0.283 N 
ATOM     36  H   UNL     1      35.207  25.988  56.743  0.00  0.00    +0.155 HD
ATOM     37  N   UNL     1      35.405  26.613  59.200  0.00  0.00    -0.214 NA
BRANCH   4   3
ATOM      1  C   UNL     1      32.468  25.309  62.196  0.00  0.00    +0.020 A 
ATOM      2  C   UNL     1      33.307  25.917  61.189  0.00  0.00    +0.013 A 
ATOM      3  C   UNL     1      34.655  26.366  61.516  0.00  0.00    +0.019 A 
ATOM     38  C   UNL     1      35.126  26.185  62.880  0.00  0.00    +0.120 A 
ATOM     39  N   UNL     1      34.295  25.598  63.829  0.00  0.00    -0.263 NA
ATOM     40  C   UNL     1      32.996  25.163  63.527  0.00  0.00    +0.111 A 
ENDBRANCH   4   3
ENDBRANCH  10   9
BRANCH  12  13
ATOM     13  N   UNL     1      39.863  26.321  53.889  0.00  0.00    -0.281 N 
ATOM     14  C   UNL     1      39.969  25.250  53.016  0.00  0.00    +0.248 C 
ATOM     30  O   UNL     1      39.030  24.556  52.656  0.00  0.00    -0.270 OA
ATOM     31  H   UNL     1      40.741  26.688  54.256  0.00  0.00    +0.155 HD
BRANCH  14  15
ATOM     15  C   UNL     1      41.315  24.889  52.476  0.00  0.00    +0.037 A 
ATOM     16  C   UNL     1      42.074  25.823  51.640  0.00  0.00    +0.013 A 
ATOM     17  C   UNL     1      43.363  25.443  51.118  0.00  0.00    +0.005 A 
ATOM     18  C   UNL     1      43.902  24.122  51.433  0.00  0.00    -0.033 A 
ATOM     28  C   UNL     1      43.131  23.218  52.270  0.00  0.00    +0.005 A 
ATOM     29  C   UNL     1      41.867  23.587  52.782  0.00  0.00    +0.013 A 
BRANCH  18  19
ATOM     19  C   UNL     1      45.260  23.625  50.903  0.00  0.00    +0.119 C 
BRANCH  19  20
ATOM     20  N   UNL     1      46.274  23.197  51.912  0.00  0.00    -0.302 NA
ATOM     21  C   UNL     1      46.642  24.332  52.873  0.00  0.00    +0.066 C 
ATOM     22  C   UNL     1      47.686  23.861  53.936  0.00  0.00    -0.064 C 
ATOM     23  N   UNL     1      48.931  23.329  53.223  0.00  0.00    +0.379 N 
ATOM     24  C   UNL     1      49.939  22.939  54.221  0.00  0.00    -0.096 C 
ATOM     25  H   UNL     1      49.358  24.164  52.620  0.00  0.00    -0.082 HD
ATOM     26  C   UNL     1      48.574  22.203  52.264  0.00  0.00    -0.064 C 
ATOM     27  C   UNL     1      47.513  22.673  51.230  0.00  0.00    +0.066 C 
ENDBRANCH  19  20
ENDBRANCH  18  19
ENDBRANCH  14  15
ENDBRANCH  12  13
TORSDOF 6
ENDMDL
