MODEL 1
REMARK VINA RESULT:      -8.6      0.000      0.000
REMARK  Name = C:\Users\Docking\Desktop\test protocol\1iep_ligandH.pdb
REMARK  8 active torsions:
REMARK  status: ('A' for Active; 'I' for Inactive)
REMARK    1  A    between atoms: _5  and  _11
REMARK    2  A    between atoms: _19  and  _21
REMARK    3  A    between atoms: _22  and  _66
REMARK    4  A    between atoms: _27  and  _30
REMARK    5  A    between atoms: _32  and  _33
REMARK    6  A    between atoms: _38  and  _43
REMARK    7  A    between atoms: _43  and  _46
REMARK    8  A    between atoms: _53  and  _55
REMARK                            x       y       z     vdW  Elec       q    Type
REMARK                         _______ _______ _______ _____ _____    ______ ____
ROOT
ATOM     10  C   UNL     1      58.013   8.605-131.016  0.00  0.00    +0.038 A 
ATOM     11  C   UNL     1      58.612   8.890-132.270  0.00  0.00    +0.047 A 
ATOM     12  C   UNL     1      57.928   8.588-133.517  0.00  0.00    +0.035 A 
ATOM     32  C   UNL     1      56.632   7.998-133.451  0.00  0.00    +0.024 A 
ATOM     33  C   UNL     1      56.008   7.700-132.186  0.00  0.00    +0.007 A 
ATOM     34  C   UNL     1      56.680   7.994-130.952  0.00  0.00    -0.029 A 
ATOM     35  C   UNL     1      55.966   7.648-129.624  0.00  0.00    +0.045 C 
ENDROOT
BRANCH  10   9
ATOM      4  C   UNL     1      60.966   7.442-127.416  0.00  0.00    +0.077 A 
ATOM      5  C   UNL     1      61.101   6.093-127.884  0.00  0.00    +0.048 A 
ATOM      6  C   UNL     1      60.388   5.736-129.051  0.00  0.00    +0.116 A 
ATOM      7  N   UNL     1      59.602   6.668-129.693  0.00  0.00    -0.223 NA
ATOM      8  C   UNL     1      59.493   7.961-129.215  0.00  0.00    +0.220 A 
ATOM      9  N   UNL     1      58.715   8.917-129.850  0.00  0.00    -0.283 N 
ATOM     36  H   UNL     1      58.654   9.857-129.461  0.00  0.00    +0.155 HD
ATOM     37  N   UNL     1      60.163   8.326-128.102  0.00  0.00    -0.214 NA
BRANCH   4   3
ATOM      1  C   UNL     1      62.748   9.821-124.872  0.00  0.00    +0.020 A 
ATOM      2  C   UNL     1      62.082   9.360-126.069  0.00  0.00    +0.013 A 
ATOM      3  C   UNL     1      61.660   7.972-126.199  0.00  0.00    +0.019 A 
ATOM     38  C   UNL     1      61.927   7.067-125.091  0.00  0.00    +0.120 A 
ATOM     39  N   UNL     1      62.571   7.539-123.951  0.00  0.00    -0.263 NA
ATOM     40  C   UNL     1      62.984   8.873-123.816  0.00  0.00    +0.111 A 
ENDBRANCH   4   3
ENDBRANCH  10   9
BRANCH  12  13
ATOM     13  N   UNL     1      58.490   8.848-134.819  0.00  0.00    -0.281 N 
ATOM     14  C   UNL     1      59.012   7.933-135.719  0.00  0.00    +0.248 C 
ATOM     30  O   UNL     1      59.272   6.770-135.450  0.00  0.00    -0.270 OA
ATOM     31  H   UNL     1      58.504   9.824-135.114  0.00  0.00    +0.155 HD
BRANCH  14  15
ATOM     15  C   UNL     1      59.302   8.379-137.116  0.00  0.00    +0.037 A 
ATOM     16  C   UNL     1      60.102   7.556-138.026  0.00  0.00    +0.013 A 
ATOM     17  C   UNL     1      60.381   8.017-139.363  0.00  0.00    +0.005 A 
ATOM     18  C   UNL     1      59.857   9.310-139.798  0.00  0.00    -0.033 A 
ATOM     28  C   UNL     1      59.061  10.104-138.877  0.00  0.00    +0.005 A 
ATOM     29  C   UNL     1      58.787   9.655-137.565  0.00  0.00    +0.013 A 
BRANCH  18  19
ATOM     19  C   UNL     1      60.122   9.891-141.200  0.00  0.00    +0.119 C 
BRANCH  19  20
ATOM     20  N   UNL     1      61.281  10.821-141.346  0.00  0.00    -0.302 NA
ATOM     21  C   UNL     1      60.833  12.271-141.546  0.00  0.00    +0.066 C 
ATOM     22  C   UNL     1      62.058  13.233-141.675  0.00  0.00    -0.064 C 
ATOM     23  N   UNL     1      62.943  12.775-142.835  0.00  0.00    +0.379 N 
ATOM     24  C   UNL     1      64.065  13.712-142.995  0.00  0.00    -0.096 C 
ATOM     25  H   UNL     1      62.331  12.819-143.765  0.00  0.00    -0.082 HD
ATOM     26  C   UNL     1      63.392  11.333-142.645  0.00  0.00    -0.064 C 
ATOM     27  C   UNL     1      62.167  10.389-142.489  0.00  0.00    +0.066 C 
ENDBRANCH  19  20
ENDBRANCH  18  19
ENDBRANCH  14  15
ENDBRANCH  12  13
TORSDOF 6
ENDMDL
MODEL 2
REMARK VINA RESULT:      -8.3      2.115     12.780
REMARK  Name = C:\Users\Docking\Desktop\test protocol\1iep_ligandH.pdb
REMARK  8 active torsions:
REMARK  status: ('A' for Active; 'I' for Inactive)
REMARK    1  A    between atoms: _5  and  _11
REMARK    2  A    between atoms: _19  and  _21
REMARK    3  A    between atoms: _22  and  _66
REMARK    4  A    between atoms: _27  and  _30
REMARK    5  A    between atoms: _32  and  _33
REMARK    6  A    between atoms: _38  and  _43
REMARK    7  A    between atoms: _43  and  _46
REMARK    8  A    between atoms: _53  and  _55
REMARK                            x       y       z     vdW  Elec       q    Type
REMARK                         _______ _______ _______ _____ _____    ______ ____
ROOT
ATOM     10  C   UNL     1      58.420   9.411-139.307  0.00  0.00    +0.038 A 
ATOM     11  C   UNL     1      58.630   9.205-137.919  0.00  0.00    +0.047 A 
ATOM     12  C   UNL     1      57.513   8.973-137.016  0.00  0.00    +0.035 A 
ATOM     32  C   UNL     1      56.196   8.954-137.561  0.00  0.00    +0.024 A 
ATOM     33  C   UNL     1      55.965   9.162-138.969  0.00  0.00    +0.007 A 
ATOM     34  C   UNL     1      57.063   9.394-139.864  0.00  0.00    -0.029 A 
ATOM     35  C   UNL     1      56.756   9.618-141.363  0.00  0.00    +0.045 C 
ENDROOT
BRANCH  10   9
ATOM      4  C   UNL     1      61.608  12.300-141.435  0.00  0.00    +0.077 A 
ATOM      5  C   UNL     1      60.997  13.476-140.886  0.00  0.00    +0.048 A 
ATOM      6  C   UNL     1      59.860  13.295-140.066  0.00  0.00    +0.116 A 
ATOM      7  N   UNL     1      59.379  12.027-139.821  0.00  0.00    -0.223 NA
ATOM      8  C   UNL     1      59.991  10.914-140.368  0.00  0.00    +0.220 A 
ATOM      9  N   UNL     1      59.529   9.629-140.128  0.00  0.00    -0.283 N 
ATOM     36  H   UNL     1      60.004   8.834-140.556  0.00  0.00    +0.155 HD
ATOM     37  N   UNL     1      61.077  11.061-141.155  0.00  0.00    -0.214 NA
BRANCH   4   3
ATOM      1  C   UNL     1      64.632  13.537-143.586  0.00  0.00    +0.020 A 
ATOM      2  C   UNL     1      63.465  13.565-142.733  0.00  0.00    +0.013 A 
ATOM      3  C   UNL     1      62.817  12.328-142.317  0.00  0.00    +0.019 A 
ATOM     38  C   UNL     1      63.379  11.069-142.782  0.00  0.00    +0.120 A 
ATOM     39  N   UNL     1      64.503  11.073-143.603  0.00  0.00    -0.263 NA
ATOM     40  C   UNL     1      65.134  12.258-144.013  0.00  0.00    +0.111 A 
ENDBRANCH   4   3
ENDBRANCH  10   9
BRANCH  12  13
ATOM     13  N   UNL     1      57.664   8.765-135.597  0.00  0.00    -0.281 N 
ATOM     14  C   UNL     1      56.933   9.341-134.570  0.00  0.00    +0.248 C 
ATOM     30  O   UNL     1      56.175  10.289-134.709  0.00  0.00    -0.270 OA
ATOM     31  H   UNL     1      58.398   8.116-135.315  0.00  0.00    +0.155 HD
BRANCH  14  15
ATOM     15  C   UNL     1      57.076   8.792-133.187  0.00  0.00    +0.037 A 
ATOM     16  C   UNL     1      56.018   7.982-132.578  0.00  0.00    +0.013 A 
ATOM     17  C   UNL     1      56.173   7.480-131.236  0.00  0.00    +0.005 A 
ATOM     18  C   UNL     1      57.394   7.785-130.494  0.00  0.00    -0.033 A 
ATOM     28  C   UNL     1      58.430   8.586-131.125  0.00  0.00    +0.005 A 
ATOM     29  C   UNL     1      58.281   9.082-132.440  0.00  0.00    +0.013 A 
BRANCH  18  19
ATOM     19  C   UNL     1      57.637   7.308-129.050  0.00  0.00    +0.119 C 
BRANCH  19  20
ATOM     20  N   UNL     1      58.901   6.559-128.780  0.00  0.00    -0.302 NA
ATOM     21  C   UNL     1      58.632   5.175-128.184  0.00  0.00    +0.066 C 
ATOM     22  C   UNL     1      59.964   4.397-127.929  0.00  0.00    -0.064 C 
ATOM     23  N   UNL     1      60.863   5.219-127.005  0.00  0.00    +0.379 N 
ATOM     24  C   UNL     1      62.091   4.465-126.716  0.00  0.00    -0.096 C 
ATOM     25  H   UNL     1      60.319   5.361-126.042  0.00  0.00    -0.082 HD
ATOM     26  C   UNL     1      61.133   6.599-127.589  0.00  0.00    -0.064 C 
ATOM     27  C   UNL     1      59.802   7.352-127.866  0.00  0.00    +0.066 C 
ENDBRANCH  19  20
ENDBRANCH  18  19
ENDBRANCH  14  15
ENDBRANCH  12  13
TORSDOF 6
ENDMDL
MODEL 3
REMARK VINA RESULT:      -8.3     19.286     23.158
REMARK  Name = C:\Users\Docking\Desktop\test protocol\1iep_ligandH.pdb
REMARK  8 active torsions:
REMARK  status: ('A' for Active; 'I' for Inactive)
REMARK    1  A    between atoms: _5  and  _11
REMARK    2  A    between atoms: _19  and  _21
REMARK    3  A    between atoms: _22  and  _66
REMARK    4  A    between atoms: _27  and  _30
REMARK    5  A    between atoms: _32  and  _33
REMARK    6  A    between atoms: _38  and  _43
REMARK    7  A    between atoms: _43  and  _46
REMARK    8  A    between atoms: _53  and  _55
REMARK                            x       y       z     vdW  Elec       q    Type
REMARK                         _______ _______ _______ _____ _____    ______ ____
ROOT
ATOM     10  C   UNL     1      49.464  24.561-125.936  0.00  0.00    +0.038 A 
ATOM     11  C   UNL     1      48.143  24.207-126.313  0.00  0.00    +0.047 A 
ATOM     12  C   UNL     1      47.172  23.762-125.325  0.00  0.00    +0.035 A 
ATOM     32  C   UNL     1      47.580  23.691-123.961  0.00  0.00    +0.024 A 
ATOM     33  C   UNL     1      48.918  24.046-123.561  0.00  0.00    +0.007 A 
ATOM     34  C   UNL     1      49.881  24.483-124.530  0.00  0.00    -0.029 A 
ATOM     35  C   UNL     1      51.304  24.845-124.045  0.00  0.00    +0.045 C 
ENDROOT
BRANCH  10   9
ATOM      4  C   UNL     1      52.093  23.780-129.874  0.00  0.00    +0.077 A 
ATOM      5  C   UNL     1      51.677  22.409-129.952  0.00  0.00    +0.048 A 
ATOM      6  C   UNL     1      50.791  21.942-128.955  0.00  0.00    +0.116 A 
ATOM      7  N   UNL     1      50.360  22.792-127.959  0.00  0.00    -0.223 NA
ATOM      8  C   UNL     1      50.782  24.108-127.913  0.00  0.00    +0.220 A 
ATOM      9  N   UNL     1      50.355  24.982-126.925  0.00  0.00    -0.283 N 
ATOM     36  H   UNL     1      50.695  25.943-126.921  0.00  0.00    +0.155 HD
ATOM     37  N   UNL     1      51.629  24.577-128.852  0.00  0.00    -0.214 NA
BRANCH   4   3
ATOM      1  C   UNL     1      54.053  24.637-133.149  0.00  0.00    +0.020 A 
ATOM      2  C   UNL     1      53.139  23.983-132.241  0.00  0.00    +0.013 A 
ATOM      3  C   UNL     1      53.023  24.421-130.856  0.00  0.00    +0.019 A 
ATOM     38  C   UNL     1      53.853  25.534-130.418  0.00  0.00    +0.120 A 
ATOM     39  N   UNL     1      54.725  26.143-131.315  0.00  0.00    -0.263 NA
ATOM     40  C   UNL     1      54.846  25.729-132.649  0.00  0.00    +0.111 A 
ENDBRANCH   4   3
ENDBRANCH  10   9
BRANCH  12  13
ATOM     13  N   UNL     1      45.820  23.382-125.650  0.00  0.00    -0.281 N 
ATOM     14  C   UNL     1      44.976  22.543-124.940  0.00  0.00    +0.248 C 
ATOM     30  O   UNL     1      45.334  21.819-124.023  0.00  0.00    -0.270 OA
ATOM     31  H   UNL     1      45.437  23.780-126.508  0.00  0.00    +0.155 HD
BRANCH  14  15
ATOM     15  C   UNL     1      43.530  22.490-125.311  0.00  0.00    +0.037 A 
ATOM     16  C   UNL     1      43.046  23.068-126.568  0.00  0.00    +0.013 A 
ATOM     17  C   UNL     1      41.643  23.019-126.894  0.00  0.00    +0.005 A 
ATOM     18  C   UNL     1      40.713  22.387-125.961  0.00  0.00    -0.033 A 
ATOM     28  C   UNL     1      41.220  21.817-124.724  0.00  0.00    +0.005 A 
ATOM     29  C   UNL     1      42.595  21.865-124.400  0.00  0.00    +0.013 A 
BRANCH  18  19
ATOM     19  C   UNL     1      39.196  22.308-126.217  0.00  0.00    +0.119 C 
BRANCH  19  20
ATOM     20  N   UNL     1      38.650  21.001-126.690  0.00  0.00    -0.302 NA
ATOM     21  C   UNL     1      38.007  20.201-125.553  0.00  0.00    +0.066 C 
ATOM     22  C   UNL     1      37.421  18.847-126.070  0.00  0.00    -0.064 C 
ATOM     23  N   UNL     1      38.531  18.037-126.740  0.00  0.00    +0.379 N 
ATOM     24  C   UNL     1      37.997  16.738-127.176  0.00  0.00    -0.096 C 
ATOM     25  H   UNL     1      39.316  17.840-125.973  0.00  0.00    -0.082 HD
ATOM     26  C   UNL     1      39.178  18.825-127.870  0.00  0.00    -0.064 C 
ATOM     27  C   UNL     1      39.731  20.182-127.352  0.00  0.00    +0.066 C 
ENDBRANCH  19  20
ENDBRANCH  18  19
ENDBRANCH  14  15
ENDBRANCH  12  13
TORSDOF 6
ENDMDL
MODEL 4
REMARK VINA RESULT:      -8.3      3.085      4.226
REMARK  Name = C:\Users\Docking\Desktop\test protocol\1iep_ligandH.pdb
REMARK  8 active torsions:
REMARK  status: ('A' for Active; 'I' for Inactive)
REMARK    1  A    between atoms: _5  and  _11
REMARK    2  A    between atoms: _19  and  _21
REMARK    3  A    between atoms: _22  and  _66
REMARK    4  A    between atoms: _27  and  _30
REMARK    5  A    between atoms: _32  and  _33
REMARK    6  A    between atoms: _38  and  _43
REMARK    7  A    between atoms: _43  and  _46
REMARK    8  A    between atoms: _53  and  _55
REMARK                            x       y       z     vdW  Elec       q    Type
REMARK                         _______ _______ _______ _____ _____    ______ ____
ROOT
ATOM     10  C   UNL     1      59.116   7.126-128.608  0.00  0.00    +0.038 A 
ATOM     11  C   UNL     1      58.704   7.894-129.727  0.00  0.00    +0.047 A 
ATOM     12  C   UNL     1      57.999   7.281-130.842  0.00  0.00    +0.035 A 
ATOM     32  C   UNL     1      57.728   5.882-130.783  0.00  0.00    +0.024 A 
ATOM     33  C   UNL     1      58.142   5.087-129.654  0.00  0.00    +0.007 A 
ATOM     34  C   UNL     1      58.839   5.685-128.552  0.00  0.00    -0.029 A 
ATOM     35  C   UNL     1      59.264   4.782-127.371  0.00  0.00    +0.045 C 
ENDROOT
BRANCH  10   9
ATOM      4  C   UNL     1      63.129   8.298-126.249  0.00  0.00    +0.077 A 
ATOM      5  C   UNL     1      63.951   7.549-127.155  0.00  0.00    +0.048 A 
ATOM      6  C   UNL     1      63.301   6.871-128.211  0.00  0.00    +0.116 A 
ATOM      7  N   UNL     1      61.931   6.943-128.341  0.00  0.00    -0.223 NA
ATOM      8  C   UNL     1      61.168   7.673-127.449  0.00  0.00    +0.220 A 
ATOM      9  N   UNL     1      59.790   7.766-127.565  0.00  0.00    -0.283 N 
ATOM     36  H   UNL     1      59.261   8.308-126.882  0.00  0.00    +0.155 HD
ATOM     37  N   UNL     1      61.764   8.328-126.431  0.00  0.00    -0.214 NA
BRANCH   4   3
ATOM      1  C   UNL     1      63.874  11.166-123.696  0.00  0.00    +0.020 A 
ATOM      2  C   UNL     1      63.327  10.465-124.834  0.00  0.00    +0.013 A 
ATOM      3  C   UNL     1      63.668   9.071-125.085  0.00  0.00    +0.019 A 
ATOM     38  C   UNL     1      64.572   8.409-124.158  0.00  0.00    +0.120 A 
ATOM     39  N   UNL     1      65.085   9.109-123.070  0.00  0.00    -0.263 NA
ATOM     40  C   UNL     1      64.765  10.452-122.820  0.00  0.00    +0.111 A 
ENDBRANCH   4   3
ENDBRANCH  10   9
BRANCH  12  13
ATOM     13  N   UNL     1      57.563   8.008-132.008  0.00  0.00    -0.281 N 
ATOM     14  C   UNL     1      58.310   8.361-133.120  0.00  0.00    +0.248 C 
ATOM     30  O   UNL     1      59.528   8.289-133.186  0.00  0.00    -0.270 OA
ATOM     31  H   UNL     1      56.585   8.298-132.014  0.00  0.00    +0.155 HD
BRANCH  14  15
ATOM     15  C   UNL     1      57.602   8.882-134.329  0.00  0.00    +0.037 A 
ATOM     16  C   UNL     1      56.290   9.526-134.223  0.00  0.00    +0.013 A 
ATOM     17  C   UNL     1      55.622  10.005-135.407  0.00  0.00    +0.005 A 
ATOM     18  C   UNL     1      56.266   9.843-136.708  0.00  0.00    -0.033 A 
ATOM     28  C   UNL     1      57.570   9.205-136.784  0.00  0.00    +0.005 A 
ATOM     29  C   UNL     1      58.227   8.733-135.626  0.00  0.00    +0.013 A 
BRANCH  18  19
ATOM     19  C   UNL     1      55.616  10.305-138.026  0.00  0.00    +0.119 C 
BRANCH  19  20
ATOM     20  N   UNL     1      56.337   9.981-139.293  0.00  0.00    -0.302 NA
ATOM     21  C   UNL     1      56.815  11.240-140.021  0.00  0.00    +0.066 C 
ATOM     22  C   UNL     1      57.586  10.882-141.333  0.00  0.00    -0.064 C 
ATOM     23  N   UNL     1      56.683  10.044-142.239  0.00  0.00    +0.379 N 
ATOM     24  C   UNL     1      57.384   9.754-143.498  0.00  0.00    -0.096 C 
ATOM     25  H   UNL     1      55.786  10.659-142.485  0.00  0.00    -0.082 HD
ATOM     26  C   UNL     1      56.201   8.790-141.522  0.00  0.00    -0.064 C 
ATOM     27  C   UNL     1      55.461   9.156-140.205  0.00  0.00    +0.066 C 
ENDBRANCH  19  20
ENDBRANCH  18  19
ENDBRANCH  14  15
ENDBRANCH  12  13
TORSDOF 6
ENDMDL
MODEL 5
REMARK VINA RESULT:      -8.1     19.283     22.321
REMARK  Name = C:\Users\Docking\Desktop\test protocol\1iep_ligandH.pdb
REMARK  8 active torsions:
REMARK  status: ('A' for Active; 'I' for Inactive)
REMARK    1  A    between atoms: _5  and  _11
REMARK    2  A    between atoms: _19  and  _21
REMARK    3  A    between atoms: _22  and  _66
REMARK    4  A    between atoms: _27  and  _30
REMARK    5  A    between atoms: _32  and  _33
REMARK    6  A    between atoms: _38  and  _43
REMARK    7  A    between atoms: _43  and  _46
REMARK    8  A    between atoms: _53  and  _55
REMARK                            x       y       z     vdW  Elec       q    Type
REMARK                         _______ _______ _______ _____ _____    ______ ____
ROOT
ATOM     10  C   UNL     1      48.931  24.462-126.326  0.00  0.00    +0.038 A 
ATOM     11  C   UNL     1      47.611  24.307-126.820  0.00  0.00    +0.047 A 
ATOM     12  C   UNL     1      46.532  23.855-125.956  0.00  0.00    +0.035 A 
ATOM     32  C   UNL     1      46.833  23.572-124.592  0.00  0.00    +0.024 A 
ATOM     33  C   UNL     1      48.169  23.723-124.073  0.00  0.00    +0.007 A 
ATOM     34  C   UNL     1      49.238  24.166-124.921  0.00  0.00    -0.029 A 
ATOM     35  C   UNL     1      50.653  24.303-124.312  0.00  0.00    +0.045 C 
ENDROOT
BRANCH  10   9
ATOM      4  C   UNL     1      52.098  23.706-129.852  0.00  0.00    +0.077 A 
ATOM      5  C   UNL     1      51.755  22.316-129.943  0.00  0.00    +0.048 A 
ATOM      6  C   UNL     1      50.764  21.833-129.059  0.00  0.00    +0.116 A 
ATOM      7  N   UNL     1      50.167  22.686-128.156  0.00  0.00    -0.223 NA
ATOM      8  C   UNL     1      50.522  24.021-128.094  0.00  0.00    +0.220 A 
ATOM      9  N   UNL     1      49.929  24.899-127.200  0.00  0.00    -0.283 N 
ATOM     36  H   UNL     1      50.224  25.875-127.180  0.00  0.00    +0.155 HD
ATOM     37  N   UNL     1      51.467  24.506-128.927  0.00  0.00    -0.214 NA
BRANCH   4   3
ATOM      1  C   UNL     1      55.016  25.989-131.108  0.00  0.00    +0.020 A 
ATOM      2  C   UNL     1      54.043  25.384-130.228  0.00  0.00    +0.013 A 
ATOM      3  C   UNL     1      53.124  24.365-130.720  0.00  0.00    +0.019 A 
ATOM     38  C   UNL     1      53.218  23.977-132.120  0.00  0.00    +0.120 A 
ATOM     39  N   UNL     1      54.164  24.578-132.944  0.00  0.00    -0.263 NA
ATOM     40  C   UNL     1      55.052  25.561-132.481  0.00  0.00    +0.111 A 
ENDBRANCH   4   3
ENDBRANCH  10   9
BRANCH  12  13
ATOM     13  N   UNL     1      45.174  23.671-126.404  0.00  0.00    -0.281 N 
ATOM     14  C   UNL     1      44.462  24.446-127.305  0.00  0.00    +0.248 C 
ATOM     30  O   UNL     1      44.818  25.545-127.704  0.00  0.00    -0.270 OA
ATOM     31  H   UNL     1      44.676  22.873-126.008  0.00  0.00    +0.155 HD
BRANCH  14  15
ATOM     15  C   UNL     1      43.160  23.932-127.828  0.00  0.00    +0.037 A 
ATOM     16  C   UNL     1      42.646  24.354-129.134  0.00  0.00    +0.013 A 
ATOM     17  C   UNL     1      41.378  23.857-129.607  0.00  0.00    +0.005 A 
ATOM     18  C   UNL     1      40.617  22.929-128.774  0.00  0.00    -0.033 A 
ATOM     28  C   UNL     1      41.153  22.523-127.486  0.00  0.00    +0.005 A 
ATOM     29  C   UNL     1      42.394  23.010-127.018  0.00  0.00    +0.013 A 
BRANCH  18  19
ATOM     19  C   UNL     1      39.246  22.364-129.190  0.00  0.00    +0.119 C 
BRANCH  19  20
ATOM     20  N   UNL     1      39.241  21.187-130.109  0.00  0.00    -0.302 NA
ATOM     21  C   UNL     1      40.480  20.306-129.920  0.00  0.00    +0.066 C 
ATOM     22  C   UNL     1      40.448  19.067-130.873  0.00  0.00    -0.064 C 
ATOM     23  N   UNL     1      40.339  19.545-132.322  0.00  0.00    +0.379 N 
ATOM     24  C   UNL     1      40.368  18.385-133.225  0.00  0.00    -0.096 C 
ATOM     25  H   UNL     1      41.238  20.166-132.542  0.00  0.00    -0.082 HD
ATOM     26  C   UNL     1      39.112  20.424-132.519  0.00  0.00    -0.064 C 
ATOM     27  C   UNL     1      39.139  21.636-131.546  0.00  0.00    +0.066 C 
ENDBRANCH  19  20
ENDBRANCH  18  19
ENDBRANCH  14  15
ENDBRANCH  12  13
TORSDOF 6
ENDMDL
