MODEL 1
REMARK VINA RESULT:      -8.7      0.000      0.000
REMARK  Name = C:\Users\Docking\Desktop\test protocol\1iep_ligandH.pdb
REMARK  8 active torsions:
REMARK  status: ('A' for Active; 'I' for Inactive)
REMARK    1  A    between atoms: _5  and  _11
REMARK    2  A    between atoms: _19  and  _21
REMARK    3  A    between atoms: _22  and  _66
REMARK    4  A    between atoms: _27  and  _30
REMARK    5  A    between atoms: _32  and  _33
REMARK    6  A    between atoms: _38  and  _43
REMARK    7  A    between atoms: _43  and  _46
REMARK    8  A    between atoms: _53  and  _55
REMARK                            x       y       z     vdW  Elec       q    Type
REMARK                         _______ _______ _______ _____ _____    ______ ____
ROOT
ATOM     10  C   UNL     1      13.546 -34.227-144.030  0.00  0.00    +0.038 A 
ATOM     11  C   UNL     1      13.057 -34.505-142.728  0.00  0.00    +0.047 A 
ATOM     12  C   UNL     1      12.623 -33.435-141.843  0.00  0.00    +0.035 A 
ATOM     32  C   UNL     1      12.696 -32.094-142.318  0.00  0.00    +0.024 A 
ATOM     33  C   UNL     1      13.191 -31.793-143.638  0.00  0.00    +0.007 A 
ATOM     34  C   UNL     1      13.624 -32.844-144.515  0.00  0.00    -0.029 A 
ATOM     35  C   UNL     1      14.152 -32.462-145.917  0.00  0.00    +0.045 C 
ENDROOT
BRANCH  10   9
ATOM      4  C   UNL     1      16.936 -36.982-146.019  0.00  0.00    +0.077 A 
ATOM      5  C   UNL     1      17.992 -36.218-145.420  0.00  0.00    +0.048 A 
ATOM      6  C   UNL     1      17.620 -35.119-144.613  0.00  0.00    +0.116 A 
ATOM      7  N   UNL     1      16.289 -34.817-144.425  0.00  0.00    -0.223 NA
ATOM      8  C   UNL     1      15.295 -35.574-145.019  0.00  0.00    +0.220 A 
ATOM      9  N   UNL     1      13.950 -35.293-144.837  0.00  0.00    -0.283 N 
ATOM     36  H   UNL     1      13.247 -35.870-145.298  0.00  0.00    +0.155 HD
ATOM     37  N   UNL     1      15.624 -36.627-145.795  0.00  0.00    -0.214 NA
BRANCH   4   3
ATOM      1  C   UNL     1      18.627 -39.998-147.849  0.00  0.00    +0.020 A 
ATOM      2  C   UNL     1      18.455 -38.850-146.988  0.00  0.00    +0.013 A 
ATOM      3  C   UNL     1      17.168 -38.174-146.895  0.00  0.00    +0.019 A 
ATOM     38  C   UNL     1      16.064 -38.689-147.692  0.00  0.00    +0.120 A 
ATOM     39  N   UNL     1      16.259 -39.795-148.513  0.00  0.00    -0.263 NA
ATOM     40  C   UNL     1      17.494 -40.452-148.612  0.00  0.00    +0.111 A 
ENDBRANCH   4   3
ENDBRANCH  10   9
BRANCH  12  13
ATOM     13  N   UNL     1      12.125 -33.656-140.507  0.00  0.00    -0.281 N 
ATOM     14  C   UNL     1      10.950 -34.285-140.129  0.00  0.00    +0.248 C 
ATOM     30  O   UNL     1      10.040 -34.566-140.895  0.00  0.00    -0.270 OA
ATOM     31  H   UNL     1      12.711 -33.307-139.749  0.00  0.00    +0.155 HD
BRANCH  14  15
ATOM     15  C   UNL     1      10.752 -34.640-138.691  0.00  0.00    +0.037 A 
ATOM     16  C   UNL     1      11.886 -34.733-137.768  0.00  0.00    +0.013 A 
ATOM     17  C   UNL     1      11.668 -35.094-136.390  0.00  0.00    +0.005 A 
ATOM     18  C   UNL     1      10.309 -35.364-135.926  0.00  0.00    -0.033 A 
ATOM     28  C   UNL     1       9.202 -35.260-136.862  0.00  0.00    +0.005 A 
ATOM     29  C   UNL     1       9.412 -34.907-138.214  0.00  0.00    +0.013 A 
BRANCH  18  19
ATOM     19  C   UNL     1       9.986 -35.777-134.478  0.00  0.00    +0.119 C 
BRANCH  19  20
ATOM     20  N   UNL     1       9.864 -37.238-134.194  0.00  0.00    -0.302 NA
ATOM     21  C   UNL     1       8.675 -37.549-133.281  0.00  0.00    +0.066 C 
ATOM     22  C   UNL     1       8.549 -39.084-133.013  0.00  0.00    -0.064 C 
ATOM     23  N   UNL     1       9.851 -39.600-132.399  0.00  0.00    +0.379 N 
ATOM     24  C   UNL     1       9.715 -41.031-132.092  0.00  0.00    -0.096 C 
ATOM     25  H   UNL     1      10.008 -39.061-131.436  0.00  0.00    -0.082 HD
ATOM     26  C   UNL     1      11.040 -39.293-133.299  0.00  0.00    -0.064 C 
ATOM     27  C   UNL     1      11.138 -37.768-133.583  0.00  0.00    +0.066 C 
ENDBRANCH  19  20
ENDBRANCH  18  19
ENDBRANCH  14  15
ENDBRANCH  12  13
TORSDOF 6
ENDMDL
MODEL 2
REMARK VINA RESULT:      -8.7     21.026     23.296
REMARK  Name = C:\Users\Docking\Desktop\test protocol\1iep_ligandH.pdb
REMARK  8 active torsions:
REMARK  status: ('A' for Active; 'I' for Inactive)
REMARK    1  A    between atoms: _5  and  _11
REMARK    2  A    between atoms: _19  and  _21
REMARK    3  A    between atoms: _22  and  _66
REMARK    4  A    between atoms: _27  and  _30
REMARK    5  A    between atoms: _32  and  _33
REMARK    6  A    between atoms: _38  and  _43
REMARK    7  A    between atoms: _43  and  _46
REMARK    8  A    between atoms: _53  and  _55
REMARK                            x       y       z     vdW  Elec       q    Type
REMARK                         _______ _______ _______ _____ _____    ______ ____
ROOT
ATOM     10  C   UNL     1      23.456 -23.070-128.146  0.00  0.00    +0.038 A 
ATOM     11  C   UNL     1      22.711 -21.867-128.238  0.00  0.00    +0.047 A 
ATOM     12  C   UNL     1      21.850 -21.430-127.149  0.00  0.00    +0.035 A 
ATOM     32  C   UNL     1      21.774 -22.243-125.981  0.00  0.00    +0.024 A 
ATOM     33  C   UNL     1      22.524 -23.469-125.871  0.00  0.00    +0.007 A 
ATOM     34  C   UNL     1      23.373 -23.906-126.943  0.00  0.00    -0.029 A 
ATOM     35  C   UNL     1      24.148 -25.233-126.773  0.00  0.00    +0.045 C 
ENDROOT
BRANCH  10   9
ATOM      4  C   UNL     1      27.319 -22.484-130.934  0.00  0.00    +0.077 A 
ATOM      5  C   UNL     1      27.743 -21.325-130.204  0.00  0.00    +0.048 A 
ATOM      6  C   UNL     1      26.936 -20.907-129.122  0.00  0.00    +0.116 A 
ATOM      7  N   UNL     1      25.791 -21.606-128.803  0.00  0.00    -0.223 NA
ATOM      8  C   UNL     1      25.410 -22.719-129.529  0.00  0.00    +0.220 A 
ATOM      9  N   UNL     1      24.267 -23.441-129.221  0.00  0.00    -0.283 N 
ATOM     36  H   UNL     1      24.016 -24.253-129.785  0.00  0.00    +0.155 HD
ATOM     37  N   UNL     1      26.163 -23.137-130.567  0.00  0.00    -0.214 NA
BRANCH   4   3
ATOM      1  C   UNL     1      28.724 -24.947-133.629  0.00  0.00    +0.020 A 
ATOM      2  C   UNL     1      27.980 -24.451-132.494  0.00  0.00    +0.013 A 
ATOM      3  C   UNL     1      28.068 -23.050-132.100  0.00  0.00    +0.019 A 
ATOM     38  C   UNL     1      28.923 -22.171-132.883  0.00  0.00    +0.120 A 
ATOM     39  N   UNL     1      29.629 -22.677-133.970  0.00  0.00    -0.263 NA
ATOM     40  C   UNL     1      29.553 -24.023-134.357  0.00  0.00    +0.111 A 
ENDBRANCH   4   3
ENDBRANCH  10   9
BRANCH  12  13
ATOM     13  N   UNL     1      21.064 -20.222-127.189  0.00  0.00    -0.281 N 
ATOM     14  C   UNL     1      19.825 -19.993-126.612  0.00  0.00    +0.248 C 
ATOM     30  O   UNL     1      19.105 -20.866-126.151  0.00  0.00    -0.270 OA
ATOM     31  H   UNL     1      21.469 -19.441-127.705  0.00  0.00    +0.155 HD
BRANCH  14  15
ATOM     15  C   UNL     1      19.305 -18.593-126.550  0.00  0.00    +0.037 A 
ATOM     16  C   UNL     1      18.441 -18.151-125.453  0.00  0.00    +0.013 A 
ATOM     17  C   UNL     1      17.940 -16.800-125.427  0.00  0.00    +0.005 A 
ATOM     18  C   UNL     1      18.302 -15.880-126.502  0.00  0.00    -0.033 A 
ATOM     28  C   UNL     1      19.165 -16.344-127.576  0.00  0.00    +0.005 A 
ATOM     29  C   UNL     1      19.658 -17.668-127.606  0.00  0.00    +0.013 A 
BRANCH  18  19
ATOM     19  C   UNL     1      17.796 -14.427-126.567  0.00  0.00    +0.119 C 
BRANCH  19  20
ATOM     20  N   UNL     1      16.345 -14.221-126.856  0.00  0.00    -0.302 NA
ATOM     21  C   UNL     1      15.523 -14.048-125.575  0.00  0.00    +0.066 C 
ATOM     22  C   UNL     1      14.012 -13.811-125.897  0.00  0.00    -0.064 C 
ATOM     23  N   UNL     1      13.480 -14.980-126.727  0.00  0.00    +0.379 N 
ATOM     24  C   UNL     1      12.045 -14.788-126.982  0.00  0.00    -0.096 C 
ATOM     25  H   UNL     1      13.595 -15.907-126.119  0.00  0.00    -0.082 HD
ATOM     26  C   UNL     1      14.294 -15.161-128.001  0.00  0.00    -0.064 C 
ATOM     27  C   UNL     1      15.799 -15.366-127.672  0.00  0.00    +0.066 C 
ENDBRANCH  19  20
ENDBRANCH  18  19
ENDBRANCH  14  15
ENDBRANCH  12  13
TORSDOF 6
ENDMDL
MODEL 3
REMARK VINA RESULT:      -8.7      1.607      2.367
REMARK  Name = C:\Users\Docking\Desktop\test protocol\1iep_ligandH.pdb
REMARK  8 active torsions:
REMARK  status: ('A' for Active; 'I' for Inactive)
REMARK    1  A    between atoms: _5  and  _11
REMARK    2  A    between atoms: _19  and  _21
REMARK    3  A    between atoms: _22  and  _66
REMARK    4  A    between atoms: _27  and  _30
REMARK    5  A    between atoms: _32  and  _33
REMARK    6  A    between atoms: _38  and  _43
REMARK    7  A    between atoms: _43  and  _46
REMARK    8  A    between atoms: _53  and  _55
REMARK                            x       y       z     vdW  Elec       q    Type
REMARK                         _______ _______ _______ _____ _____    ______ ____
ROOT
ATOM     10  C   UNL     1      14.555 -34.719-144.872  0.00  0.00    +0.038 A 
ATOM     11  C   UNL     1      14.012 -35.023-143.598  0.00  0.00    +0.047 A 
ATOM     12  C   UNL     1      12.888 -34.271-143.061  0.00  0.00    +0.035 A 
ATOM     32  C   UNL     1      12.340 -33.218-143.850  0.00  0.00    +0.024 A 
ATOM     33  C   UNL     1      12.881 -32.896-145.147  0.00  0.00    +0.007 A 
ATOM     34  C   UNL     1      13.991 -33.632-145.681  0.00  0.00    -0.029 A 
ATOM     35  C   UNL     1      14.534 -33.238-147.074  0.00  0.00    +0.045 C 
ENDROOT
BRANCH  10   9
ATOM      4  C   UNL     1      16.409 -38.267-147.520  0.00  0.00    +0.077 A 
ATOM      5  C   UNL     1      15.116 -38.670-147.993  0.00  0.00    +0.048 A 
ATOM      6  C   UNL     1      13.999 -37.943-147.525  0.00  0.00    +0.116 A 
ATOM      7  N   UNL     1      14.173 -36.893-146.650  0.00  0.00    -0.223 NA
ATOM      8  C   UNL     1      15.434 -36.531-146.213  0.00  0.00    +0.220 A 
ATOM      9  N   UNL     1      15.634 -35.473-145.339  0.00  0.00    -0.283 N 
ATOM     36  H   UNL     1      16.580 -35.243-145.034  0.00  0.00    +0.155 HD
ATOM     37  N   UNL     1      16.517 -37.211-146.644  0.00  0.00    -0.214 NA
BRANCH   4   3
ATOM      1  C   UNL     1      19.750 -39.128-149.365  0.00  0.00    +0.020 A 
ATOM      2  C   UNL     1      18.525 -38.446-149.013  0.00  0.00    +0.013 A 
ATOM      3  C   UNL     1      17.686 -38.935-147.926  0.00  0.00    +0.019 A 
ATOM     38  C   UNL     1      18.117 -40.126-147.210  0.00  0.00    +0.120 A 
ATOM     39  N   UNL     1      19.300 -40.763-147.572  0.00  0.00    -0.263 NA
ATOM     40  C   UNL     1      20.115 -40.302-148.617  0.00  0.00    +0.111 A 
ENDBRANCH   4   3
ENDBRANCH  10   9
BRANCH  12  13
ATOM     13  N   UNL     1      12.299 -34.529-141.770  0.00  0.00    -0.281 N 
ATOM     14  C   UNL     1      12.309 -33.712-140.651  0.00  0.00    +0.248 C 
ATOM     30  O   UNL     1      13.014 -32.721-140.525  0.00  0.00    -0.270 OA
ATOM     31  H   UNL     1      11.817 -35.422-141.668  0.00  0.00    +0.155 HD
BRANCH  14  15
ATOM     15  C   UNL     1      11.418 -34.052-139.500  0.00  0.00    +0.037 A 
ATOM     16  C   UNL     1      10.157 -34.770-139.702  0.00  0.00    +0.013 A 
ATOM     17  C   UNL     1       9.308 -35.071-138.577  0.00  0.00    +0.005 A 
ATOM     18  C   UNL     1       9.719 -34.655-137.238  0.00  0.00    -0.033 A 
ATOM     28  C   UNL     1      10.978 -33.948-137.066  0.00  0.00    +0.005 A 
ATOM     29  C   UNL     1      11.812 -33.651-138.167  0.00  0.00    +0.013 A 
BRANCH  18  19
ATOM     19  C   UNL     1       8.866 -34.915-135.983  0.00  0.00    +0.119 C 
BRANCH  19  20
ATOM     20  N   UNL     1       9.158 -36.154-135.202  0.00  0.00    -0.302 NA
ATOM     21  C   UNL     1       8.029 -36.498-134.227  0.00  0.00    +0.066 C 
ATOM     22  C   UNL     1       8.340 -37.810-133.435  0.00  0.00    -0.064 C 
ATOM     23  N   UNL     1       9.668 -37.650-132.692  0.00  0.00    +0.379 N 
ATOM     24  C   UNL     1       9.935 -38.860-131.900  0.00  0.00    -0.096 C 
ATOM     25  H   UNL     1       9.557 -36.798-131.982  0.00  0.00    -0.082 HD
ATOM     26  C   UNL     1      10.796 -37.306-133.654  0.00  0.00    -0.064 C 
ATOM     27  C   UNL     1      10.463 -36.017-134.457  0.00  0.00    +0.066 C 
ENDBRANCH  19  20
ENDBRANCH  18  19
ENDBRANCH  14  15
ENDBRANCH  12  13
TORSDOF 6
ENDMDL
MODEL 4
REMARK VINA RESULT:      -8.3     21.040     23.164
REMARK  Name = C:\Users\Docking\Desktop\test protocol\1iep_ligandH.pdb
REMARK  8 active torsions:
REMARK  status: ('A' for Active; 'I' for Inactive)
REMARK    1  A    between atoms: _5  and  _11
REMARK    2  A    between atoms: _19  and  _21
REMARK    3  A    between atoms: _22  and  _66
REMARK    4  A    between atoms: _27  and  _30
REMARK    5  A    between atoms: _32  and  _33
REMARK    6  A    between atoms: _38  and  _43
REMARK    7  A    between atoms: _43  and  _46
REMARK    8  A    between atoms: _53  and  _55
REMARK                            x       y       z     vdW  Elec       q    Type
REMARK                         _______ _______ _______ _____ _____    ______ ____
ROOT
ATOM     10  C   UNL     1      23.458 -23.033-128.210  0.00  0.00    +0.038 A 
ATOM     11  C   UNL     1      22.624 -21.905-128.419  0.00  0.00    +0.047 A 
ATOM     12  C   UNL     1      21.711 -21.443-127.385  0.00  0.00    +0.035 A 
ATOM     32  C   UNL     1      21.675 -22.152-126.149  0.00  0.00    +0.024 A 
ATOM     33  C   UNL     1      22.515 -23.301-125.920  0.00  0.00    +0.007 A 
ATOM     34  C   UNL     1      23.416 -23.763-126.937  0.00  0.00    -0.029 A 
ATOM     35  C   UNL     1      24.288 -25.005-126.639  0.00  0.00    +0.045 C 
ENDROOT
BRANCH  10   9
ATOM      4  C   UNL     1      27.383 -22.456-130.912  0.00  0.00    +0.077 A 
ATOM      5  C   UNL     1      27.739 -21.241-130.239  0.00  0.00    +0.048 A 
ATOM      6  C   UNL     1      26.882 -20.794-129.208  0.00  0.00    +0.116 A 
ATOM      7  N   UNL     1      25.756 -21.518-128.883  0.00  0.00    -0.223 NA
ATOM      8  C   UNL     1      25.440 -22.685-129.553  0.00  0.00    +0.220 A 
ATOM      9  N   UNL     1      24.316 -23.433-129.236  0.00  0.00    -0.283 N 
ATOM     36  H   UNL     1      24.114 -24.285-129.759  0.00  0.00    +0.155 HD
ATOM     37  N   UNL     1      26.242 -23.132-130.542  0.00  0.00    -0.214 NA
BRANCH   4   3
ATOM      1  C   UNL     1      28.794 -24.955-133.570  0.00  0.00    +0.020 A 
ATOM      2  C   UNL     1      27.988 -24.421-132.496  0.00  0.00    +0.013 A 
ATOM      3  C   UNL     1      28.189 -23.059-132.020  0.00  0.00    +0.019 A 
ATOM     38  C   UNL     1      29.222 -22.255-132.658  0.00  0.00    +0.120 A 
ATOM     39  N   UNL     1      29.983 -22.796-133.689  0.00  0.00    -0.263 NA
ATOM     40  C   UNL     1      29.800 -24.107-134.154  0.00  0.00    +0.111 A 
ENDBRANCH   4   3
ENDBRANCH  10   9
BRANCH  12  13
ATOM     13  N   UNL     1      20.835 -20.309-127.543  0.00  0.00    -0.281 N 
ATOM     14  C   UNL     1      20.566 -19.306-126.626  0.00  0.00    +0.248 C 
ATOM     30  O   UNL     1      20.876 -19.349-125.444  0.00  0.00    -0.270 OA
ATOM     31  H   UNL     1      20.354 -20.236-128.440  0.00  0.00    +0.155 HD
BRANCH  14  15
ATOM     15  C   UNL     1      19.834 -18.086-127.083  0.00  0.00    +0.037 A 
ATOM     16  C   UNL     1      18.417 -17.887-126.768  0.00  0.00    +0.013 A 
ATOM     17  C   UNL     1      17.730 -16.710-127.236  0.00  0.00    +0.005 A 
ATOM     18  C   UNL     1      18.461 -15.720-128.024  0.00  0.00    -0.033 A 
ATOM     28  C   UNL     1      19.867 -15.940-128.318  0.00  0.00    +0.005 A 
ATOM     29  C   UNL     1      20.543 -17.094-127.861  0.00  0.00    +0.013 A 
BRANCH  18  19
ATOM     19  C   UNL     1      17.803 -14.444-128.583  0.00  0.00    +0.119 C 
BRANCH  19  20
ATOM     20  N   UNL     1      17.207 -14.525-129.949  0.00  0.00    -0.302 NA
ATOM     21  C   UNL     1      15.676 -14.507-129.911  0.00  0.00    +0.066 C 
ATOM     22  C   UNL     1      15.069 -14.569-131.350  0.00  0.00    -0.064 C 
ATOM     23  N   UNL     1      15.578 -15.824-132.062  0.00  0.00    +0.379 N 
ATOM     24  C   UNL     1      14.964 -15.915-133.394  0.00  0.00    -0.096 C 
ATOM     25  H   UNL     1      15.240 -16.707-131.472  0.00  0.00    -0.082 HD
ATOM     26  C   UNL     1      17.100 -15.851-132.102  0.00  0.00    -0.064 C 
ATOM     27  C   UNL     1      17.693 -15.759-130.669  0.00  0.00    +0.066 C 
ENDBRANCH  19  20
ENDBRANCH  18  19
ENDBRANCH  14  15
ENDBRANCH  12  13
TORSDOF 6
ENDMDL
MODEL 5
REMARK VINA RESULT:      -8.3      3.668      8.165
REMARK  Name = C:\Users\Docking\Desktop\test protocol\1iep_ligandH.pdb
REMARK  8 active torsions:
REMARK  status: ('A' for Active; 'I' for Inactive)
REMARK    1  A    between atoms: _5  and  _11
REMARK    2  A    between atoms: _19  and  _21
REMARK    3  A    between atoms: _22  and  _66
REMARK    4  A    between atoms: _27  and  _30
REMARK    5  A    between atoms: _32  and  _33
REMARK    6  A    between atoms: _38  and  _43
REMARK    7  A    between atoms: _43  and  _46
REMARK    8  A    between atoms: _53  and  _55
REMARK                            x       y       z     vdW  Elec       q    Type
REMARK                         _______ _______ _______ _____ _____    ______ ____
ROOT
ATOM     10  C   UNL     1       9.161 -36.115-137.451  0.00  0.00    +0.038 A 
ATOM     11  C   UNL     1       9.697 -37.003-136.484  0.00  0.00    +0.047 A 
ATOM     12  C   UNL     1       9.097 -37.131-135.165  0.00  0.00    +0.035 A 
ATOM     32  C   UNL     1       7.950 -36.341-134.865  0.00  0.00    +0.024 A 
ATOM     33  C   UNL     1       7.392 -35.432-135.836  0.00  0.00    +0.007 A 
ATOM     34  C   UNL     1       7.981 -35.300-137.138  0.00  0.00    -0.029 A 
ATOM     35  C   UNL     1       7.345 -34.305-138.136  0.00  0.00    +0.045 C 
ENDROOT
BRANCH  10   9
ATOM      4  C   UNL     1      12.328 -34.171-140.489  0.00  0.00    +0.077 A 
ATOM      5  C   UNL     1      12.774 -33.222-139.510  0.00  0.00    +0.048 A 
ATOM      6  C   UNL     1      12.158 -33.263-138.239  0.00  0.00    +0.116 A 
ATOM      7  N   UNL     1      11.171 -34.188-137.978  0.00  0.00    -0.223 NA
ATOM      8  C   UNL     1      10.763 -35.088-138.945  0.00  0.00    +0.220 A 
ATOM      9  N   UNL     1       9.777 -36.032-138.702  0.00  0.00    -0.283 N 
ATOM     36  H   UNL     1       9.499 -36.674-139.444  0.00  0.00    +0.155 HD
ATOM     37  N   UNL     1      11.334 -35.069-140.167  0.00  0.00    -0.214 NA
BRANCH   4   3
ATOM      1  C   UNL     1      13.913 -35.523-143.800  0.00  0.00    +0.020 A 
ATOM      2  C   UNL     1      13.386 -35.495-142.455  0.00  0.00    +0.013 A 
ATOM      3  C   UNL     1      12.884 -34.255-141.877  0.00  0.00    +0.019 A 
ATOM     38  C   UNL     1      12.928 -33.051-142.693  0.00  0.00    +0.120 A 
ATOM     39  N   UNL     1      13.442 -33.108-143.984  0.00  0.00    -0.263 NA
ATOM     40  C   UNL     1      13.930 -34.295-144.551  0.00  0.00    +0.111 A 
ENDBRANCH   4   3
ENDBRANCH  10   9
BRANCH  12  13
ATOM     13  N   UNL     1       9.602 -38.011-134.140  0.00  0.00    -0.281 N 
ATOM     14  C   UNL     1      10.859 -38.007-133.559  0.00  0.00    +0.248 C 
ATOM     30  O   UNL     1      11.817 -37.379-133.986  0.00  0.00    -0.270 OA
ATOM     31  H   UNL     1       8.954 -38.722-133.802  0.00  0.00    +0.155 HD
BRANCH  14  15
ATOM     15  C   UNL     1      11.091 -38.831-132.334  0.00  0.00    +0.037 A 
ATOM     16  C   UNL     1       9.980 -39.229-131.464  0.00  0.00    +0.013 A 
ATOM     17  C   UNL     1      10.233 -40.010-130.279  0.00  0.00    +0.005 A 
ATOM     18  C   UNL     1      11.604 -40.400-129.958  0.00  0.00    -0.033 A 
ATOM     28  C   UNL     1      12.686 -39.996-130.840  0.00  0.00    +0.005 A 
ATOM     29  C   UNL     1      12.442 -39.230-132.002  0.00  0.00    +0.013 A 
BRANCH  18  19
ATOM     19  C   UNL     1      11.969 -41.215-128.703  0.00  0.00    +0.119 C 
BRANCH  19  20
ATOM     20  N   UNL     1      11.747 -42.690-128.757  0.00  0.00    -0.302 NA
ATOM     21  C   UNL     1      10.278 -43.059-128.531  0.00  0.00    +0.066 C 
ATOM     22  C   UNL     1      10.060 -44.605-128.614  0.00  0.00    -0.064 C 
ATOM     23  N   UNL     1      10.957 -45.300-127.588  0.00  0.00    +0.379 N 
ATOM     24  C   UNL     1      10.712 -46.749-127.623  0.00  0.00    -0.096 C 
ATOM     25  H   UNL     1      10.663 -44.931-126.578  0.00  0.00    -0.082 HD
ATOM     26  C   UNL     1      12.420 -44.936-127.804  0.00  0.00    -0.064 C 
ATOM     27  C   UNL     1      12.620 -43.396-127.749  0.00  0.00    +0.066 C 
ENDBRANCH  19  20
ENDBRANCH  18  19
ENDBRANCH  14  15
ENDBRANCH  12  13
TORSDOF 6
ENDMDL
