MODEL 1
REMARK VINA RESULT:      -8.4      0.000      0.000
REMARK  Name = C:\Users\Docking\Desktop\test protocol\1iep_ligandH.pdb
REMARK  8 active torsions:
REMARK  status: ('A' for Active; 'I' for Inactive)
REMARK    1  A    between atoms: _5  and  _11
REMARK    2  A    between atoms: _19  and  _21
REMARK    3  A    between atoms: _22  and  _66
REMARK    4  A    between atoms: _27  and  _30
REMARK    5  A    between atoms: _32  and  _33
REMARK    6  A    between atoms: _38  and  _43
REMARK    7  A    between atoms: _43  and  _46
REMARK    8  A    between atoms: _53  and  _55
REMARK                            x       y       z     vdW  Elec       q    Type
REMARK                         _______ _______ _______ _____ _____    ______ ____
ROOT
ATOM     10  C   UNL     1      -3.536  38.358  21.265  0.00  0.00    +0.038 A 
ATOM     11  C   UNL     1      -3.119  37.002  21.279  0.00  0.00    +0.047 A 
ATOM     12  C   UNL     1      -4.061  35.928  21.554  0.00  0.00    +0.035 A 
ATOM     32  C   UNL     1      -5.421  36.271  21.809  0.00  0.00    +0.024 A 
ATOM     33  C   UNL     1      -5.861  37.644  21.800  0.00  0.00    +0.007 A 
ATOM     34  C   UNL     1      -4.936  38.708  21.532  0.00  0.00    -0.029 A 
ATOM     35  C   UNL     1      -5.463  40.162  21.541  0.00  0.00    +0.045 C 
ENDROOT
BRANCH  10   9
ATOM      4  C   UNL     1      -0.419  41.729  22.665  0.00  0.00    +0.077 A 
ATOM      5  C   UNL     1      -0.722  41.517  24.051  0.00  0.00    +0.048 A 
ATOM      6  C   UNL     1      -1.690  40.536  24.361  0.00  0.00    +0.116 A 
ATOM      7  N   UNL     1      -2.304  39.826  23.352  0.00  0.00    -0.223 NA
ATOM      8  C   UNL     1      -1.990  40.056  22.025  0.00  0.00    +0.220 A 
ATOM      9  N   UNL     1      -2.589  39.349  20.995  0.00  0.00    -0.283 N 
ATOM     36  H   UNL     1      -2.336  39.553  20.029  0.00  0.00    +0.155 HD
ATOM     37  N   UNL     1      -1.070  40.989  21.703  0.00  0.00    -0.214 NA
BRANCH   4   3
ATOM      1  C   UNL     1       1.961  44.825  22.443  0.00  0.00    +0.020 A 
ATOM      2  C   UNL     1       0.988  43.890  22.959  0.00  0.00    +0.013 A 
ATOM      3  C   UNL     1       0.584  42.728  22.178  0.00  0.00    +0.019 A 
ATOM     38  C   UNL     1       1.190  42.538  20.869  0.00  0.00    +0.120 A 
ATOM     39  N   UNL     1       2.124  43.455  20.397  0.00  0.00    -0.263 NA
ATOM     40  C   UNL     1       2.519  44.578  21.139  0.00  0.00    +0.111 A 
ENDBRANCH   4   3
ENDBRANCH  10   9
BRANCH  12  13
ATOM     13  N   UNL     1      -3.694  34.534  21.590  0.00  0.00    -0.281 N 
ATOM     14  C   UNL     1      -3.625  33.699  22.693  0.00  0.00    +0.248 C 
ATOM     30  O   UNL     1      -3.662  34.083  23.853  0.00  0.00    -0.270 OA
ATOM     31  H   UNL     1      -3.457  34.111  20.692  0.00  0.00    +0.155 HD
BRANCH  14  15
ATOM     15  C   UNL     1      -3.479  32.228  22.477  0.00  0.00    +0.037 A 
ATOM     16  C   UNL     1      -2.513  31.693  21.515  0.00  0.00    +0.013 A 
ATOM     17  C   UNL     1      -2.404  30.270  21.313  0.00  0.00    +0.005 A 
ATOM     18  C   UNL     1      -3.265  29.371  22.078  0.00  0.00    -0.033 A 
ATOM     28  C   UNL     1      -4.212  29.928  23.030  0.00  0.00    +0.005 A 
ATOM     29  C   UNL     1      -4.321  31.322  23.229  0.00  0.00    +0.013 A 
BRANCH  18  19
ATOM     19  C   UNL     1      -3.233  27.840  21.913  0.00  0.00    +0.119 C 
BRANCH  19  20
ATOM     20  N   UNL     1      -2.683  27.041  23.048  0.00  0.00    -0.302 NA
ATOM     21  C   UNL     1      -1.607  26.052  22.587  0.00  0.00    +0.066 C 
ATOM     22  C   UNL     1      -1.027  25.241  23.791  0.00  0.00    -0.064 C 
ATOM     23  N   UNL     1      -2.165  24.509  24.505  0.00  0.00    +0.379 N 
ATOM     24  C   UNL     1      -1.615  23.699  25.602  0.00  0.00    -0.096 C 
ATOM     25  H   UNL     1      -2.632  23.812  23.771  0.00  0.00    -0.082 HD
ATOM     26  C   UNL     1      -3.240  25.484  24.964  0.00  0.00    -0.064 C 
ATOM     27  C   UNL     1      -3.789  26.306  23.765  0.00  0.00    +0.066 C 
ENDBRANCH  19  20
ENDBRANCH  18  19
ENDBRANCH  14  15
ENDBRANCH  12  13
TORSDOF 6
ENDMDL
MODEL 2
REMARK VINA RESULT:      -8.0     23.735     26.128
REMARK  Name = C:\Users\Docking\Desktop\test protocol\1iep_ligandH.pdb
REMARK  8 active torsions:
REMARK  status: ('A' for Active; 'I' for Inactive)
REMARK    1  A    between atoms: _5  and  _11
REMARK    2  A    between atoms: _19  and  _21
REMARK    3  A    between atoms: _22  and  _66
REMARK    4  A    between atoms: _27  and  _30
REMARK    5  A    between atoms: _32  and  _33
REMARK    6  A    between atoms: _38  and  _43
REMARK    7  A    between atoms: _43  and  _46
REMARK    8  A    between atoms: _53  and  _55
REMARK                            x       y       z     vdW  Elec       q    Type
REMARK                         _______ _______ _______ _____ _____    ______ ____
ROOT
ATOM     10  C   UNL     1      22.062  25.221  18.182  0.00  0.00    +0.038 A 
ATOM     11  C   UNL     1      21.292  24.538  19.157  0.00  0.00    +0.047 A 
ATOM     12  C   UNL     1      21.880  23.495  19.984  0.00  0.00    +0.035 A 
ATOM     32  C   UNL     1      23.255  23.175  19.792  0.00  0.00    +0.024 A 
ATOM     33  C   UNL     1      24.052  23.859  18.804  0.00  0.00    +0.007 A 
ATOM     34  C   UNL     1      23.478  24.887  17.984  0.00  0.00    -0.029 A 
ATOM     35  C   UNL     1      24.377  25.582  16.936  0.00  0.00    +0.045 C 
ENDROOT
BRANCH  10   9
ATOM      4  C   UNL     1      20.023  26.784  14.127  0.00  0.00    +0.077 A 
ATOM      5  C   UNL     1      20.225  25.525  13.471  0.00  0.00    +0.048 A 
ATOM      6  C   UNL     1      20.863  24.503  14.209  0.00  0.00    +0.116 A 
ATOM      7  N   UNL     1      21.265  24.735  15.506  0.00  0.00    -0.223 NA
ATOM      8  C   UNL     1      21.058  25.962  16.109  0.00  0.00    +0.220 A 
ATOM      9  N   UNL     1      21.447  26.214  17.416  0.00  0.00    -0.283 N 
ATOM     36  H   UNL     1      21.282  27.135  17.822  0.00  0.00    +0.155 HD
ATOM     37  N   UNL     1      20.451  26.954  15.425  0.00  0.00    -0.214 NA
BRANCH   4   3
ATOM      1  C   UNL     1      17.612  29.001  11.989  0.00  0.00    +0.020 A 
ATOM      2  C   UNL     1      18.215  27.833  12.588  0.00  0.00    +0.013 A 
ATOM      3  C   UNL     1      19.361  27.961  13.480  0.00  0.00    +0.019 A 
ATOM     38  C   UNL     1      19.874  29.295  13.749  0.00  0.00    +0.120 A 
ATOM     39  N   UNL     1      19.274  30.402  13.157  0.00  0.00    -0.263 NA
ATOM     40  C   UNL     1      18.172  30.291  12.295  0.00  0.00    +0.111 A 
ENDBRANCH   4   3
ENDBRANCH  10   9
BRANCH  12  13
ATOM     13  N   UNL     1      21.146  22.761  20.985  0.00  0.00    -0.281 N 
ATOM     14  C   UNL     1      21.218  22.894  22.362  0.00  0.00    +0.248 C 
ATOM     30  O   UNL     1      22.087  23.520  22.952  0.00  0.00    -0.270 OA
ATOM     31  H   UNL     1      20.493  22.059  20.636  0.00  0.00    +0.155 HD
BRANCH  14  15
ATOM     15  C   UNL     1      20.185  22.223  23.208  0.00  0.00    +0.037 A 
ATOM     16  C   UNL     1      18.885  21.835  22.654  0.00  0.00    +0.013 A 
ATOM     17  C   UNL     1      17.899  21.204  23.496  0.00  0.00    +0.005 A 
ATOM     18  C   UNL     1      18.211  20.956  24.901  0.00  0.00    -0.033 A 
ATOM     28  C   UNL     1      19.510  21.347  25.423  0.00  0.00    +0.005 A 
ATOM     29  C   UNL     1      20.478  21.966  24.602  0.00  0.00    +0.013 A 
BRANCH  18  19
ATOM     19  C   UNL     1      17.212  20.308  25.878  0.00  0.00    +0.119 C 
BRANCH  19  20
ATOM     20  N   UNL     1      17.696  20.022  27.261  0.00  0.00    -0.302 NA
ATOM     21  C   UNL     1      18.180  18.577  27.414  0.00  0.00    +0.066 C 
ATOM     22  C   UNL     1      18.703  18.302  28.861  0.00  0.00    -0.064 C 
ATOM     23  N   UNL     1      17.595  18.611  29.869  0.00  0.00    +0.379 N 
ATOM     24  C   UNL     1      18.064  18.298  31.226  0.00  0.00    -0.096 C 
ATOM     25  H   UNL     1      16.736  17.936  29.644  0.00  0.00    -0.082 HD
ATOM     26  C   UNL     1      17.105  20.045  29.722  0.00  0.00    -0.064 C 
ATOM     27  C   UNL     1      16.615  20.316  28.273  0.00  0.00    +0.066 C 
ENDBRANCH  19  20
ENDBRANCH  18  19
ENDBRANCH  14  15
ENDBRANCH  12  13
TORSDOF 6
ENDMDL
MODEL 3
REMARK VINA RESULT:      -7.9     24.572     28.459
REMARK  Name = C:\Users\Docking\Desktop\test protocol\1iep_ligandH.pdb
REMARK  8 active torsions:
REMARK  status: ('A' for Active; 'I' for Inactive)
REMARK    1  A    between atoms: _5  and  _11
REMARK    2  A    between atoms: _19  and  _21
REMARK    3  A    between atoms: _22  and  _66
REMARK    4  A    between atoms: _27  and  _30
REMARK    5  A    between atoms: _32  and  _33
REMARK    6  A    between atoms: _38  and  _43
REMARK    7  A    between atoms: _43  and  _46
REMARK    8  A    between atoms: _53  and  _55
REMARK                            x       y       z     vdW  Elec       q    Type
REMARK                         _______ _______ _______ _____ _____    ______ ____
ROOT
ATOM     10  C   UNL     1      16.403  20.135  29.109  0.00  0.00    +0.038 A 
ATOM     11  C   UNL     1      17.358  20.741  28.253  0.00  0.00    +0.047 A 
ATOM     12  C   UNL     1      17.063  20.986  26.850  0.00  0.00    +0.035 A 
ATOM     32  C   UNL     1      15.783  20.603  26.352  0.00  0.00    +0.024 A 
ATOM     33  C   UNL     1      14.801  19.986  27.208  0.00  0.00    +0.007 A 
ATOM     34  C   UNL     1      15.088  19.739  28.593  0.00  0.00    -0.029 A 
ATOM     35  C   UNL     1      13.999  19.068  29.462  0.00  0.00    +0.045 C 
ENDROOT
BRANCH  10   9
ATOM      4  C   UNL     1      19.043  18.045  32.530  0.00  0.00    +0.077 A 
ATOM      5  C   UNL     1      19.796  17.290  31.570  0.00  0.00    +0.048 A 
ATOM      6  C   UNL     1      19.468  17.463  30.207  0.00  0.00    +0.116 A 
ATOM      7  N   UNL     1      18.460  18.330  29.842  0.00  0.00    -0.223 NA
ATOM      8  C   UNL     1      17.752  19.041  30.793  0.00  0.00    +0.220 A 
ATOM      9  N   UNL     1      16.741  19.924  30.448  0.00  0.00    -0.283 N 
ATOM     36  H   UNL     1      16.237  20.425  31.180  0.00  0.00    +0.155 HD
ATOM     37  N   UNL     1      18.045  18.893  32.102  0.00  0.00    -0.214 NA
BRANCH   4   3
ATOM      1  C   UNL     1      18.575  18.361  36.401  0.00  0.00    +0.020 A 
ATOM      2  C   UNL     1      18.304  18.454  34.985  0.00  0.00    +0.013 A 
ATOM      3  C   UNL     1      19.273  17.974  34.008  0.00  0.00    +0.019 A 
ATOM     38  C   UNL     1      20.516  17.399  34.500  0.00  0.00    +0.120 A 
ATOM     39  N   UNL     1      20.750  17.324  35.870  0.00  0.00    -0.263 NA
ATOM     40  C   UNL     1      19.826  17.785  36.819  0.00  0.00    +0.111 A 
ENDBRANCH   4   3
ENDBRANCH  10   9
BRANCH  12  13
ATOM     13  N   UNL     1      17.995  21.590  25.931  0.00  0.00    -0.281 N 
ATOM     14  C   UNL     1      18.988  20.967  25.193  0.00  0.00    +0.248 C 
ATOM     30  O   UNL     1      19.366  19.819  25.373  0.00  0.00    -0.270 OA
ATOM     31  H   UNL     1      17.913  22.599  25.809  0.00  0.00    +0.155 HD
BRANCH  14  15
ATOM     15  C   UNL     1      19.669  21.734  24.106  0.00  0.00    +0.037 A 
ATOM     16  C   UNL     1      21.129  21.741  23.981  0.00  0.00    +0.013 A 
ATOM     17  C   UNL     1      21.762  22.504  22.934  0.00  0.00    +0.005 A 
ATOM     18  C   UNL     1      20.933  23.265  22.002  0.00  0.00    -0.033 A 
ATOM     28  C   UNL     1      19.487  23.236  22.146  0.00  0.00    +0.005 A 
ATOM     29  C   UNL     1      18.864  22.491  23.171  0.00  0.00    +0.013 A 
BRANCH  18  19
ATOM     19  C   UNL     1      21.523  24.124  20.868  0.00  0.00    +0.119 C 
BRANCH  19  20
ATOM     20  N   UNL     1      21.085  23.811  19.474  0.00  0.00    -0.302 NA
ATOM     21  C   UNL     1      22.160  23.051  18.692  0.00  0.00    +0.066 C 
ATOM     22  C   UNL     1      21.676  22.712  17.244  0.00  0.00    -0.064 C 
ATOM     23  N   UNL     1      21.293  24.005  16.522  0.00  0.00    +0.379 N 
ATOM     24  C   UNL     1      20.893  23.695  15.141  0.00  0.00    -0.096 C 
ATOM     25  H   UNL     1      22.202  24.648  16.475  0.00  0.00    -0.082 HD
ATOM     26  C   UNL     1      20.226  24.768  17.295  0.00  0.00    -0.064 C 
ATOM     27  C   UNL     1      20.705  25.074  18.741  0.00  0.00    +0.066 C 
ENDBRANCH  19  20
ENDBRANCH  18  19
ENDBRANCH  14  15
ENDBRANCH  12  13
TORSDOF 6
ENDMDL
MODEL 4
REMARK VINA RESULT:      -7.8     18.319     23.410
REMARK  Name = C:\Users\Docking\Desktop\test protocol\1iep_ligandH.pdb
REMARK  8 active torsions:
REMARK  status: ('A' for Active; 'I' for Inactive)
REMARK    1  A    between atoms: _5  and  _11
REMARK    2  A    between atoms: _19  and  _21
REMARK    3  A    between atoms: _22  and  _66
REMARK    4  A    between atoms: _27  and  _30
REMARK    5  A    between atoms: _32  and  _33
REMARK    6  A    between atoms: _38  and  _43
REMARK    7  A    between atoms: _43  and  _46
REMARK    8  A    between atoms: _53  and  _55
REMARK                            x       y       z     vdW  Elec       q    Type
REMARK                         _______ _______ _______ _____ _____    ______ ____
ROOT
ATOM     10  C   UNL     1      16.974  34.987  15.251  0.00  0.00    +0.038 A 
ATOM     11  C   UNL     1      16.800  36.355  15.580  0.00  0.00    +0.047 A 
ATOM     12  C   UNL     1      16.357  36.761  16.905  0.00  0.00    +0.035 A 
ATOM     32  C   UNL     1      16.102  35.745  17.872  0.00  0.00    +0.024 A 
ATOM     33  C   UNL     1      16.273  34.349  17.555  0.00  0.00    +0.007 A 
ATOM     34  C   UNL     1      16.708  33.943  16.249  0.00  0.00    -0.029 A 
ATOM     35  C   UNL     1      16.867  32.432  15.962  0.00  0.00    +0.045 C 
ENDROOT
BRANCH  10   9
ATOM      4  C   UNL     1      16.147  33.440  10.783  0.00  0.00    +0.077 A 
ATOM      5  C   UNL     1      14.749  33.254  11.043  0.00  0.00    +0.048 A 
ATOM      6  C   UNL     1      14.284  33.561  12.342  0.00  0.00    +0.116 A 
ATOM      7  N   UNL     1      15.161  34.020  13.301  0.00  0.00    -0.223 NA
ATOM      8  C   UNL     1      16.504  34.187  13.017  0.00  0.00    +0.220 A 
ATOM      9  N   UNL     1      17.402  34.654  13.964  0.00  0.00    -0.283 N 
ATOM     36  H   UNL     1      18.386  34.756  13.718  0.00  0.00    +0.155 HD
ATOM     37  N   UNL     1      16.973  33.899  11.785  0.00  0.00    -0.214 NA
BRANCH   4   3
ATOM      1  C   UNL     1      17.035  33.522   6.975  0.00  0.00    +0.020 A 
ATOM      2  C   UNL     1      16.382  33.826   8.227  0.00  0.00    +0.013 A 
ATOM      3  C   UNL     1      16.789  33.163   9.460  0.00  0.00    +0.019 A 
ATOM     38  C   UNL     1      17.869  32.191   9.390  0.00  0.00    +0.120 A 
ATOM     39  N   UNL     1      18.479  31.918   8.169  0.00  0.00    -0.263 NA
ATOM     40  C   UNL     1      18.094  32.548   6.976  0.00  0.00    +0.111 A 
ENDBRANCH   4   3
ENDBRANCH  10   9
BRANCH  12  13
ATOM     13  N   UNL     1      16.154  38.134  17.293  0.00  0.00    -0.281 N 
ATOM     14  C   UNL     1      17.114  39.116  17.483  0.00  0.00    +0.248 C 
ATOM     30  O   UNL     1      18.315  38.903  17.555  0.00  0.00    -0.270 OA
ATOM     31  H   UNL     1      15.187  38.418  17.447  0.00  0.00    +0.155 HD
BRANCH  14  15
ATOM     15  C   UNL     1      16.674  40.537  17.629  0.00  0.00    +0.037 A 
ATOM     16  C   UNL     1      15.650  40.919  18.604  0.00  0.00    +0.013 A 
ATOM     17  C   UNL     1      15.232  42.295  18.712  0.00  0.00    +0.005 A 
ATOM     18  C   UNL     1      15.840  43.298  17.842  0.00  0.00    -0.033 A 
ATOM     28  C   UNL     1      16.857  42.892  16.887  0.00  0.00    +0.005 A 
ATOM     29  C   UNL     1      17.269  41.545  16.777  0.00  0.00    +0.013 A 
BRANCH  18  19
ATOM     19  C   UNL     1      15.439  44.785  17.874  0.00  0.00    +0.119 C 
BRANCH  19  20
ATOM     20  N   UNL     1      14.021  45.119  17.545  0.00  0.00    -0.302 NA
ATOM     21  C   UNL     1      13.914  46.027  16.317  0.00  0.00    +0.066 C 
ATOM     22  C   UNL     1      12.423  46.348  15.974  0.00  0.00    -0.064 C 
ATOM     23  N   UNL     1      11.752  46.995  17.187  0.00  0.00    +0.379 N 
ATOM     24  C   UNL     1      10.366  47.351  16.849  0.00  0.00    -0.096 C 
ATOM     25  H   UNL     1      12.298  47.940  17.411  0.00  0.00    -0.082 HD
ATOM     26  C   UNL     1      11.856  46.099  18.413  0.00  0.00    -0.064 C 
ATOM     27  C   UNL     1      13.340  45.763  18.728  0.00  0.00    +0.066 C 
ENDBRANCH  19  20
ENDBRANCH  18  19
ENDBRANCH  14  15
ENDBRANCH  12  13
TORSDOF 6
ENDMDL
MODEL 5
REMARK VINA RESULT:      -7.7     21.281     23.454
REMARK  Name = C:\Users\Docking\Desktop\test protocol\1iep_ligandH.pdb
REMARK  8 active torsions:
REMARK  status: ('A' for Active; 'I' for Inactive)
REMARK    1  A    between atoms: _5  and  _11
REMARK    2  A    between atoms: _19  and  _21
REMARK    3  A    between atoms: _22  and  _66
REMARK    4  A    between atoms: _27  and  _30
REMARK    5  A    between atoms: _32  and  _33
REMARK    6  A    between atoms: _38  and  _43
REMARK    7  A    between atoms: _43  and  _46
REMARK    8  A    between atoms: _53  and  _55
REMARK                            x       y       z     vdW  Elec       q    Type
REMARK                         _______ _______ _______ _____ _____    ______ ____
ROOT
ATOM     10  C   UNL     1      19.546  28.944  13.284  0.00  0.00    +0.038 A 
ATOM     11  C   UNL     1      18.652  27.964  12.781  0.00  0.00    +0.047 A 
ATOM     12  C   UNL     1      19.074  27.013  11.765  0.00  0.00    +0.035 A 
ATOM     32  C   UNL     1      20.414  27.085  11.286  0.00  0.00    +0.024 A 
ATOM     33  C   UNL     1      21.335  28.075  11.785  0.00  0.00    +0.007 A 
ATOM     34  C   UNL     1      20.925  29.018  12.786  0.00  0.00    -0.029 A 
ATOM     35  C   UNL     1      21.953  30.062  13.280  0.00  0.00    +0.045 C 
ENDROOT
BRANCH  10   9
ATOM      4  C   UNL     1      17.524  33.087  14.621  0.00  0.00    +0.077 A 
ATOM      5  C   UNL     1      17.392  33.529  13.263  0.00  0.00    +0.048 A 
ATOM      6  C   UNL     1      17.864  32.664  12.250  0.00  0.00    +0.116 A 
ATOM      7  N   UNL     1      18.423  31.449  12.583  0.00  0.00    -0.223 NA
ATOM      8  C   UNL     1      18.537  31.054  13.903  0.00  0.00    +0.220 A 
ATOM      9  N   UNL     1      19.088  29.833  14.260  0.00  0.00    -0.283 N 
ATOM     36  H   UNL     1      19.161  29.581  15.245  0.00  0.00    +0.155 HD
ATOM     37  N   UNL     1      18.095  31.862  14.888  0.00  0.00    -0.214 NA
BRANCH   4   3
ATOM      1  C   UNL     1      15.280  34.822  17.315  0.00  0.00    +0.020 A 
ATOM      2  C   UNL     1      15.666  34.038  16.164  0.00  0.00    +0.013 A 
ATOM      3  C   UNL     1      17.070  33.887  15.802  0.00  0.00    +0.019 A 
ATOM     38  C   UNL     1      18.066  34.546  16.633  0.00  0.00    +0.120 A 
ATOM     39  N   UNL     1      17.665  35.296  17.734  0.00  0.00    -0.263 NA
ATOM     40  C   UNL     1      16.317  35.450  18.091  0.00  0.00    +0.111 A 
ENDBRANCH   4   3
ENDBRANCH  10   9
BRANCH  12  13
ATOM     13  N   UNL     1      18.208  26.001  11.211  0.00  0.00    -0.281 N 
ATOM     14  C   UNL     1      18.309  24.626  11.347  0.00  0.00    +0.248 C 
ATOM     30  O   UNL     1      19.288  24.046  11.792  0.00  0.00    -0.270 OA
ATOM     31  H   UNL     1      17.427  26.340  10.650  0.00  0.00    +0.155 HD
BRANCH  14  15
ATOM     15  C   UNL     1      17.163  23.772  10.912  0.00  0.00    +0.037 A 
ATOM     16  C   UNL     1      16.541  22.811  11.827  0.00  0.00    +0.013 A 
ATOM     17  C   UNL     1      15.448  21.986  11.376  0.00  0.00    +0.005 A 
ATOM     18  C   UNL     1      14.968  22.121  10.003  0.00  0.00    -0.033 A 
ATOM     28  C   UNL     1      15.599  23.086   9.118  0.00  0.00    +0.005 A 
ATOM     29  C   UNL     1      16.672  23.895   9.556  0.00  0.00    +0.013 A 
BRANCH  18  19
ATOM     19  C   UNL     1      13.820  21.268   9.431  0.00  0.00    +0.119 C 
BRANCH  19  20
ATOM     20  N   UNL     1      12.425  21.696   9.749  0.00  0.00    -0.302 NA
ATOM     21  C   UNL     1      11.460  20.509   9.811  0.00  0.00    +0.066 C 
ATOM     22  C   UNL     1      10.010  20.972  10.167  0.00  0.00    -0.064 C 
ATOM     23  N   UNL     1       9.539  22.001   9.138  0.00  0.00    +0.379 N 
ATOM     24  C   UNL     1       8.154  22.395   9.437  0.00  0.00    -0.096 C 
ATOM     25  H   UNL     1       9.541  21.505   8.139  0.00  0.00    -0.082 HD
ATOM     26  C   UNL     1      10.494  23.183   9.068  0.00  0.00    -0.064 C 
ATOM     27  C   UNL     1      11.938  22.709   8.743  0.00  0.00    +0.066 C 
ENDBRANCH  19  20
ENDBRANCH  18  19
ENDBRANCH  14  15
ENDBRANCH  12  13
TORSDOF 6
ENDMDL
