MODEL 1
REMARK VINA RESULT:      -9.3      0.000      0.000
REMARK  Name = C:\Users\Docking\Desktop\test protocol\1iep_ligandH.pdb
REMARK  8 active torsions:
REMARK  status: ('A' for Active; 'I' for Inactive)
REMARK    1  A    between atoms: _5  and  _11
REMARK    2  A    between atoms: _19  and  _21
REMARK    3  A    between atoms: _22  and  _66
REMARK    4  A    between atoms: _27  and  _30
REMARK    5  A    between atoms: _32  and  _33
REMARK    6  A    between atoms: _38  and  _43
REMARK    7  A    between atoms: _43  and  _46
REMARK    8  A    between atoms: _53  and  _55
REMARK                            x       y       z     vdW  Elec       q    Type
REMARK                         _______ _______ _______ _____ _____    ______ ____
ROOT
ATOM     10  C   UNL     1     121.233 111.787  37.708  0.00  0.00    +0.038 A 
ATOM     11  C   UNL     1     121.773 111.882  36.400  0.00  0.00    +0.047 A 
ATOM     12  C   UNL     1     121.476 113.019  35.543  0.00  0.00    +0.035 A 
ATOM     32  C   UNL     1     120.626 114.044  36.052  0.00  0.00    +0.024 A 
ATOM     33  C   UNL     1     120.067 113.964  37.379  0.00  0.00    +0.007 A 
ATOM     34  C   UNL     1     120.355 112.843  38.227  0.00  0.00    -0.029 A 
ATOM     35  C   UNL     1     119.723 112.806  39.638  0.00  0.00    +0.045 C 
ENDROOT
BRANCH  10   9
ATOM      4  C   UNL     1     120.480 107.268  39.139  0.00  0.00    +0.077 A 
ATOM      5  C   UNL     1     119.339 107.124  38.282  0.00  0.00    +0.048 A 
ATOM      6  C   UNL     1     118.975 108.239  37.493  0.00  0.00    +0.116 A 
ATOM      7  N   UNL     1     119.705 109.406  37.565  0.00  0.00    -0.223 NA
ATOM      8  C   UNL     1     120.798 109.512  38.405  0.00  0.00    +0.220 A 
ATOM      9  N   UNL     1     121.551 110.673  38.487  0.00  0.00    -0.283 N 
ATOM     36  H   UNL     1     122.347 110.714  39.124  0.00  0.00    +0.155 HD
ATOM     37  N   UNL     1     121.166 108.462  39.169  0.00  0.00    -0.214 NA
BRANCH   4   3
ATOM      1  C   UNL     1     122.093 103.944  40.424  0.00  0.00    +0.020 A 
ATOM      2  C   UNL     1     121.616 104.965  39.520  0.00  0.00    +0.013 A 
ATOM      3  C   UNL     1     120.991 106.179  40.031  0.00  0.00    +0.019 A 
ATOM     38  C   UNL     1     120.865 106.331  41.472  0.00  0.00    +0.120 A 
ATOM     39  N   UNL     1     121.332 105.330  42.318  0.00  0.00    -0.263 NA
ATOM     40  C   UNL     1     121.933 104.156  41.838  0.00  0.00    +0.111 A 
ENDBRANCH   4   3
ENDBRANCH  10   9
BRANCH  12  13
ATOM     13  N   UNL     1     121.989 113.166  34.204  0.00  0.00    -0.281 N 
ATOM     14  C   UNL     1     123.307 113.330  33.810  0.00  0.00    +0.248 C 
ATOM     30  O   UNL     1     124.228 113.591  34.570  0.00  0.00    -0.270 OA
ATOM     31  H   UNL     1     121.297 113.146  33.455  0.00  0.00    +0.155 HD
BRANCH  14  15
ATOM     15  C   UNL     1     123.650 113.200  32.361  0.00  0.00    +0.037 A 
ATOM     16  C   UNL     1     124.824 113.868  31.794  0.00  0.00    +0.013 A 
ATOM     17  C   UNL     1     125.121 113.740  30.390  0.00  0.00    +0.005 A 
ATOM     18  C   UNL     1     124.243 112.937  29.542  0.00  0.00    -0.033 A 
ATOM     28  C   UNL     1     123.088 112.280  30.131  0.00  0.00    +0.005 A 
ATOM     29  C   UNL     1     122.793 112.405  31.507  0.00  0.00    +0.013 A 
BRANCH  18  19
ATOM     19  C   UNL     1     124.472 112.762  28.029  0.00  0.00    +0.119 C 
BRANCH  19  20
ATOM     20  N   UNL     1     123.890 113.799  27.125  0.00  0.00    -0.302 NA
ATOM     21  C   UNL     1     124.972 114.663  26.471  0.00  0.00    +0.066 C 
ATOM     22  C   UNL     1     124.347 115.727  25.511  0.00  0.00    -0.064 C 
ATOM     23  N   UNL     1     123.358 116.595  26.292  0.00  0.00    +0.379 N 
ATOM     24  C   UNL     1     122.812 117.634  25.406  0.00  0.00    -0.096 C 
ATOM     25  H   UNL     1     123.925 117.107  27.104  0.00  0.00    -0.082 HD
ATOM     26  C   UNL     1     122.281 115.743  26.948  0.00  0.00    -0.064 C 
ATOM     27  C   UNL     1     122.914 114.670  27.876  0.00  0.00    +0.066 C 
ENDBRANCH  19  20
ENDBRANCH  18  19
ENDBRANCH  14  15
ENDBRANCH  12  13
TORSDOF 6
ENDMDL
MODEL 2
REMARK VINA RESULT:      -9.0      4.994     13.181
REMARK  Name = C:\Users\Docking\Desktop\test protocol\1iep_ligandH.pdb
REMARK  8 active torsions:
REMARK  status: ('A' for Active; 'I' for Inactive)
REMARK    1  A    between atoms: _5  and  _11
REMARK    2  A    between atoms: _19  and  _21
REMARK    3  A    between atoms: _22  and  _66
REMARK    4  A    between atoms: _27  and  _30
REMARK    5  A    between atoms: _32  and  _33
REMARK    6  A    between atoms: _38  and  _43
REMARK    7  A    between atoms: _43  and  _46
REMARK    8  A    between atoms: _53  and  _55
REMARK                            x       y       z     vdW  Elec       q    Type
REMARK                         _______ _______ _______ _____ _____    ______ ____
ROOT
ATOM     10  C   UNL     1     117.890 114.803  29.601  0.00  0.00    +0.038 A 
ATOM     11  C   UNL     1     118.007 114.762  31.014  0.00  0.00    +0.047 A 
ATOM     12  C   UNL     1     116.859 114.464  31.856  0.00  0.00    +0.035 A 
ATOM     32  C   UNL     1     115.607 114.209  31.225  0.00  0.00    +0.024 A 
ATOM     33  C   UNL     1     115.470 114.247  29.791  0.00  0.00    +0.007 A 
ATOM     34  C   UNL     1     116.598 114.544  28.955  0.00  0.00    -0.029 A 
ATOM     35  C   UNL     1     116.391 114.578  27.423  0.00  0.00    +0.045 C 
ENDROOT
BRANCH  10   9
ATOM      4  C   UNL     1     122.230 113.691  27.877  0.00  0.00    +0.077 A 
ATOM      5  C   UNL     1     122.249 112.436  28.571  0.00  0.00    +0.048 A 
ATOM      6  C   UNL     1     121.126 112.117  29.367  0.00  0.00    +0.116 A 
ATOM      7  N   UNL     1     120.067 112.995  29.454  0.00  0.00    -0.223 NA
ATOM      8  C   UNL     1     120.082 114.199  28.774  0.00  0.00    +0.220 A 
ATOM      9  N   UNL     1     119.025 115.094  28.841  0.00  0.00    -0.283 N 
ATOM     36  H   UNL     1     119.077 115.975  28.330  0.00  0.00    +0.155 HD
ATOM     37  N   UNL     1     121.143 114.527  28.009  0.00  0.00    -0.214 NA
BRANCH   4   3
ATOM      1  C   UNL     1     125.658 113.977  26.015  0.00  0.00    +0.020 A 
ATOM      2  C   UNL     1     124.617 113.474  26.883  0.00  0.00    +0.013 A 
ATOM      3  C   UNL     1     123.341 114.169  26.995  0.00  0.00    +0.019 A 
ATOM     38  C   UNL     1     123.148 115.379  26.210  0.00  0.00    +0.120 A 
ATOM     39  N   UNL     1     124.168 115.840  25.385  0.00  0.00    -0.263 NA
ATOM     40  C   UNL     1     125.401 115.181  25.270  0.00  0.00    +0.111 A 
ENDBRANCH   4   3
ENDBRANCH  10   9
BRANCH  12  13
ATOM     13  N   UNL     1     116.916 114.417  33.296  0.00  0.00    -0.281 N 
ATOM     14  C   UNL     1     116.692 113.327  34.122  0.00  0.00    +0.248 C 
ATOM     30  O   UNL     1     116.197 112.272  33.755  0.00  0.00    -0.270 OA
ATOM     31  H   UNL     1     117.150 115.293  33.764  0.00  0.00    +0.155 HD
BRANCH  14  15
ATOM     15  C   UNL     1     117.058 113.430  35.568  0.00  0.00    +0.037 A 
ATOM     16  C   UNL     1     117.283 114.730  36.204  0.00  0.00    +0.013 A 
ATOM     17  C   UNL     1     117.651 114.800  37.596  0.00  0.00    +0.005 A 
ATOM     18  C   UNL     1     117.796 113.564  38.361  0.00  0.00    -0.033 A 
ATOM     28  C   UNL     1     117.562 112.287  37.706  0.00  0.00    +0.005 A 
ATOM     29  C   UNL     1     117.202 112.215  36.342  0.00  0.00    +0.013 A 
BRANCH  18  19
ATOM     19  C   UNL     1     118.207 113.542  39.846  0.00  0.00    +0.119 C 
BRANCH  19  20
ATOM     20  N   UNL     1     117.250 112.923  40.811  0.00  0.00    -0.302 NA
ATOM     21  C   UNL     1     116.003 113.787  41.019  0.00  0.00    +0.066 C 
ATOM     22  C   UNL     1     115.004 113.113  42.014  0.00  0.00    -0.064 C 
ATOM     23  N   UNL     1     115.711 112.853  43.346  0.00  0.00    +0.379 N 
ATOM     24  C   UNL     1     114.757 112.273  44.302  0.00  0.00    -0.096 C 
ATOM     25  H   UNL     1     116.040 113.838  43.751  0.00  0.00    -0.082 HD
ATOM     26  C   UNL     1     116.953 111.997  43.147  0.00  0.00    -0.064 C 
ATOM     27  C   UNL     1     117.927 112.661  42.134  0.00  0.00    +0.066 C 
ENDBRANCH  19  20
ENDBRANCH  18  19
ENDBRANCH  14  15
ENDBRANCH  12  13
TORSDOF 6
ENDMDL
MODEL 3
REMARK VINA RESULT:      -9.0     20.797     22.415
REMARK  Name = C:\Users\Docking\Desktop\test protocol\1iep_ligandH.pdb
REMARK  8 active torsions:
REMARK  status: ('A' for Active; 'I' for Inactive)
REMARK    1  A    between atoms: _5  and  _11
REMARK    2  A    between atoms: _19  and  _21
REMARK    3  A    between atoms: _22  and  _66
REMARK    4  A    between atoms: _27  and  _30
REMARK    5  A    between atoms: _32  and  _33
REMARK    6  A    between atoms: _38  and  _43
REMARK    7  A    between atoms: _43  and  _46
REMARK    8  A    between atoms: _53  and  _55
REMARK                            x       y       z     vdW  Elec       q    Type
REMARK                         _______ _______ _______ _____ _____    ______ ____
ROOT
ATOM     10  C   UNL     1     108.677 101.600  25.548  0.00  0.00    +0.038 A 
ATOM     11  C   UNL     1     108.079 102.664  24.827  0.00  0.00    +0.047 A 
ATOM     12  C   UNL     1     107.451 103.781  25.516  0.00  0.00    +0.035 A 
ATOM     32  C   UNL     1     107.453 103.783  26.941  0.00  0.00    +0.024 A 
ATOM     33  C   UNL     1     108.055 102.708  27.690  0.00  0.00    +0.007 A 
ATOM     34  C   UNL     1     108.674 101.603  27.016  0.00  0.00    -0.029 A 
ATOM     35  C   UNL     1     109.299 100.475  27.870  0.00  0.00    +0.045 C 
ENDROOT
BRANCH  10   9
ATOM      4  C   UNL     1     108.438  97.437  23.172  0.00  0.00    +0.077 A 
ATOM      5  C   UNL     1     107.025  97.324  23.391  0.00  0.00    +0.048 A 
ATOM      6  C   UNL     1     106.399  98.356  24.127  0.00  0.00    +0.116 A 
ATOM      7  N   UNL     1     107.140  99.415  24.602  0.00  0.00    -0.223 NA
ATOM      8  C   UNL     1     108.502  99.492  24.374  0.00  0.00    +0.220 A 
ATOM      9  N   UNL     1     109.266 100.553  24.836  0.00  0.00    -0.283 N 
ATOM     36  H   UNL     1     110.269 100.569  24.653  0.00  0.00    +0.155 HD
ATOM     37  N   UNL     1     109.124  98.519  23.676  0.00  0.00    -0.214 NA
BRANCH   4   3
ATOM      1  C   UNL     1     111.404  95.260  21.844  0.00  0.00    +0.020 A 
ATOM      2  C   UNL     1     110.675  96.248  22.604  0.00  0.00    +0.013 A 
ATOM      3  C   UNL     1     109.242  96.429  22.410  0.00  0.00    +0.019 A 
ATOM     38  C   UNL     1     108.571  95.586  21.431  0.00  0.00    +0.120 A 
ATOM     39  N   UNL     1     109.300  94.644  20.712  0.00  0.00    -0.263 NA
ATOM     40  C   UNL     1     110.680  94.463  20.889  0.00  0.00    +0.111 A 
ENDBRANCH   4   3
ENDBRANCH  10   9
BRANCH  12  13
ATOM     13  N   UNL     1     106.821 104.886  24.837  0.00  0.00    -0.281 N 
ATOM     14  C   UNL     1     106.200 104.882  23.599  0.00  0.00    +0.248 C 
ATOM     30  O   UNL     1     106.279 103.971  22.788  0.00  0.00    -0.270 OA
ATOM     31  H   UNL     1     106.835 105.780  25.328  0.00  0.00    +0.155 HD
BRANCH  14  15
ATOM     15  C   UNL     1     105.384 106.068  23.197  0.00  0.00    +0.037 A 
ATOM     16  C   UNL     1     104.572 106.799  24.173  0.00  0.00    +0.013 A 
ATOM     17  C   UNL     1     103.781 107.929  23.756  0.00  0.00    +0.005 A 
ATOM     18  C   UNL     1     103.799 108.336  22.353  0.00  0.00    -0.033 A 
ATOM     28  C   UNL     1     104.617 107.596  21.406  0.00  0.00    +0.005 A 
ATOM     29  C   UNL     1     105.393 106.488  21.811  0.00  0.00    +0.013 A 
BRANCH  18  19
ATOM     19  C   UNL     1     102.969 109.517  21.814  0.00  0.00    +0.119 C 
BRANCH  19  20
ATOM     20  N   UNL     1     102.278 109.325  20.504  0.00  0.00    -0.302 NA
ATOM     21  C   UNL     1     101.689 110.633  19.969  0.00  0.00    +0.066 C 
ATOM     22  C   UNL     1     100.989 110.419  18.588  0.00  0.00    -0.064 C 
ATOM     23  N   UNL     1      99.901 109.354  18.730  0.00  0.00    +0.379 N 
ATOM     24  C   UNL     1      99.202 109.192  17.446  0.00  0.00    -0.096 C 
ATOM     25  H   UNL     1      99.159 109.725  19.474  0.00  0.00    -0.082 HD
ATOM     26  C   UNL     1     100.478 108.050  19.264  0.00  0.00    -0.064 C 
ATOM     27  C   UNL     1     101.197 108.280  20.623  0.00  0.00    +0.066 C 
ENDBRANCH  19  20
ENDBRANCH  18  19
ENDBRANCH  14  15
ENDBRANCH  12  13
TORSDOF 6
ENDMDL
MODEL 4
REMARK VINA RESULT:      -8.7      5.223     12.197
REMARK  Name = C:\Users\Docking\Desktop\test protocol\1iep_ligandH.pdb
REMARK  8 active torsions:
REMARK  status: ('A' for Active; 'I' for Inactive)
REMARK    1  A    between atoms: _5  and  _11
REMARK    2  A    between atoms: _19  and  _21
REMARK    3  A    between atoms: _22  and  _66
REMARK    4  A    between atoms: _27  and  _30
REMARK    5  A    between atoms: _32  and  _33
REMARK    6  A    between atoms: _38  and  _43
REMARK    7  A    between atoms: _43  and  _46
REMARK    8  A    between atoms: _53  and  _55
REMARK                            x       y       z     vdW  Elec       q    Type
REMARK                         _______ _______ _______ _____ _____    ______ ____
ROOT
ATOM     10  C   UNL     1     119.342 112.835  30.641  0.00  0.00    +0.038 A 
ATOM     11  C   UNL     1     118.805 112.552  31.923  0.00  0.00    +0.047 A 
ATOM     12  C   UNL     1     117.829 113.435  32.542  0.00  0.00    +0.035 A 
ATOM     32  C   UNL     1     117.419 114.597  31.825  0.00  0.00    +0.024 A 
ATOM     33  C   UNL     1     117.954 114.900  30.521  0.00  0.00    +0.007 A 
ATOM     34  C   UNL     1     118.920 114.034  29.907  0.00  0.00    -0.029 A 
ATOM     35  C   UNL     1     119.465 114.412  28.510  0.00  0.00    +0.045 C 
ENDROOT
BRANCH  10   9
ATOM      4  C   UNL     1     123.822 111.182  30.154  0.00  0.00    +0.077 A 
ATOM      5  C   UNL     1     124.348 112.177  31.043  0.00  0.00    +0.048 A 
ATOM      6  C   UNL     1     123.434 113.100  31.599  0.00  0.00    +0.116 A 
ATOM      7  N   UNL     1     122.095 113.024  31.283  0.00  0.00    -0.223 NA
ATOM      8  C   UNL     1     121.620 112.053  30.420  0.00  0.00    +0.220 A 
ATOM      9  N   UNL     1     120.277 111.953  30.094  0.00  0.00    -0.283 N 
ATOM     36  H   UNL     1     119.967 111.227  29.449  0.00  0.00    +0.155 HD
ATOM     37  N   UNL     1     122.473 111.161  29.875  0.00  0.00    -0.214 NA
BRANCH   4   3
ATOM      1  C   UNL     1     125.087 107.773  28.712  0.00  0.00    +0.020 A 
ATOM      2  C   UNL     1     124.240 108.745  29.363  0.00  0.00    +0.013 A 
ATOM      3  C   UNL     1     124.661 110.135  29.490  0.00  0.00    +0.019 A 
ATOM     38  C   UNL     1     125.955 110.511  28.943  0.00  0.00    +0.120 A 
ATOM     39  N   UNL     1     126.751 109.553  28.322  0.00  0.00    -0.263 NA
ATOM     40  C   UNL     1     126.357 108.213  28.196  0.00  0.00    +0.111 A 
ENDBRANCH   4   3
ENDBRANCH  10   9
BRANCH  12  13
ATOM     13  N   UNL     1     117.255 113.204  33.844  0.00  0.00    -0.281 N 
ATOM     14  C   UNL     1     117.880 112.699  34.972  0.00  0.00    +0.248 C 
ATOM     30  O   UNL     1     118.980 112.166  34.973  0.00  0.00    -0.270 OA
ATOM     31  H   UNL     1     116.268 113.441  33.947  0.00  0.00    +0.155 HD
BRANCH  14  15
ATOM     15  C   UNL     1     117.176 112.785  36.288  0.00  0.00    +0.037 A 
ATOM     16  C   UNL     1     116.533 111.610  36.884  0.00  0.00    +0.013 A 
ATOM     17  C   UNL     1     115.846 111.725  38.146  0.00  0.00    +0.005 A 
ATOM     18  C   UNL     1     115.799 113.019  38.821  0.00  0.00    -0.033 A 
ATOM     28  C   UNL     1     116.449 114.166  38.210  0.00  0.00    +0.005 A 
ATOM     29  C   UNL     1     117.123 114.059  36.973  0.00  0.00    +0.013 A 
BRANCH  18  19
ATOM     19  C   UNL     1     115.069 113.238  40.160  0.00  0.00    +0.119 C 
BRANCH  19  20
ATOM     20  N   UNL     1     115.506 112.406  41.320  0.00  0.00    -0.302 NA
ATOM     21  C   UNL     1     114.464 112.393  42.442  0.00  0.00    +0.066 C 
ATOM     22  C   UNL     1     114.928 111.500  43.639  0.00  0.00    -0.064 C 
ATOM     23  N   UNL     1     116.275 112.005  44.157  0.00  0.00    +0.379 N 
ATOM     24  C   UNL     1     116.686 111.204  45.319  0.00  0.00    -0.096 C 
ATOM     25  H   UNL     1     116.131 113.055  44.504  0.00  0.00    -0.082 HD
ATOM     26  C   UNL     1     117.316 112.025  43.047  0.00  0.00    -0.064 C 
ATOM     27  C   UNL     1     116.833 112.891  41.851  0.00  0.00    +0.066 C 
ENDBRANCH  19  20
ENDBRANCH  18  19
ENDBRANCH  14  15
ENDBRANCH  12  13
TORSDOF 6
ENDMDL
MODEL 5
REMARK VINA RESULT:      -8.7     20.504     23.538
REMARK  Name = C:\Users\Docking\Desktop\test protocol\1iep_ligandH.pdb
REMARK  8 active torsions:
REMARK  status: ('A' for Active; 'I' for Inactive)
REMARK    1  A    between atoms: _5  and  _11
REMARK    2  A    between atoms: _19  and  _21
REMARK    3  A    between atoms: _22  and  _66
REMARK    4  A    between atoms: _27  and  _30
REMARK    5  A    between atoms: _32  and  _33
REMARK    6  A    between atoms: _38  and  _43
REMARK    7  A    between atoms: _43  and  _46
REMARK    8  A    between atoms: _53  and  _55
REMARK                            x       y       z     vdW  Elec       q    Type
REMARK                         _______ _______ _______ _____ _____    ______ ____
ROOT
ATOM     10  C   UNL     1     108.700 101.671  25.878  0.00  0.00    +0.038 A 
ATOM     11  C   UNL     1     108.957 100.467  25.175  0.00  0.00    +0.047 A 
ATOM     12  C   UNL     1     109.418  99.274  25.867  0.00  0.00    +0.035 A 
ATOM     32  C   UNL     1     109.606  99.343  27.279  0.00  0.00    +0.024 A 
ATOM     33  C   UNL     1     109.352 100.559  28.010  0.00  0.00    +0.007 A 
ATOM     34  C   UNL     1     108.898 101.740  27.331  0.00  0.00    -0.029 A 
ATOM     35  C   UNL     1     108.647 103.018  28.165  0.00  0.00    +0.045 C 
ENDROOT
BRANCH  10   9
ATOM      4  C   UNL     1     105.233 104.291  23.840  0.00  0.00    +0.077 A 
ATOM      5  C   UNL     1     104.220 103.344  24.209  0.00  0.00    +0.048 A 
ATOM      6  C   UNL     1     104.634 102.193  24.916  0.00  0.00    +0.116 A 
ATOM      7  N   UNL     1     105.964 102.012  25.226  0.00  0.00    -0.223 NA
ATOM      8  C   UNL     1     106.916 102.944  24.854  0.00  0.00    +0.220 A 
ATOM      9  N   UNL     1     108.258 102.786  25.163  0.00  0.00    -0.283 N 
ATOM     36  H   UNL     1     108.930 103.493  24.864  0.00  0.00    +0.155 HD
ATOM     37  N   UNL     1     106.546 104.051  24.177  0.00  0.00    -0.214 NA
BRANCH   4   3
ATOM      1  C   UNL     1     104.030 107.900  22.931  0.00  0.00    +0.020 A 
ATOM      2  C   UNL     1     104.277 106.699  23.696  0.00  0.00    +0.013 A 
ATOM      3  C   UNL     1     104.952 105.558  23.093  0.00  0.00    +0.019 A 
ATOM     38  C   UNL     1     105.370 105.664  21.704  0.00  0.00    +0.120 A 
ATOM     39  N   UNL     1     105.119 106.832  20.991  0.00  0.00    -0.263 NA
ATOM     40  C   UNL     1     104.467 107.937  21.560  0.00  0.00    +0.111 A 
ENDBRANCH   4   3
ENDBRANCH  10   9
BRANCH  12  13
ATOM     13  N   UNL     1     109.703  98.026  25.205  0.00  0.00    -0.281 N 
ATOM     14  C   UNL     1     109.529  97.713  23.867  0.00  0.00    +0.248 C 
ATOM     30  O   UNL     1     108.898  98.396  23.073  0.00  0.00    -0.270 OA
ATOM     31  H   UNL     1     110.078  97.282  25.794  0.00  0.00    +0.155 HD
BRANCH  14  15
ATOM     15  C   UNL     1     110.130  96.451  23.336  0.00  0.00    +0.037 A 
ATOM     16  C   UNL     1     109.561  95.142  23.664  0.00  0.00    +0.013 A 
ATOM     17  C   UNL     1     110.171  93.940  23.152  0.00  0.00    +0.005 A 
ATOM     18  C   UNL     1     111.357  94.043  22.306  0.00  0.00    -0.033 A 
ATOM     28  C   UNL     1     111.897  95.355  21.992  0.00  0.00    +0.005 A 
ATOM     29  C   UNL     1     111.303  96.535  22.492  0.00  0.00    +0.013 A 
BRANCH  18  19
ATOM     19  C   UNL     1     112.085  92.812  21.733  0.00  0.00    +0.119 C 
BRANCH  19  20
ATOM     20  N   UNL     1     112.318  91.664  22.659  0.00  0.00    -0.302 NA
ATOM     21  C   UNL     1     113.406  91.970  23.692  0.00  0.00    +0.066 C 
ATOM     22  C   UNL     1     113.620  90.766  24.667  0.00  0.00    -0.064 C 
ATOM     23  N   UNL     1     113.977  89.517  23.859  0.00  0.00    +0.379 N 
ATOM     24  C   UNL     1     114.237  88.398  24.776  0.00  0.00    -0.096 C 
ATOM     25  H   UNL     1     114.923  89.730  23.308  0.00  0.00    -0.082 HD
ATOM     26  C   UNL     1     112.902  89.207  22.827  0.00  0.00    -0.064 C 
ATOM     27  C   UNL     1     112.676  90.420  21.882  0.00  0.00    +0.066 C 
ENDBRANCH  19  20
ENDBRANCH  18  19
ENDBRANCH  14  15
ENDBRANCH  12  13
TORSDOF 6
ENDMDL
