MODEL 1
REMARK VINA RESULT:     -10.2      0.000      0.000
REMARK  Name = C:\Users\Docking\Desktop\test protocol\1iep_ligandH.pdb
REMARK  8 active torsions:
REMARK  status: ('A' for Active; 'I' for Inactive)
REMARK    1  A    between atoms: _5  and  _11
REMARK    2  A    between atoms: _19  and  _21
REMARK    3  A    between atoms: _22  and  _66
REMARK    4  A    between atoms: _27  and  _30
REMARK    5  A    between atoms: _32  and  _33
REMARK    6  A    between atoms: _38  and  _43
REMARK    7  A    between atoms: _43  and  _46
REMARK    8  A    between atoms: _53  and  _55
REMARK                            x       y       z     vdW  Elec       q    Type
REMARK                         _______ _______ _______ _____ _____    ______ ____
ROOT
ATOM     10  C   UNL     1     119.607 112.862  28.953  0.00  0.00    +0.038 A 
ATOM     11  C   UNL     1     118.359 112.430  29.471  0.00  0.00    +0.047 A 
ATOM     12  C   UNL     1     117.326 113.386  29.837  0.00  0.00    +0.035 A 
ATOM     32  C   UNL     1     117.596 114.774  29.661  0.00  0.00    +0.024 A 
ATOM     33  C   UNL     1     118.860 115.230  29.138  0.00  0.00    +0.007 A 
ATOM     34  C   UNL     1     119.884 114.292  28.777  0.00  0.00    -0.029 A 
ATOM     35  C   UNL     1     121.222 114.838  28.226  0.00  0.00    +0.045 C 
ENDROOT
BRANCH  10   9
ATOM      4  C   UNL     1     123.448 110.173  29.982  0.00  0.00    +0.077 A 
ATOM      5  C   UNL     1     123.576 110.750  31.289  0.00  0.00    +0.048 A 
ATOM      6  C   UNL     1     122.638 111.741  31.655  0.00  0.00    +0.116 A 
ATOM      7  N   UNL     1     121.649 112.118  30.772  0.00  0.00    -0.223 NA
ATOM      8  C   UNL     1     121.555 111.542  29.519  0.00  0.00    +0.220 A 
ATOM      9  N   UNL     1     120.564 111.901  28.618  0.00  0.00    -0.283 N 
ATOM     36  H   UNL     1     120.533 111.458  27.700  0.00  0.00    +0.155 HD
ATOM     37  N   UNL     1     122.439 110.595  29.144  0.00  0.00    -0.214 NA
BRANCH   4   3
ATOM      1  C   UNL     1     125.030 106.703  29.109  0.00  0.00    +0.020 A 
ATOM      2  C   UNL     1     124.117 107.688  29.643  0.00  0.00    +0.013 A 
ATOM      3  C   UNL     1     124.361 109.112  29.450  0.00  0.00    +0.019 A 
ATOM     38  C   UNL     1     125.546 109.509  28.706  0.00  0.00    +0.120 A 
ATOM     39  N   UNL     1     126.408 108.539  28.205  0.00  0.00    -0.263 NA
ATOM     40  C   UNL     1     126.185 107.166  28.385  0.00  0.00    +0.111 A 
ENDBRANCH   4   3
ENDBRANCH  10   9
BRANCH  12  13
ATOM     13  N   UNL     1     116.042 113.007  30.375  0.00  0.00    -0.281 N 
ATOM     14  C   UNL     1     115.682 112.874  31.706  0.00  0.00    +0.248 C 
ATOM     30  O   UNL     1     116.473 112.853  32.637  0.00  0.00    -0.270 OA
ATOM     31  H   UNL     1     115.311 112.813  29.691  0.00  0.00    +0.155 HD
BRANCH  14  15
ATOM     15  C   UNL     1     114.236 112.728  32.051  0.00  0.00    +0.037 A 
ATOM     16  C   UNL     1     113.740 111.550  32.768  0.00  0.00    +0.013 A 
ATOM     17  C   UNL     1     112.337 111.427  33.074  0.00  0.00    +0.005 A 
ATOM     18  C   UNL     1     111.419 112.486  32.664  0.00  0.00    -0.033 A 
ATOM     28  C   UNL     1     111.938 113.647  31.959  0.00  0.00    +0.005 A 
ATOM     29  C   UNL     1     113.312 113.771  31.656  0.00  0.00    +0.013 A 
BRANCH  18  19
ATOM     19  C   UNL     1     109.903 112.429  32.930  0.00  0.00    +0.119 C 
BRANCH  19  20
ATOM     20  N   UNL     1     108.995 112.668  31.768  0.00  0.00    -0.302 NA
ATOM     21  C   UNL     1     108.256 114.004  31.882  0.00  0.00    +0.066 C 
ATOM     22  C   UNL     1     107.328 114.248  30.647  0.00  0.00    -0.064 C 
ATOM     23  N   UNL     1     106.337 113.089  30.520  0.00  0.00    +0.379 N 
ATOM     24  C   UNL     1     105.426 113.344  29.395  0.00  0.00    -0.096 C 
ATOM     25  H   UNL     1     105.726 113.064  31.452  0.00  0.00    -0.082 HD
ATOM     26  C   UNL     1     107.064 111.757  30.409  0.00  0.00    -0.064 C 
ATOM     27  C   UNL     1     108.006 111.537  31.626  0.00  0.00    +0.066 C 
ENDBRANCH  19  20
ENDBRANCH  18  19
ENDBRANCH  14  15
ENDBRANCH  12  13
TORSDOF 6
ENDMDL
MODEL 2
REMARK VINA RESULT:     -10.1      7.178     10.104
REMARK  Name = C:\Users\Docking\Desktop\test protocol\1iep_ligandH.pdb
REMARK  8 active torsions:
REMARK  status: ('A' for Active; 'I' for Inactive)
REMARK    1  A    between atoms: _5  and  _11
REMARK    2  A    between atoms: _19  and  _21
REMARK    3  A    between atoms: _22  and  _66
REMARK    4  A    between atoms: _27  and  _30
REMARK    5  A    between atoms: _32  and  _33
REMARK    6  A    between atoms: _38  and  _43
REMARK    7  A    between atoms: _43  and  _46
REMARK    8  A    between atoms: _53  and  _55
REMARK                            x       y       z     vdW  Elec       q    Type
REMARK                         _______ _______ _______ _____ _____    ______ ____
ROOT
ATOM     10  C   UNL     1     122.609 111.751  31.342  0.00  0.00    +0.038 A 
ATOM     11  C   UNL     1     122.487 111.199  32.642  0.00  0.00    +0.047 A 
ATOM     12  C   UNL     1     121.220 111.228  33.356  0.00  0.00    +0.035 A 
ATOM     32  C   UNL     1     120.096 111.825  32.715  0.00  0.00    +0.024 A 
ATOM     33  C   UNL     1     120.203 112.393  31.393  0.00  0.00    +0.007 A 
ATOM     34  C   UNL     1     121.451 112.369  30.685  0.00  0.00    -0.029 A 
ATOM     35  C   UNL     1     121.509 112.998  29.274  0.00  0.00    +0.045 C 
ENDROOT
BRANCH  10   9
ATOM      4  C   UNL     1     125.917 109.477  28.711  0.00  0.00    +0.077 A 
ATOM      5  C   UNL     1     125.118 108.289  28.625  0.00  0.00    +0.048 A 
ATOM      6  C   UNL     1     123.865 108.301  29.279  0.00  0.00    +0.116 A 
ATOM      7  N   UNL     1     123.452 109.424  29.963  0.00  0.00    -0.223 NA
ATOM      8  C   UNL     1     124.248 110.553  30.027  0.00  0.00    +0.220 A 
ATOM      9  N   UNL     1     123.850 111.696  30.702  0.00  0.00    -0.283 N 
ATOM     36  H   UNL     1     124.469 112.505  30.733  0.00  0.00    +0.155 HD
ATOM     37  N   UNL     1     125.449 110.566  29.413  0.00  0.00    -0.214 NA
BRANCH   4   3
ATOM      1  C   UNL     1     129.476 108.695  27.288  0.00  0.00    +0.020 A 
ATOM      2  C   UNL     1     128.188 108.504  27.914  0.00  0.00    +0.013 A 
ATOM      3  C   UNL     1     127.263 109.619  28.070  0.00  0.00    +0.019 A 
ATOM     38  C   UNL     1     127.675 110.925  27.578  0.00  0.00    +0.120 A 
ATOM     39  N   UNL     1     128.922 111.079  26.981  0.00  0.00    -0.263 NA
ATOM     40  C   UNL     1     129.821 110.013  26.826  0.00  0.00    +0.111 A 
ENDBRANCH   4   3
ENDBRANCH  10   9
BRANCH  12  13
ATOM     13  N   UNL     1     121.038 110.690  34.682  0.00  0.00    -0.281 N 
ATOM     14  C   UNL     1     121.072 109.361  35.074  0.00  0.00    +0.248 C 
ATOM     30  O   UNL     1     121.053 108.413  34.304  0.00  0.00    -0.270 OA
ATOM     31  H   UNL     1     120.862 111.371  35.421  0.00  0.00    +0.155 HD
BRANCH  14  15
ATOM     15  C   UNL     1     121.120 109.040  36.533  0.00  0.00    +0.037 A 
ATOM     16  C   UNL     1     122.396 108.909  37.240  0.00  0.00    +0.013 A 
ATOM     17  C   UNL     1     122.415 108.582  38.644  0.00  0.00    +0.005 A 
ATOM     18  C   UNL     1     121.151 108.385  39.350  0.00  0.00    -0.033 A 
ATOM     28  C   UNL     1     119.899 108.527  38.625  0.00  0.00    +0.005 A 
ATOM     29  C   UNL     1     119.877 108.846  37.249  0.00  0.00    +0.013 A 
BRANCH  18  19
ATOM     19  C   UNL     1     121.076 108.013  40.843  0.00  0.00    +0.119 C 
BRANCH  19  20
ATOM     20  N   UNL     1     120.939 106.565  41.180  0.00  0.00    -0.302 NA
ATOM     21  C   UNL     1     121.362 105.661  40.019  0.00  0.00    +0.066 C 
ATOM     22  C   UNL     1     121.233 104.150  40.397  0.00  0.00    -0.064 C 
ATOM     23  N   UNL     1     119.792 103.853  40.816  0.00  0.00    +0.379 N 
ATOM     24  C   UNL     1     119.654 102.421  41.117  0.00  0.00    -0.096 C 
ATOM     25  H   UNL     1     119.133 104.082  39.947  0.00  0.00    -0.082 HD
ATOM     26  C   UNL     1     119.362 104.749  41.969  0.00  0.00    -0.064 C 
ATOM     27  C   UNL     1     119.522 106.249  41.593  0.00  0.00    +0.066 C 
ENDBRANCH  19  20
ENDBRANCH  18  19
ENDBRANCH  14  15
ENDBRANCH  12  13
TORSDOF 6
ENDMDL
MODEL 3
REMARK VINA RESULT:      -9.5      7.255      9.892
REMARK  Name = C:\Users\Docking\Desktop\test protocol\1iep_ligandH.pdb
REMARK  8 active torsions:
REMARK  status: ('A' for Active; 'I' for Inactive)
REMARK    1  A    between atoms: _5  and  _11
REMARK    2  A    between atoms: _19  and  _21
REMARK    3  A    between atoms: _22  and  _66
REMARK    4  A    between atoms: _27  and  _30
REMARK    5  A    between atoms: _32  and  _33
REMARK    6  A    between atoms: _38  and  _43
REMARK    7  A    between atoms: _43  and  _46
REMARK    8  A    between atoms: _53  and  _55
REMARK                            x       y       z     vdW  Elec       q    Type
REMARK                         _______ _______ _______ _____ _____    ______ ____
ROOT
ATOM     10  C   UNL     1     122.746 111.750  31.333  0.00  0.00    +0.038 A 
ATOM     11  C   UNL     1     122.556 111.073  32.564  0.00  0.00    +0.047 A 
ATOM     12  C   UNL     1     121.278 111.118  33.258  0.00  0.00    +0.035 A 
ATOM     32  C   UNL     1     120.214 111.859  32.666  0.00  0.00    +0.024 A 
ATOM     33  C   UNL     1     120.390 112.553  31.415  0.00  0.00    +0.007 A 
ATOM     34  C   UNL     1     121.650 112.515  30.728  0.00  0.00    -0.029 A 
ATOM     35  C   UNL     1     121.784 113.284  29.393  0.00  0.00    +0.045 C 
ENDROOT
BRANCH  10   9
ATOM      4  C   UNL     1     126.002 109.470  28.641  0.00  0.00    +0.077 A 
ATOM      5  C   UNL     1     125.155 108.323  28.484  0.00  0.00    +0.048 A 
ATOM      6  C   UNL     1     123.893 108.356  29.118  0.00  0.00    +0.116 A 
ATOM      7  N   UNL     1     123.515 109.460  29.851  0.00  0.00    -0.223 NA
ATOM      8  C   UNL     1     124.357 110.550  29.984  0.00  0.00    +0.220 A 
ATOM      9  N   UNL     1     123.994 111.674  30.710  0.00  0.00    -0.283 N 
ATOM     36  H   UNL     1     124.646 112.454  30.791  0.00  0.00    +0.155 HD
ATOM     37  N   UNL     1     125.568 110.542  29.390  0.00  0.00    -0.214 NA
BRANCH   4   3
ATOM      1  C   UNL     1     129.593 108.630  27.338  0.00  0.00    +0.020 A 
ATOM      2  C   UNL     1     128.289 108.465  27.938  0.00  0.00    +0.013 A 
ATOM      3  C   UNL     1     127.363 109.587  28.030  0.00  0.00    +0.019 A 
ATOM     38  C   UNL     1     127.790 110.873  27.499  0.00  0.00    +0.120 A 
ATOM     39  N   UNL     1     129.052 111.003  26.928  0.00  0.00    -0.263 NA
ATOM     40  C   UNL     1     129.952 109.931  26.836  0.00  0.00    +0.111 A 
ENDBRANCH   4   3
ENDBRANCH  10   9
BRANCH  12  13
ATOM     13  N   UNL     1     121.028 110.457  34.515  0.00  0.00    -0.281 N 
ATOM     14  C   UNL     1     121.105 109.103  34.795  0.00  0.00    +0.248 C 
ATOM     30  O   UNL     1     121.193 108.226  33.949  0.00  0.00    -0.270 OA
ATOM     31  H   UNL     1     120.763 111.062  35.292  0.00  0.00    +0.155 HD
BRANCH  14  15
ATOM     15  C   UNL     1     121.063 108.657  36.221  0.00  0.00    +0.037 A 
ATOM     16  C   UNL     1     122.040 107.701  36.748  0.00  0.00    +0.013 A 
ATOM     17  C   UNL     1     121.967 107.274  38.123  0.00  0.00    +0.005 A 
ATOM     18  C   UNL     1     120.912 107.806  38.982  0.00  0.00    -0.033 A 
ATOM     28  C   UNL     1     119.959 108.758  38.435  0.00  0.00    +0.005 A 
ATOM     29  C   UNL     1     120.027 109.177  37.088  0.00  0.00    +0.013 A 
BRANCH  18  19
ATOM     19  C   UNL     1     120.745 107.391  40.456  0.00  0.00    +0.119 C 
BRANCH  19  20
ATOM     20  N   UNL     1     120.132 108.390  41.382  0.00  0.00    -0.302 NA
ATOM     21  C   UNL     1     121.187 109.269  42.059  0.00  0.00    +0.066 C 
ATOM     22  C   UNL     1     120.527 110.322  43.007  0.00  0.00    -0.064 C 
ATOM     23  N   UNL     1     119.673 109.600  44.051  0.00  0.00    +0.379 N 
ATOM     24  C   UNL     1     119.097 110.584  44.979  0.00  0.00    -0.096 C 
ATOM     25  H   UNL     1     120.347 108.935  44.638  0.00  0.00    -0.082 HD
ATOM     26  C   UNL     1     118.623 108.722  43.386  0.00  0.00    -0.064 C 
ATOM     27  C   UNL     1     119.287 107.698  42.424  0.00  0.00    +0.066 C 
ENDBRANCH  19  20
ENDBRANCH  18  19
ENDBRANCH  14  15
ENDBRANCH  12  13
TORSDOF 6
ENDMDL
MODEL 4
REMARK VINA RESULT:      -9.3      6.646      8.159
REMARK  Name = C:\Users\Docking\Desktop\test protocol\1iep_ligandH.pdb
REMARK  8 active torsions:
REMARK  status: ('A' for Active; 'I' for Inactive)
REMARK    1  A    between atoms: _5  and  _11
REMARK    2  A    between atoms: _19  and  _21
REMARK    3  A    between atoms: _22  and  _66
REMARK    4  A    between atoms: _27  and  _30
REMARK    5  A    between atoms: _32  and  _33
REMARK    6  A    between atoms: _38  and  _43
REMARK    7  A    between atoms: _43  and  _46
REMARK    8  A    between atoms: _53  and  _55
REMARK                            x       y       z     vdW  Elec       q    Type
REMARK                         _______ _______ _______ _____ _____    ______ ____
ROOT
ATOM     10  C   UNL     1     122.295 112.080  30.444  0.00  0.00    +0.038 A 
ATOM     11  C   UNL     1     122.056 111.702  31.789  0.00  0.00    +0.047 A 
ATOM     12  C   UNL     1     120.731 111.820  32.380  0.00  0.00    +0.035 A 
ATOM     32  C   UNL     1     119.673 112.325  31.569  0.00  0.00    +0.024 A 
ATOM     33  C   UNL     1     119.899 112.715  30.200  0.00  0.00    +0.007 A 
ATOM     34  C   UNL     1     121.204 112.603  29.613  0.00  0.00    -0.029 A 
ATOM     35  C   UNL     1     121.390 113.042  28.142  0.00  0.00    +0.045 C 
ENDROOT
BRANCH  10   9
ATOM      4  C   UNL     1     125.858 109.456  28.583  0.00  0.00    +0.077 A 
ATOM      5  C   UNL     1     125.092 108.246  28.671  0.00  0.00    +0.048 A 
ATOM      6  C   UNL     1     123.788 108.341  29.207  0.00  0.00    +0.116 A 
ATOM      7  N   UNL     1     123.297 109.560  29.621  0.00  0.00    -0.223 NA
ATOM      8  C   UNL     1     124.063 110.708  29.525  0.00  0.00    +0.220 A 
ATOM      9  N   UNL     1     123.586 111.945  29.928  0.00  0.00    -0.283 N 
ATOM     36  H   UNL     1     124.185 112.767  29.847  0.00  0.00    +0.155 HD
ATOM     37  N   UNL     1     125.311 110.643  29.017  0.00  0.00    -0.214 NA
BRANCH   4   3
ATOM      1  C   UNL     1     129.466 108.473  27.436  0.00  0.00    +0.020 A 
ATOM      2  C   UNL     1     128.130 108.359  27.974  0.00  0.00    +0.013 A 
ATOM      3  C   UNL     1     127.250 109.519  28.036  0.00  0.00    +0.019 A 
ATOM     38  C   UNL     1     127.756 110.790  27.541  0.00  0.00    +0.120 A 
ATOM     39  N   UNL     1     129.048 110.871  27.030  0.00  0.00    -0.263 NA
ATOM     40  C   UNL     1     129.904 109.761  26.966  0.00  0.00    +0.111 A 
ENDBRANCH   4   3
ENDBRANCH  10   9
BRANCH  12  13
ATOM     13  N   UNL     1     120.430 111.459  33.743  0.00  0.00    -0.281 N 
ATOM     14  C   UNL     1     120.283 112.301  34.834  0.00  0.00    +0.248 C 
ATOM     30  O   UNL     1     120.600 113.480  34.844  0.00  0.00    -0.270 OA
ATOM     31  H   UNL     1     120.310 110.463  33.926  0.00  0.00    +0.155 HD
BRANCH  14  15
ATOM     15  C   UNL     1     119.713 111.748  36.100  0.00  0.00    +0.037 A 
ATOM     16  C   UNL     1     118.293 111.901  36.425  0.00  0.00    +0.013 A 
ATOM     17  C   UNL     1     117.773 111.373  37.662  0.00  0.00    +0.005 A 
ATOM     18  C   UNL     1     118.675 110.685  38.582  0.00  0.00    -0.033 A 
ATOM     28  C   UNL     1     120.079 110.543  38.232  0.00  0.00    +0.005 A 
ATOM     29  C   UNL     1     120.592 111.060  37.022  0.00  0.00    +0.013 A 
BRANCH  18  19
ATOM     19  C   UNL     1     118.212 110.109  39.933  0.00  0.00    +0.119 C 
BRANCH  19  20
ATOM     20  N   UNL     1     117.304 110.956  40.763  0.00  0.00    -0.302 NA
ATOM     21  C   UNL     1     118.049 112.121  41.421  0.00  0.00    +0.066 C 
ATOM     22  C   UNL     1     117.080 113.010  42.267  0.00  0.00    -0.064 C 
ATOM     23  N   UNL     1     116.388 112.145  43.321  0.00  0.00    +0.379 N 
ATOM     24  C   UNL     1     115.520 112.989  44.156  0.00  0.00    -0.096 C 
ATOM     25  H   UNL     1     117.179 111.717  43.980  0.00  0.00    -0.082 HD
ATOM     26  C   UNL     1     115.647 110.982  42.676  0.00  0.00    -0.064 C 
ATOM     27  C   UNL     1     116.613 110.122  41.814  0.00  0.00    +0.066 C 
ENDBRANCH  19  20
ENDBRANCH  18  19
ENDBRANCH  14  15
ENDBRANCH  12  13
TORSDOF 6
ENDMDL
MODEL 5
REMARK VINA RESULT:      -9.3      6.756      9.198
REMARK  Name = C:\Users\Docking\Desktop\test protocol\1iep_ligandH.pdb
REMARK  8 active torsions:
REMARK  status: ('A' for Active; 'I' for Inactive)
REMARK    1  A    between atoms: _5  and  _11
REMARK    2  A    between atoms: _19  and  _21
REMARK    3  A    between atoms: _22  and  _66
REMARK    4  A    between atoms: _27  and  _30
REMARK    5  A    between atoms: _32  and  _33
REMARK    6  A    between atoms: _38  and  _43
REMARK    7  A    between atoms: _43  and  _46
REMARK    8  A    between atoms: _53  and  _55
REMARK                            x       y       z     vdW  Elec       q    Type
REMARK                         _______ _______ _______ _____ _____    ______ ____
ROOT
ATOM     10  C   UNL     1     122.238 112.059  30.579  0.00  0.00    +0.038 A 
ATOM     11  C   UNL     1     122.036 111.856  31.968  0.00  0.00    +0.047 A 
ATOM     12  C   UNL     1     120.716 111.994  32.565  0.00  0.00    +0.035 A 
ATOM     32  C   UNL     1     119.624 112.339  31.716  0.00  0.00    +0.024 A 
ATOM     33  C   UNL     1     119.812 112.550  30.302  0.00  0.00    +0.007 A 
ATOM     34  C   UNL     1     121.112 112.417  29.709  0.00  0.00    -0.029 A 
ATOM     35  C   UNL     1     121.256 112.661  28.189  0.00  0.00    +0.045 C 
ENDROOT
BRANCH  10   9
ATOM      4  C   UNL     1     125.747 109.416  28.646  0.00  0.00    +0.077 A 
ATOM      5  C   UNL     1     124.957 108.220  28.700  0.00  0.00    +0.048 A 
ATOM      6  C   UNL     1     123.655 108.326  29.239  0.00  0.00    +0.116 A 
ATOM      7  N   UNL     1     123.189 109.543  29.687  0.00  0.00    -0.223 NA
ATOM      8  C   UNL     1     123.978 110.677  29.622  0.00  0.00    +0.220 A 
ATOM      9  N   UNL     1     123.526 111.913  30.060  0.00  0.00    -0.283 N 
ATOM     36  H   UNL     1     124.142 112.724  30.002  0.00  0.00    +0.155 HD
ATOM     37  N   UNL     1     125.225 110.601  29.113  0.00  0.00    -0.214 NA
BRANCH   4   3
ATOM      1  C   UNL     1     129.340 108.394  27.483  0.00  0.00    +0.020 A 
ATOM      2  C   UNL     1     128.002 108.292  28.018  0.00  0.00    +0.013 A 
ATOM      3  C   UNL     1     127.141 109.466  28.101  0.00  0.00    +0.019 A 
ATOM     38  C   UNL     1     127.668 110.737  27.628  0.00  0.00    +0.120 A 
ATOM     39  N   UNL     1     128.961 110.805  27.119  0.00  0.00    -0.263 NA
ATOM     40  C   UNL     1     129.799 109.683  27.036  0.00  0.00    +0.111 A 
ENDBRANCH   4   3
ENDBRANCH  10   9
BRANCH  12  13
ATOM     13  N   UNL     1     120.451 111.808  33.970  0.00  0.00    -0.281 N 
ATOM     14  C   UNL     1     120.851 112.612  35.026  0.00  0.00    +0.248 C 
ATOM     30  O   UNL     1     121.682 113.503  34.940  0.00  0.00    -0.270 OA
ATOM     31  H   UNL     1     119.903 110.984  34.216  0.00  0.00    +0.155 HD
BRANCH  14  15
ATOM     15  C   UNL     1     120.250 112.382  36.375  0.00  0.00    +0.037 A 
ATOM     16  C   UNL     1     119.670 111.087  36.738  0.00  0.00    +0.013 A 
ATOM     17  C   UNL     1     119.081 110.898  38.040  0.00  0.00    +0.005 A 
ATOM     18  C   UNL     1     119.071 112.008  38.990  0.00  0.00    -0.033 A 
ATOM     28  C   UNL     1     119.658 113.281  38.605  0.00  0.00    +0.005 A 
ATOM     29  C   UNL     1     120.235 113.471  37.329  0.00  0.00    +0.013 A 
BRANCH  18  19
ATOM     19  C   UNL     1     118.446 111.903  40.393  0.00  0.00    +0.119 C 
BRANCH  19  20
ATOM     20  N   UNL     1     118.948 110.817  41.286  0.00  0.00    -0.302 NA
ATOM     21  C   UNL     1     118.020 110.579  42.481  0.00  0.00    +0.066 C 
ATOM     22  C   UNL     1     118.549 109.424  43.392  0.00  0.00    -0.064 C 
ATOM     23  N   UNL     1     119.965 109.759  43.864  0.00  0.00    +0.379 N 
ATOM     24  C   UNL     1     120.444 108.703  44.768  0.00  0.00    -0.096 C 
ATOM     25  H   UNL     1     119.911 110.706  44.450  0.00  0.00    -0.082 HD
ATOM     26  C   UNL     1     120.894 109.999  42.683  0.00  0.00    -0.064 C 
ATOM     27  C   UNL     1     120.344 111.129  41.768  0.00  0.00    +0.066 C 
ENDBRANCH  19  20
ENDBRANCH  18  19
ENDBRANCH  14  15
ENDBRANCH  12  13
TORSDOF 6
ENDMDL
