MODEL 1
REMARK VINA RESULT:     -10.6      0.000      0.000
REMARK  Name = C:\Users\Docking\Desktop\test protocol\1iep_ligandH.pdb
REMARK  8 active torsions:
REMARK  status: ('A' for Active; 'I' for Inactive)
REMARK    1  A    between atoms: _5  and  _11
REMARK    2  A    between atoms: _19  and  _21
REMARK    3  A    between atoms: _22  and  _66
REMARK    4  A    between atoms: _27  and  _30
REMARK    5  A    between atoms: _32  and  _33
REMARK    6  A    between atoms: _38  and  _43
REMARK    7  A    between atoms: _43  and  _46
REMARK    8  A    between atoms: _53  and  _55
REMARK                            x       y       z     vdW  Elec       q    Type
REMARK                         _______ _______ _______ _____ _____    ______ ____
ROOT
ATOM     10  C   UNL     1     122.445 111.960  31.580  0.00  0.00    +0.038 A 
ATOM     11  C   UNL     1     122.312 111.292  32.824  0.00  0.00    +0.047 A 
ATOM     12  C   UNL     1     121.058 111.317  33.560  0.00  0.00    +0.035 A 
ATOM     32  C   UNL     1     119.958 112.028  32.999  0.00  0.00    +0.024 A 
ATOM     33  C   UNL     1     120.076 112.713  31.736  0.00  0.00    +0.007 A 
ATOM     34  C   UNL     1     121.312 112.695  31.006  0.00  0.00    -0.029 A 
ATOM     35  C   UNL     1     121.383 113.452  29.659  0.00  0.00    +0.045 C 
ENDROOT
BRANCH  10   9
ATOM      4  C   UNL     1     125.672 109.706  28.833  0.00  0.00    +0.077 A 
ATOM      5  C   UNL     1     124.856 108.530  28.735  0.00  0.00    +0.048 A 
ATOM      6  C   UNL     1     123.616 108.543  29.413  0.00  0.00    +0.116 A 
ATOM      7  N   UNL     1     123.231 109.655  30.131  0.00  0.00    -0.223 NA
ATOM      8  C   UNL     1     124.043 110.772  30.206  0.00  0.00    +0.220 A 
ATOM      9  N   UNL     1     123.672 111.904  30.915  0.00  0.00    -0.283 N 
ATOM     36  H   UNL     1     124.303 112.704  30.952  0.00  0.00    +0.155 HD
ATOM     37  N   UNL     1     125.232 110.784  29.569  0.00  0.00    -0.214 NA
BRANCH   4   3
ATOM      1  C   UNL     1     129.241 108.939  27.427  0.00  0.00    +0.020 A 
ATOM      2  C   UNL     1     127.965 108.751  28.078  0.00  0.00    +0.013 A 
ATOM      3  C   UNL     1     127.007 109.846  28.170  0.00  0.00    +0.019 A 
ATOM     38  C   UNL     1     127.374 111.128  27.588  0.00  0.00    +0.120 A 
ATOM     39  N   UNL     1     128.611 111.280  26.969  0.00  0.00    -0.263 NA
ATOM     40  C   UNL     1     129.541 110.234  26.875  0.00  0.00    +0.111 A 
ENDBRANCH   4   3
ENDBRANCH  10   9
BRANCH  12  13
ATOM     13  N   UNL     1     120.866 110.664  34.832  0.00  0.00    -0.281 N 
ATOM     14  C   UNL     1     120.854 109.305  35.099  0.00  0.00    +0.248 C 
ATOM     30  O   UNL     1     120.793 108.434  34.244  0.00  0.00    -0.270 OA
ATOM     31  H   UNL     1     120.722 111.279  35.633  0.00  0.00    +0.155 HD
BRANCH  14  15
ATOM     15  C   UNL     1     120.901 108.847  36.521  0.00  0.00    +0.037 A 
ATOM     16  C   UNL     1     119.679 108.487  37.244  0.00  0.00    +0.013 A 
ATOM     17  C   UNL     1     119.751 108.065  38.621  0.00  0.00    +0.005 A 
ATOM     18  C   UNL     1     121.052 108.000  39.282  0.00  0.00    -0.033 A 
ATOM     28  C   UNL     1     122.249 108.359  38.540  0.00  0.00    +0.005 A 
ATOM     29  C   UNL     1     122.182 108.774  37.191  0.00  0.00    +0.013 A 
BRANCH  18  19
ATOM     19  C   UNL     1     121.221 107.582  40.755  0.00  0.00    +0.119 C 
BRANCH  19  20
ATOM     20  N   UNL     1     121.010 106.140  41.085  0.00  0.00    -0.302 NA
ATOM     21  C   UNL     1     121.437 105.220  39.938  0.00  0.00    +0.066 C 
ATOM     22  C   UNL     1     121.230 103.715  40.308  0.00  0.00    -0.064 C 
ATOM     23  N   UNL     1     119.764 103.480  40.674  0.00  0.00    +0.379 N 
ATOM     24  C   UNL     1     119.554 102.055  40.966  0.00  0.00    -0.096 C 
ATOM     25  H   UNL     1     119.148 103.736  39.781  0.00  0.00    -0.082 HD
ATOM     26  C   UNL     1     119.329 104.393  41.811  0.00  0.00    -0.064 C 
ATOM     27  C   UNL     1     119.567 105.885  41.444  0.00  0.00    +0.066 C 
ENDBRANCH  19  20
ENDBRANCH  18  19
ENDBRANCH  14  15
ENDBRANCH  12  13
TORSDOF 6
ENDMDL
MODEL 2
REMARK VINA RESULT:     -10.5      7.002     10.303
REMARK  Name = C:\Users\Docking\Desktop\test protocol\1iep_ligandH.pdb
REMARK  8 active torsions:
REMARK  status: ('A' for Active; 'I' for Inactive)
REMARK    1  A    between atoms: _5  and  _11
REMARK    2  A    between atoms: _19  and  _21
REMARK    3  A    between atoms: _22  and  _66
REMARK    4  A    between atoms: _27  and  _30
REMARK    5  A    between atoms: _32  and  _33
REMARK    6  A    between atoms: _38  and  _43
REMARK    7  A    between atoms: _43  and  _46
REMARK    8  A    between atoms: _53  and  _55
REMARK                            x       y       z     vdW  Elec       q    Type
REMARK                         _______ _______ _______ _____ _____    ______ ____
ROOT
ATOM     10  C   UNL     1     119.839 113.066  28.801  0.00  0.00    +0.038 A 
ATOM     11  C   UNL     1     118.572 112.678  29.308  0.00  0.00    +0.047 A 
ATOM     12  C   UNL     1     117.557 113.667  29.634  0.00  0.00    +0.035 A 
ATOM     32  C   UNL     1     117.864 115.044  29.427  0.00  0.00    +0.024 A 
ATOM     33  C   UNL     1     119.147 115.456  28.913  0.00  0.00    +0.007 A 
ATOM     34  C   UNL     1     120.153 114.485  28.593  0.00  0.00    -0.029 A 
ATOM     35  C   UNL     1     121.513 114.984  28.051  0.00  0.00    +0.045 C 
ENDROOT
BRANCH  10   9
ATOM      4  C   UNL     1     123.593 110.309  29.960  0.00  0.00    +0.077 A 
ATOM      5  C   UNL     1     123.713 110.916  31.254  0.00  0.00    +0.048 A 
ATOM      6  C   UNL     1     122.794 111.938  31.580  0.00  0.00    +0.116 A 
ATOM      7  N   UNL     1     121.830 112.317  30.672  0.00  0.00    -0.223 NA
ATOM      8  C   UNL     1     121.743 111.714  29.431  0.00  0.00    +0.220 A 
ATOM      9  N   UNL     1     120.776 112.074  28.505  0.00  0.00    -0.283 N 
ATOM     36  H   UNL     1     120.749 111.610  27.597  0.00  0.00    +0.155 HD
ATOM     37  N   UNL     1     122.610 110.736  29.095  0.00  0.00    -0.214 NA
BRANCH   4   3
ATOM      1  C   UNL     1     125.104 106.782  29.200  0.00  0.00    +0.020 A 
ATOM      2  C   UNL     1     124.207 107.801  29.695  0.00  0.00    +0.013 A 
ATOM      3  C   UNL     1     124.488 109.214  29.470  0.00  0.00    +0.019 A 
ATOM     38  C   UNL     1     125.694 109.564  28.735  0.00  0.00    +0.120 A 
ATOM     39  N   UNL     1     126.540 108.561  28.272  0.00  0.00    -0.263 NA
ATOM     40  C   UNL     1     126.281 107.199  28.483  0.00  0.00    +0.111 A 
ENDBRANCH   4   3
ENDBRANCH  10   9
BRANCH  12  13
ATOM     13  N   UNL     1     116.256 113.334  30.160  0.00  0.00    -0.281 N 
ATOM     14  C   UNL     1     115.902 113.118  31.481  0.00  0.00    +0.248 C 
ATOM     30  O   UNL     1     116.700 112.969  32.395  0.00  0.00    -0.270 OA
ATOM     31  H   UNL     1     115.506 113.246  29.474  0.00  0.00    +0.155 HD
BRANCH  14  15
ATOM     15  C   UNL     1     114.452 113.042  31.837  0.00  0.00    +0.037 A 
ATOM     16  C   UNL     1     113.859 111.804  32.349  0.00  0.00    +0.013 A 
ATOM     17  C   UNL     1     112.454 111.754  32.668  0.00  0.00    +0.005 A 
ATOM     18  C   UNL     1     111.633 112.947  32.478  0.00  0.00    -0.033 A 
ATOM     28  C   UNL     1     112.249 114.163  31.973  0.00  0.00    +0.005 A 
ATOM     29  C   UNL     1     113.625 114.216  31.658  0.00  0.00    +0.013 A 
BRANCH  18  19
ATOM     19  C   UNL     1     110.122 112.978  32.772  0.00  0.00    +0.119 C 
BRANCH  19  20
ATOM     20  N   UNL     1     109.283 113.900  31.949  0.00  0.00    -0.302 NA
ATOM     21  C   UNL     1     108.252 114.650  32.797  0.00  0.00    +0.066 C 
ATOM     22  C   UNL     1     107.399 115.626  31.923  0.00  0.00    -0.064 C 
ATOM     23  N   UNL     1     106.712 114.838  30.806  0.00  0.00    +0.379 N 
ATOM     24  C   UNL     1     105.863 115.744  30.018  0.00  0.00    -0.096 C 
ATOM     25  H   UNL     1     106.047 114.083  31.285  0.00  0.00    -0.082 HD
ATOM     26  C   UNL     1     107.730 114.087  29.960  0.00  0.00    -0.064 C 
ATOM     27  C   UNL     1     108.592 113.142  30.842  0.00  0.00    +0.066 C 
ENDBRANCH  19  20
ENDBRANCH  18  19
ENDBRANCH  14  15
ENDBRANCH  12  13
TORSDOF 6
ENDMDL
MODEL 3
REMARK VINA RESULT:     -10.2      3.788      5.752
REMARK  Name = C:\Users\Docking\Desktop\test protocol\1iep_ligandH.pdb
REMARK  8 active torsions:
REMARK  status: ('A' for Active; 'I' for Inactive)
REMARK    1  A    between atoms: _5  and  _11
REMARK    2  A    between atoms: _19  and  _21
REMARK    3  A    between atoms: _22  and  _66
REMARK    4  A    between atoms: _27  and  _30
REMARK    5  A    between atoms: _32  and  _33
REMARK    6  A    between atoms: _38  and  _43
REMARK    7  A    between atoms: _43  and  _46
REMARK    8  A    between atoms: _53  and  _55
REMARK                            x       y       z     vdW  Elec       q    Type
REMARK                         _______ _______ _______ _____ _____    ______ ____
ROOT
ATOM     10  C   UNL     1     122.570 105.943  31.110  0.00  0.00    +0.038 A 
ATOM     11  C   UNL     1     122.150 106.921  32.048  0.00  0.00    +0.047 A 
ATOM     12  C   UNL     1     120.858 106.825  32.709  0.00  0.00    +0.035 A 
ATOM     32  C   UNL     1     120.019 105.716  32.393  0.00  0.00    +0.024 A 
ATOM     33  C   UNL     1     120.429 104.713  31.442  0.00  0.00    +0.007 A 
ATOM     34  C   UNL     1     121.701 104.805  30.785  0.00  0.00    -0.029 A 
ATOM     35  C   UNL     1     122.087 103.704  29.769  0.00  0.00    +0.045 C 
ENDROOT
BRANCH  10   9
ATOM      4  C   UNL     1     125.899 108.545  28.834  0.00  0.00    +0.077 A 
ATOM      5  C   UNL     1     125.065 109.713  28.825  0.00  0.00    +0.048 A 
ATOM      6  C   UNL     1     123.784 109.600  29.410  0.00  0.00    +0.116 A 
ATOM      7  N   UNL     1     123.378 108.403  29.960  0.00  0.00    -0.223 NA
ATOM      8  C   UNL     1     124.206 107.296  29.951  0.00  0.00    +0.220 A 
ATOM      9  N   UNL     1     123.820 106.085  30.505  0.00  0.00    -0.283 N 
ATOM     36  H   UNL     1     124.457 105.290  30.471  0.00  0.00    +0.155 HD
ATOM     37  N   UNL     1     125.433 107.378  29.397  0.00  0.00    -0.214 NA
BRANCH   4   3
ATOM      1  C   UNL     1     129.425 107.318  27.667  0.00  0.00    +0.020 A 
ATOM      2  C   UNL     1     128.097 107.301  28.236  0.00  0.00    +0.013 A 
ATOM      3  C   UNL     1     127.280 108.507  28.257  0.00  0.00    +0.019 A 
ATOM     38  C   UNL     1     127.840 109.724  27.688  0.00  0.00    +0.120 A 
ATOM     39  N   UNL     1     129.122 109.711  27.148  0.00  0.00    -0.263 NA
ATOM     40  C   UNL     1     129.918 108.556  27.124  0.00  0.00    +0.111 A 
ENDBRANCH   4   3
ENDBRANCH  10   9
BRANCH  12  13
ATOM     13  N   UNL     1     120.375 107.792  33.663  0.00  0.00    -0.281 N 
ATOM     14  C   UNL     1     120.967 108.183  34.852  0.00  0.00    +0.248 C 
ATOM     30  O   UNL     1     121.902 107.602  35.383  0.00  0.00    -0.270 OA
ATOM     31  H   UNL     1     119.489 108.242  33.434  0.00  0.00    +0.155 HD
BRANCH  14  15
ATOM     15  C   UNL     1     120.435 109.386  35.562  0.00  0.00    +0.037 A 
ATOM     16  C   UNL     1     120.515 110.720  34.961  0.00  0.00    +0.013 A 
ATOM     17  C   UNL     1     120.009 111.866  35.675  0.00  0.00    +0.005 A 
ATOM     18  C   UNL     1     119.417 111.682  36.997  0.00  0.00    -0.033 A 
ATOM     28  C   UNL     1     119.345 110.347  37.567  0.00  0.00    +0.005 A 
ATOM     29  C   UNL     1     119.840 109.222  36.871  0.00  0.00    +0.013 A 
BRANCH  18  19
ATOM     19  C   UNL     1     118.871 112.851  37.839  0.00  0.00    +0.119 C 
BRANCH  19  20
ATOM     20  N   UNL     1     117.706 112.567  38.730  0.00  0.00    -0.302 NA
ATOM     21  C   UNL     1     116.385 112.543  37.957  0.00  0.00    +0.066 C 
ATOM     22  C   UNL     1     115.179 112.222  38.900  0.00  0.00    -0.064 C 
ATOM     23  N   UNL     1     115.129 113.254  40.028  0.00  0.00    +0.379 N 
ATOM     24  C   UNL     1     113.963 112.990  40.883  0.00  0.00    -0.096 C 
ATOM     25  H   UNL     1     114.987 114.257  39.562  0.00  0.00    -0.082 HD
ATOM     26  C   UNL     1     116.441 113.286  40.800  0.00  0.00    -0.064 C 
ATOM     27  C   UNL     1     117.635 113.577  39.848  0.00  0.00    +0.066 C 
ENDBRANCH  19  20
ENDBRANCH  18  19
ENDBRANCH  14  15
ENDBRANCH  12  13
TORSDOF 6
ENDMDL
MODEL 4
REMARK VINA RESULT:      -9.3      9.709     15.236
REMARK  Name = C:\Users\Docking\Desktop\test protocol\1iep_ligandH.pdb
REMARK  8 active torsions:
REMARK  status: ('A' for Active; 'I' for Inactive)
REMARK    1  A    between atoms: _5  and  _11
REMARK    2  A    between atoms: _19  and  _21
REMARK    3  A    between atoms: _22  and  _66
REMARK    4  A    between atoms: _27  and  _30
REMARK    5  A    between atoms: _32  and  _33
REMARK    6  A    between atoms: _38  and  _43
REMARK    7  A    between atoms: _43  and  _46
REMARK    8  A    between atoms: _53  and  _55
REMARK                            x       y       z     vdW  Elec       q    Type
REMARK                         _______ _______ _______ _____ _____    ______ ____
ROOT
ATOM     10  C   UNL     1     110.740 113.233  32.044  0.00  0.00    +0.038 A 
ATOM     11  C   UNL     1     112.093 113.283  31.622  0.00  0.00    +0.047 A 
ATOM     12  C   UNL     1     113.058 112.290  32.069  0.00  0.00    +0.035 A 
ATOM     32  C   UNL     1     112.609 111.258  32.943  0.00  0.00    +0.024 A 
ATOM     33  C   UNL     1     111.237 111.193  33.383  0.00  0.00    +0.007 A 
ATOM     34  C   UNL     1     110.282 112.171  32.947  0.00  0.00    -0.029 A 
ATOM     35  C   UNL     1     108.826 112.055  33.456  0.00  0.00    +0.045 C 
ENDROOT
BRANCH  10   9
ATOM      4  C   UNL     1     107.108 114.688  29.263  0.00  0.00    +0.077 A 
ATOM      5  C   UNL     1     106.977 113.395  28.656  0.00  0.00    +0.048 A 
ATOM      6  C   UNL     1     107.869 112.385  29.082  0.00  0.00    +0.116 A 
ATOM      7  N   UNL     1     108.816 112.658  30.045  0.00  0.00    -0.223 NA
ATOM      8  C   UNL     1     108.916 113.917  30.609  0.00  0.00    +0.220 A 
ATOM      9  N   UNL     1     109.856 114.212  31.584  0.00  0.00    -0.283 N 
ATOM     36  H   UNL     1     109.903 115.155  31.970  0.00  0.00    +0.155 HD
ATOM     37  N   UNL     1     108.078 114.899  30.218  0.00  0.00    -0.214 NA
BRANCH   4   3
ATOM      1  C   UNL     1     104.256 116.907  27.766  0.00  0.00    +0.020 A 
ATOM      2  C   UNL     1     105.064 115.747  28.065  0.00  0.00    +0.013 A 
ATOM      3  C   UNL     1     106.238 115.857  28.921  0.00  0.00    +0.019 A 
ATOM     38  C   UNL     1     106.569 117.165  29.465  0.00  0.00    +0.120 A 
ATOM     39  N   UNL     1     105.774 118.265  29.158  0.00  0.00    -0.263 NA
ATOM     40  C   UNL     1     104.643 118.172  28.333  0.00  0.00    +0.111 A 
ENDBRANCH   4   3
ENDBRANCH  10   9
BRANCH  12  13
ATOM     13  N   UNL     1     114.446 112.295  31.681  0.00  0.00    -0.281 N 
ATOM     14  C   UNL     1     115.375 113.309  31.851  0.00  0.00    +0.248 C 
ATOM     30  O   UNL     1     115.096 114.454  32.173  0.00  0.00    -0.270 OA
ATOM     31  H   UNL     1     114.786 111.448  31.225  0.00  0.00    +0.155 HD
BRANCH  14  15
ATOM     15  C   UNL     1     116.820 113.011  31.615  0.00  0.00    +0.037 A 
ATOM     16  C   UNL     1     117.281 112.434  30.350  0.00  0.00    +0.013 A 
ATOM     17  C   UNL     1     118.679 112.140  30.155  0.00  0.00    +0.005 A 
ATOM     18  C   UNL     1     119.627 112.426  31.229  0.00  0.00    -0.033 A 
ATOM     28  C   UNL     1     119.144 113.004  32.472  0.00  0.00    +0.005 A 
ATOM     29  C   UNL     1     117.774 113.292  32.667  0.00  0.00    +0.013 A 
BRANCH  18  19
ATOM     19  C   UNL     1     121.133 112.126  31.116  0.00  0.00    +0.119 C 
BRANCH  19  20
ATOM     20  N   UNL     1     121.813 112.507  29.842  0.00  0.00    -0.302 NA
ATOM     21  C   UNL     1     123.311 112.189  29.872  0.00  0.00    +0.066 C 
ATOM     22  C   UNL     1     124.002 112.573  28.524  0.00  0.00    -0.064 C 
ATOM     23  N   UNL     1     123.769 114.058  28.240  0.00  0.00    +0.379 N 
ATOM     24  C   UNL     1     124.466 114.436  27.002  0.00  0.00    -0.096 C 
ATOM     25  H   UNL     1     124.226 114.637  29.075  0.00  0.00    -0.082 HD
ATOM     26  C   UNL     1     122.283 114.384  28.210  0.00  0.00    -0.064 C 
ATOM     27  C   UNL     1     121.600 113.971  29.544  0.00  0.00    +0.066 C 
ENDBRANCH  19  20
ENDBRANCH  18  19
ENDBRANCH  14  15
ENDBRANCH  12  13
TORSDOF 6
ENDMDL
MODEL 5
REMARK VINA RESULT:      -9.3      4.156      5.569
REMARK  Name = C:\Users\Docking\Desktop\test protocol\1iep_ligandH.pdb
REMARK  8 active torsions:
REMARK  status: ('A' for Active; 'I' for Inactive)
REMARK    1  A    between atoms: _5  and  _11
REMARK    2  A    between atoms: _19  and  _21
REMARK    3  A    between atoms: _22  and  _66
REMARK    4  A    between atoms: _27  and  _30
REMARK    5  A    between atoms: _32  and  _33
REMARK    6  A    between atoms: _38  and  _43
REMARK    7  A    between atoms: _43  and  _46
REMARK    8  A    between atoms: _53  and  _55
REMARK                            x       y       z     vdW  Elec       q    Type
REMARK                         _______ _______ _______ _____ _____    ______ ____
ROOT
ATOM     10  C   UNL     1     117.568 114.692  30.405  0.00  0.00    +0.038 A 
ATOM     11  C   UNL     1     117.895 114.052  31.628  0.00  0.00    +0.047 A 
ATOM     12  C   UNL     1     116.859 113.550  32.516  0.00  0.00    +0.035 A 
ATOM     32  C   UNL     1     115.497 113.716  32.127  0.00  0.00    +0.024 A 
ATOM     33  C   UNL     1     115.146 114.365  30.889  0.00  0.00    +0.007 A 
ATOM     34  C   UNL     1     116.165 114.864  30.009  0.00  0.00    -0.029 A 
ATOM     35  C   UNL     1     115.730 115.558  28.697  0.00  0.00    +0.045 C 
ENDROOT
BRANCH  10   9
ATOM      4  C   UNL     1     121.550 113.996  27.818  0.00  0.00    +0.077 A 
ATOM      5  C   UNL     1     121.585 112.598  28.139  0.00  0.00    +0.048 A 
ATOM      6  C   UNL     1     120.564 112.099  28.979  0.00  0.00    +0.116 A 
ATOM      7  N   UNL     1     119.586 112.944  29.456  0.00  0.00    -0.223 NA
ATOM      8  C   UNL     1     119.582 114.288  29.128  0.00  0.00    +0.220 A 
ATOM      9  N   UNL     1     118.604 115.154  29.591  0.00  0.00    -0.283 N 
ATOM     36  H   UNL     1     118.640 116.140  29.333  0.00  0.00    +0.155 HD
ATOM     37  N   UNL     1     120.547 114.789  28.330  0.00  0.00    -0.214 NA
BRANCH   4   3
ATOM      1  C   UNL     1     123.334 116.582  25.488  0.00  0.00    +0.020 A 
ATOM      2  C   UNL     1     122.328 115.974  26.327  0.00  0.00    +0.013 A 
ATOM      3  C   UNL     1     122.557 114.671  26.940  0.00  0.00    +0.019 A 
ATOM     38  C   UNL     1     123.826 114.007  26.683  0.00  0.00    +0.120 A 
ATOM     39  N   UNL     1     124.776 114.617  25.869  0.00  0.00    -0.263 NA
ATOM     40  C   UNL     1     124.565 115.869  25.272  0.00  0.00    +0.111 A 
ENDBRANCH   4   3
ENDBRANCH  10   9
BRANCH  12  13
ATOM     13  N   UNL     1     117.131 112.899  33.773  0.00  0.00    -0.281 N 
ATOM     14  C   UNL     1     117.054 113.439  35.047  0.00  0.00    +0.248 C 
ATOM     30  O   UNL     1     116.945 114.633  35.286  0.00  0.00    -0.270 OA
ATOM     31  H   UNL     1     117.414 111.921  33.718  0.00  0.00    +0.155 HD
BRANCH  14  15
ATOM     15  C   UNL     1     117.122 112.523  36.225  0.00  0.00    +0.037 A 
ATOM     16  C   UNL     1     118.385 112.280  36.927  0.00  0.00    +0.013 A 
ATOM     17  C   UNL     1     118.427 111.378  38.051  0.00  0.00    +0.005 A 
ATOM     18  C   UNL     1     117.199 110.712  38.480  0.00  0.00    -0.033 A 
ATOM     28  C   UNL     1     115.959 110.975  37.769  0.00  0.00    +0.005 A 
ATOM     29  C   UNL     1     115.915 111.858  36.667  0.00  0.00    +0.013 A 
BRANCH  18  19
ATOM     19  C   UNL     1     117.155 109.718  39.656  0.00  0.00    +0.119 C 
BRANCH  19  20
ATOM     20  N   UNL     1     118.228 108.681  39.715  0.00  0.00    -0.302 NA
ATOM     21  C   UNL     1     118.198 107.753  38.498  0.00  0.00    +0.066 C 
ATOM     22  C   UNL     1     119.341 106.688  38.566  0.00  0.00    -0.064 C 
ATOM     23  N   UNL     1     119.211 105.886  39.862  0.00  0.00    +0.379 N 
ATOM     24  C   UNL     1     120.250 104.847  39.901  0.00  0.00    -0.096 C 
ATOM     25  H   UNL     1     118.221 105.375  39.845  0.00  0.00    -0.082 HD
ATOM     26  C   UNL     1     119.238 106.802  41.077  0.00  0.00    -0.064 C 
ATOM     27  C   UNL     1     118.116 107.875  40.986  0.00  0.00    +0.066 C 
ENDBRANCH  19  20
ENDBRANCH  18  19
ENDBRANCH  14  15
ENDBRANCH  12  13
TORSDOF 6
ENDMDL
