MODEL 1
REMARK VINA RESULT:      -8.5      0.000      0.000
REMARK  Name = C:\Users\Docking\Desktop\test protocol\1iep_ligandH.pdb
REMARK  8 active torsions:
REMARK  status: ('A' for Active; 'I' for Inactive)
REMARK    1  A    between atoms: _5  and  _11
REMARK    2  A    between atoms: _19  and  _21
REMARK    3  A    between atoms: _22  and  _66
REMARK    4  A    between atoms: _27  and  _30
REMARK    5  A    between atoms: _32  and  _33
REMARK    6  A    between atoms: _38  and  _43
REMARK    7  A    between atoms: _43  and  _46
REMARK    8  A    between atoms: _53  and  _55
REMARK                            x       y       z     vdW  Elec       q    Type
REMARK                         _______ _______ _______ _____ _____    ______ ____
ROOT
ATOM     10  C   UNL     1      11.255 -15.591  44.022  0.00  0.00    +0.038 A 
ATOM     11  C   UNL     1      11.568 -15.534  45.404  0.00  0.00    +0.047 A 
ATOM     12  C   UNL     1      10.784 -14.720  46.320  0.00  0.00    +0.035 A 
ATOM     32  C   UNL     1       9.687 -13.978  45.794  0.00  0.00    +0.024 A 
ATOM     33  C   UNL     1       9.356 -14.023  44.391  0.00  0.00    +0.007 A 
ATOM     34  C   UNL     1      10.127 -14.823  43.483  0.00  0.00    -0.029 A 
ATOM     35  C   UNL     1       9.730 -14.828  41.988  0.00  0.00    +0.045 C 
ENDROOT
BRANCH  10   9
ATOM      4  C   UNL     1      14.993 -16.246  41.083  0.00  0.00    +0.077 A 
ATOM      5  C   UNL     1      15.399 -14.875  41.197  0.00  0.00    +0.048 A 
ATOM      6  C   UNL     1      14.615 -14.032  42.017  0.00  0.00    +0.116 A 
ATOM      7  N   UNL     1      13.509 -14.534  42.669  0.00  0.00    -0.223 NA
ATOM      8  C   UNL     1      13.144 -15.861  42.535  0.00  0.00    +0.220 A 
ATOM      9  N   UNL     1      12.041 -16.390  43.188  0.00  0.00    -0.283 N 
ATOM     36  H   UNL     1      11.801 -17.372  43.058  0.00  0.00    +0.155 HD
ATOM     37  N   UNL     1      13.876 -16.686  41.757  0.00  0.00    -0.214 NA
BRANCH   4   3
ATOM      1  C   UNL     1      17.171 -19.309  39.998  0.00  0.00    +0.020 A 
ATOM      2  C   UNL     1      16.486 -18.355  40.840  0.00  0.00    +0.013 A 
ATOM      3  C   UNL     1      15.721 -17.260  40.257  0.00  0.00    +0.019 A 
ATOM     38  C   UNL     1      15.668 -17.158  38.806  0.00  0.00    +0.120 A 
ATOM     39  N   UNL     1      16.338 -18.090  38.021  0.00  0.00    -0.263 NA
ATOM     40  C   UNL     1      17.079 -19.147  38.571  0.00  0.00    +0.111 A 
ENDBRANCH   4   3
ENDBRANCH  10   9
BRANCH  12  13
ATOM     13  N   UNL     1      11.059 -14.617  47.732  0.00  0.00    -0.281 N 
ATOM     14  C   UNL     1      10.516 -15.367  48.762  0.00  0.00    +0.248 C 
ATOM     30  O   UNL     1       9.547 -16.102  48.645  0.00  0.00    -0.270 OA
ATOM     31  H   UNL     1      11.735 -13.904  48.005  0.00  0.00    +0.155 HD
BRANCH  14  15
ATOM     15  C   UNL     1      11.130 -15.278  50.122  0.00  0.00    +0.037 A 
ATOM     16  C   UNL     1      10.445 -15.812  51.302  0.00  0.00    +0.013 A 
ATOM     17  C   UNL     1      11.052 -15.697  52.604  0.00  0.00    +0.005 A 
ATOM     18  C   UNL     1      12.353 -15.045  52.733  0.00  0.00    -0.033 A 
ATOM     28  C   UNL     1      13.012 -14.528  51.545  0.00  0.00    +0.005 A 
ATOM     29  C   UNL     1      12.420 -14.638  50.267  0.00  0.00    +0.013 A 
BRANCH  18  19
ATOM     19  C   UNL     1      13.065 -14.859  54.086  0.00  0.00    +0.119 C 
BRANCH  19  20
ATOM     20  N   UNL     1      14.304 -15.658  54.322  0.00  0.00    -0.302 NA
ATOM     21  C   UNL     1      14.443 -16.084  55.786  0.00  0.00    +0.066 C 
ATOM     22  C   UNL     1      15.734 -16.938  56.010  0.00  0.00    -0.064 C 
ATOM     23  N   UNL     1      16.957 -16.137  55.561  0.00  0.00    +0.379 N 
ATOM     24  C   UNL     1      18.176 -16.914  55.825  0.00  0.00    -0.096 C 
ATOM     25  H   UNL     1      17.003 -15.213  56.184  0.00  0.00    -0.082 HD
ATOM     26  C   UNL     1      16.826 -15.706  54.107  0.00  0.00    -0.064 C 
ATOM     27  C   UNL     1      15.525 -14.884  53.889  0.00  0.00    +0.066 C 
ENDBRANCH  19  20
ENDBRANCH  18  19
ENDBRANCH  14  15
ENDBRANCH  12  13
TORSDOF 6
ENDMDL
MODEL 2
REMARK VINA RESULT:      -7.6     10.836     17.353
REMARK  Name = C:\Users\Docking\Desktop\test protocol\1iep_ligandH.pdb
REMARK  8 active torsions:
REMARK  status: ('A' for Active; 'I' for Inactive)
REMARK    1  A    between atoms: _5  and  _11
REMARK    2  A    between atoms: _19  and  _21
REMARK    3  A    between atoms: _22  and  _66
REMARK    4  A    between atoms: _27  and  _30
REMARK    5  A    between atoms: _32  and  _33
REMARK    6  A    between atoms: _38  and  _43
REMARK    7  A    between atoms: _43  and  _46
REMARK    8  A    between atoms: _53  and  _55
REMARK                            x       y       z     vdW  Elec       q    Type
REMARK                         _______ _______ _______ _____ _____    ______ ____
ROOT
ATOM     10  C   UNL     1      22.534 -14.570  29.598  0.00  0.00    +0.038 A 
ATOM     11  C   UNL     1      21.726 -14.741  30.751  0.00  0.00    +0.047 A 
ATOM     12  C   UNL     1      22.265 -15.329  31.968  0.00  0.00    +0.035 A 
ATOM     32  C   UNL     1      23.633 -15.728  31.976  0.00  0.00    +0.024 A 
ATOM     33  C   UNL     1      24.469 -15.563  30.812  0.00  0.00    +0.007 A 
ATOM     34  C   UNL     1      23.941 -14.986  29.609  0.00  0.00    -0.029 A 
ATOM     35  C   UNL     1      24.881 -14.838  28.389  0.00  0.00    +0.045 C 
ENDROOT
BRANCH  10   9
ATOM      4  C   UNL     1      20.478 -14.909  25.274  0.00  0.00    +0.077 A 
ATOM      5  C   UNL     1      20.571 -16.341  25.277  0.00  0.00    +0.048 A 
ATOM      6  C   UNL     1      21.161 -16.951  26.406  0.00  0.00    +0.116 A 
ATOM      7  N   UNL     1      21.620 -16.177  27.450  0.00  0.00    -0.223 NA
ATOM      8  C   UNL     1      21.516 -14.798  27.415  0.00  0.00    +0.220 A 
ATOM      9  N   UNL     1      21.964 -14.001  28.457  0.00  0.00    -0.283 N 
ATOM     36  H   UNL     1      21.876 -12.987  28.390  0.00  0.00    +0.155 HD
ATOM     37  N   UNL     1      20.958 -14.192  26.347  0.00  0.00    -0.214 NA
BRANCH   4   3
ATOM      1  C   UNL     1      19.439 -11.960  22.924  0.00  0.00    +0.020 A 
ATOM      2  C   UNL     1      20.039 -12.676  24.025  0.00  0.00    +0.013 A 
ATOM      3  C   UNL     1      19.877 -14.119  24.154  0.00  0.00    +0.019 A 
ATOM     38  C   UNL     1      19.094 -14.813  23.142  0.00  0.00    +0.120 A 
ATOM     39  N   UNL     1      18.526 -14.097  22.093  0.00  0.00    -0.263 NA
ATOM     40  C   UNL     1      18.675 -12.708  21.960  0.00  0.00    +0.111 A 
ENDBRANCH   4   3
ENDBRANCH  10   9
BRANCH  12  13
ATOM     13  N   UNL     1      21.491 -15.535  33.166  0.00  0.00    -0.281 N 
ATOM     14  C   UNL     1      21.205 -16.733  33.800  0.00  0.00    +0.248 C 
ATOM     30  O   UNL     1      21.394 -17.837  33.310  0.00  0.00    -0.270 OA
ATOM     31  H   UNL     1      21.107 -14.696  33.601  0.00  0.00    +0.155 HD
BRANCH  14  15
ATOM     15  C   UNL     1      20.609 -16.701  35.170  0.00  0.00    +0.037 A 
ATOM     16  C   UNL     1      19.433 -15.880  35.468  0.00  0.00    +0.013 A 
ATOM     17  C   UNL     1      18.888 -15.854  36.803  0.00  0.00    +0.005 A 
ATOM     18  C   UNL     1      19.519 -16.655  37.849  0.00  0.00    -0.033 A 
ATOM     28  C   UNL     1      20.682 -17.464  37.525  0.00  0.00    +0.005 A 
ATOM     29  C   UNL     1      21.219 -17.491  36.218  0.00  0.00    +0.013 A 
BRANCH  18  19
ATOM     19  C   UNL     1      19.018 -16.671  39.306  0.00  0.00    +0.119 C 
BRANCH  19  20
ATOM     20  N   UNL     1      17.627 -17.158  39.545  0.00  0.00    -0.302 NA
ATOM     21  C   UNL     1      17.031 -16.585  40.834  0.00  0.00    +0.066 C 
ATOM     22  C   UNL     1      15.567 -17.087  41.057  0.00  0.00    -0.064 C 
ATOM     23  N   UNL     1      15.555 -18.616  41.087  0.00  0.00    +0.379 N 
ATOM     24  C   UNL     1      14.189 -19.090  41.355  0.00  0.00    -0.096 C 
ATOM     25  H   UNL     1      16.198 -18.942  41.937  0.00  0.00    -0.082 HD
ATOM     26  C   UNL     1      16.148 -19.194  39.810  0.00  0.00    -0.064 C 
ATOM     27  C   UNL     1      17.592 -18.666  39.583  0.00  0.00    +0.066 C 
ENDBRANCH  19  20
ENDBRANCH  18  19
ENDBRANCH  14  15
ENDBRANCH  12  13
TORSDOF 6
ENDMDL
MODEL 3
REMARK VINA RESULT:      -7.5      7.419     16.440
REMARK  Name = C:\Users\Docking\Desktop\test protocol\1iep_ligandH.pdb
REMARK  8 active torsions:
REMARK  status: ('A' for Active; 'I' for Inactive)
REMARK    1  A    between atoms: _5  and  _11
REMARK    2  A    between atoms: _19  and  _21
REMARK    3  A    between atoms: _22  and  _66
REMARK    4  A    between atoms: _27  and  _30
REMARK    5  A    between atoms: _32  and  _33
REMARK    6  A    between atoms: _38  and  _43
REMARK    7  A    between atoms: _43  and  _46
REMARK    8  A    between atoms: _53  and  _55
REMARK                            x       y       z     vdW  Elec       q    Type
REMARK                         _______ _______ _______ _____ _____    ______ ____
ROOT
ATOM     10  C   UNL     1      16.456 -19.392  39.222  0.00  0.00    +0.038 A 
ATOM     11  C   UNL     1      17.099 -18.704  38.161  0.00  0.00    +0.047 A 
ATOM     12  C   UNL     1      18.309 -19.230  37.547  0.00  0.00    +0.035 A 
ATOM     32  C   UNL     1      18.835 -20.461  38.037  0.00  0.00    +0.024 A 
ATOM     33  C   UNL     1      18.194 -21.173  39.115  0.00  0.00    +0.007 A 
ATOM     34  C   UNL     1      17.002 -20.658  39.726  0.00  0.00    -0.029 A 
ATOM     35  C   UNL     1      16.362 -21.460  40.883  0.00  0.00    +0.045 C 
ENDROOT
BRANCH  10   9
ATOM      4  C   UNL     1      14.185 -16.122  41.902  0.00  0.00    +0.077 A 
ATOM      5  C   UNL     1      15.414 -15.470  42.254  0.00  0.00    +0.048 A 
ATOM      6  C   UNL     1      16.609 -16.012  41.729  0.00  0.00    +0.116 A 
ATOM      7  N   UNL     1      16.566 -17.123  40.915  0.00  0.00    -0.223 NA
ATOM      8  C   UNL     1      15.364 -17.728  40.597  0.00  0.00    +0.220 A 
ATOM      9  N   UNL     1      15.297 -18.842  39.774  0.00  0.00    -0.283 N 
ATOM     36  H   UNL     1      14.391 -19.264  39.569  0.00  0.00    +0.155 HD
ATOM     37  N   UNL     1      14.209 -17.231  41.086  0.00  0.00    -0.214 NA
BRANCH   4   3
ATOM      1  C   UNL     1      11.319 -14.036  43.556  0.00  0.00    +0.020 A 
ATOM      2  C   UNL     1      12.639 -14.432  43.124  0.00  0.00    +0.013 A 
ATOM      3  C   UNL     1      12.840 -15.666  42.374  0.00  0.00    +0.019 A 
ATOM     38  C   UNL     1      11.673 -16.483  42.076  0.00  0.00    +0.120 A 
ATOM     39  N   UNL     1      10.414 -16.078  42.507  0.00  0.00    -0.263 NA
ATOM     40  C   UNL     1      10.209 -14.893  43.230  0.00  0.00    +0.111 A 
ENDBRANCH   4   3
ENDBRANCH  10   9
BRANCH  12  13
ATOM     13  N   UNL     1      19.010 -18.572  36.473  0.00  0.00    -0.281 N 
ATOM     14  C   UNL     1      19.970 -17.577  36.566  0.00  0.00    +0.248 C 
ATOM     30  O   UNL     1      20.218 -16.949  37.584  0.00  0.00    -0.270 OA
ATOM     31  H   UNL     1      18.769 -18.876  35.529  0.00  0.00    +0.155 HD
BRANCH  14  15
ATOM     15  C   UNL     1      20.758 -17.219  35.347  0.00  0.00    +0.037 A 
ATOM     16  C   UNL     1      20.930 -18.170  34.246  0.00  0.00    +0.013 A 
ATOM     17  C   UNL     1      21.709 -17.804  33.090  0.00  0.00    +0.005 A 
ATOM     18  C   UNL     1      22.322 -16.479  33.029  0.00  0.00    -0.033 A 
ATOM     28  C   UNL     1      22.130 -15.553  34.133  0.00  0.00    +0.005 A 
ATOM     29  C   UNL     1      21.368 -15.909  35.268  0.00  0.00    +0.013 A 
BRANCH  18  19
ATOM     19  C   UNL     1      23.187 -16.012  31.844  0.00  0.00    +0.119 C 
BRANCH  19  20
ATOM     20  N   UNL     1      22.499 -15.269  30.746  0.00  0.00    -0.302 NA
ATOM     21  C   UNL     1      22.061 -16.198  29.610  0.00  0.00    +0.066 C 
ATOM     22  C   UNL     1      21.324 -15.408  28.481  0.00  0.00    -0.064 C 
ATOM     23  N   UNL     1      22.240 -14.303  27.953  0.00  0.00    +0.379 N 
ATOM     24  C   UNL     1      21.571 -13.595  26.852  0.00  0.00    -0.096 C 
ATOM     25  H   UNL     1      23.153 -14.790  27.538  0.00  0.00    -0.082 HD
ATOM     26  C   UNL     1      22.683 -13.376  29.077  0.00  0.00    -0.064 C 
ATOM     27  C   UNL     1      23.388 -14.175  30.207  0.00  0.00    +0.066 C 
ENDBRANCH  19  20
ENDBRANCH  18  19
ENDBRANCH  14  15
ENDBRANCH  12  13
TORSDOF 6
ENDMDL
MODEL 4
REMARK VINA RESULT:      -7.4     19.906     26.371
REMARK  Name = C:\Users\Docking\Desktop\test protocol\1iep_ligandH.pdb
REMARK  8 active torsions:
REMARK  status: ('A' for Active; 'I' for Inactive)
REMARK    1  A    between atoms: _5  and  _11
REMARK    2  A    between atoms: _19  and  _21
REMARK    3  A    between atoms: _22  and  _66
REMARK    4  A    between atoms: _27  and  _30
REMARK    5  A    between atoms: _32  and  _33
REMARK    6  A    between atoms: _38  and  _43
REMARK    7  A    between atoms: _43  and  _46
REMARK    8  A    between atoms: _53  and  _55
REMARK                            x       y       z     vdW  Elec       q    Type
REMARK                         _______ _______ _______ _____ _____    ______ ____
ROOT
ATOM     10  C   UNL     1      -3.445  -4.849  64.942  0.00  0.00    +0.038 A 
ATOM     11  C   UNL     1      -3.157  -5.105  63.577  0.00  0.00    +0.047 A 
ATOM     12  C   UNL     1      -4.015  -4.597  62.518  0.00  0.00    +0.035 A 
ATOM     32  C   UNL     1      -5.157  -3.828  62.886  0.00  0.00    +0.024 A 
ATOM     33  C   UNL     1      -5.466  -3.558  64.268  0.00  0.00    +0.007 A 
ATOM     34  C   UNL     1      -4.624  -4.059  65.317  0.00  0.00    -0.029 A 
ATOM     35  C   UNL     1      -5.007  -3.745  66.782  0.00  0.00    +0.045 C 
ENDROOT
BRANCH  10   9
ATOM      4  C   UNL     1      -2.091  -8.288  68.004  0.00  0.00    +0.077 A 
ATOM      5  C   UNL     1      -3.203  -9.123  67.649  0.00  0.00    +0.048 A 
ATOM      6  C   UNL     1      -4.104  -8.628  66.680  0.00  0.00    +0.116 A 
ATOM      7  N   UNL     1      -3.898  -7.388  66.114  0.00  0.00    -0.223 NA
ATOM      8  C   UNL     1      -2.817  -6.608  66.479  0.00  0.00    +0.220 A 
ATOM      9  N   UNL     1      -2.587  -5.362  65.917  0.00  0.00    -0.283 N 
ATOM     36  H   UNL     1      -1.782  -4.813  66.219  0.00  0.00    +0.155 HD
ATOM     37  N   UNL     1      -1.943  -7.058  67.404  0.00  0.00    -0.214 NA
BRANCH   4   3
ATOM      1  C   UNL     1       0.038  -8.502  71.278  0.00  0.00    +0.020 A 
ATOM      2  C   UNL     1      -0.987  -8.094  70.345  0.00  0.00    +0.013 A 
ATOM      3  C   UNL     1      -1.051  -8.674  69.009  0.00  0.00    +0.019 A 
ATOM     38  C   UNL     1      -0.056  -9.672  68.647  0.00  0.00    +0.120 A 
ATOM     39  N   UNL     1       0.919 -10.044  69.566  0.00  0.00    -0.263 NA
ATOM     40  C   UNL     1       0.992  -9.492  70.854  0.00  0.00    +0.111 A 
ENDBRANCH   4   3
ENDBRANCH  10   9
BRANCH  12  13
ATOM     13  N   UNL     1      -3.778  -4.832  61.116  0.00  0.00    -0.281 N 
ATOM     14  C   UNL     1      -3.409  -3.912  60.148  0.00  0.00    +0.248 C 
ATOM     30  O   UNL     1      -3.435  -2.700  60.302  0.00  0.00    -0.270 OA
ATOM     31  H   UNL     1      -3.896  -5.794  60.797  0.00  0.00    +0.155 HD
BRANCH  14  15
ATOM     15  C   UNL     1      -2.960  -4.409  58.812  0.00  0.00    +0.037 A 
ATOM     16  C   UNL     1      -1.736  -5.201  58.669  0.00  0.00    +0.013 A 
ATOM     17  C   UNL     1      -1.316  -5.654  57.366  0.00  0.00    +0.005 A 
ATOM     18  C   UNL     1      -2.123  -5.317  56.196  0.00  0.00    -0.033 A 
ATOM     28  C   UNL     1      -3.336  -4.534  56.368  0.00  0.00    +0.005 A 
ATOM     29  C   UNL     1      -3.750  -4.087  57.643  0.00  0.00    +0.013 A 
BRANCH  18  19
ATOM     19  C   UNL     1      -1.741  -5.740  54.765  0.00  0.00    +0.119 C 
BRANCH  19  20
ATOM     20  N   UNL     1      -0.689  -6.790  54.621  0.00  0.00    -0.302 NA
ATOM     21  C   UNL     1       0.309  -6.455  53.509  0.00  0.00    +0.066 C 
ATOM     22  C   UNL     1       1.415  -7.554  53.387  0.00  0.00    -0.064 C 
ATOM     23  N   UNL     1       0.756  -8.911  53.133  0.00  0.00    +0.379 N 
ATOM     24  C   UNL     1       1.796  -9.936  52.961  0.00  0.00    -0.096 C 
ATOM     25  H   UNL     1       0.190  -8.838  52.176  0.00  0.00    -0.082 HD
ATOM     26  C   UNL     1      -0.240  -9.250  54.233  0.00  0.00    -0.064 C 
ATOM     27  C   UNL     1      -1.317  -8.138  54.366  0.00  0.00    +0.066 C 
ENDBRANCH  19  20
ENDBRANCH  18  19
ENDBRANCH  14  15
ENDBRANCH  12  13
TORSDOF 6
ENDMDL
MODEL 5
REMARK VINA RESULT:      -7.1     30.179     32.279
REMARK  Name = C:\Users\Docking\Desktop\test protocol\1iep_ligandH.pdb
REMARK  8 active torsions:
REMARK  status: ('A' for Active; 'I' for Inactive)
REMARK    1  A    between atoms: _5  and  _11
REMARK    2  A    between atoms: _19  and  _21
REMARK    3  A    between atoms: _22  and  _66
REMARK    4  A    between atoms: _27  and  _30
REMARK    5  A    between atoms: _32  and  _33
REMARK    6  A    between atoms: _38  and  _43
REMARK    7  A    between atoms: _43  and  _46
REMARK    8  A    between atoms: _53  and  _55
REMARK                            x       y       z     vdW  Elec       q    Type
REMARK                         _______ _______ _______ _____ _____    ______ ____
ROOT
ATOM     10  C   UNL     1      17.754  13.379  42.405  0.00  0.00    +0.038 A 
ATOM     11  C   UNL     1      19.145  13.156  42.239  0.00  0.00    +0.047 A 
ATOM     12  C   UNL     1      20.010  12.917  43.383  0.00  0.00    +0.035 A 
ATOM     32  C   UNL     1      19.425  12.909  44.683  0.00  0.00    +0.024 A 
ATOM     33  C   UNL     1      18.014  13.135  44.870  0.00  0.00    +0.007 A 
ATOM     34  C   UNL     1      17.155  13.374  43.745  0.00  0.00    -0.029 A 
ATOM     35  C   UNL     1      15.650  13.616  44.006  0.00  0.00    +0.045 C 
ENDROOT
BRANCH  10   9
ATOM      4  C   UNL     1      15.920  16.256  39.030  0.00  0.00    +0.077 A 
ATOM      5  C   UNL     1      16.556  17.415  39.587  0.00  0.00    +0.048 A 
ATOM      6  C   UNL     1      17.341  17.229  40.747  0.00  0.00    +0.116 A 
ATOM      7  N   UNL     1      17.473  15.973  41.299  0.00  0.00    -0.223 NA
ATOM      8  C   UNL     1      16.845  14.877  40.738  0.00  0.00    +0.220 A 
ATOM      9  N   UNL     1      16.970  13.604  41.272  0.00  0.00    -0.283 N 
ATOM     36  H   UNL     1      16.484  12.823  40.832  0.00  0.00    +0.155 HD
ATOM     37  N   UNL     1      16.088  15.029  39.631  0.00  0.00    -0.214 NA
BRANCH   4   3
ATOM      1  C   UNL     1      14.609  15.781  35.375  0.00  0.00    +0.020 A 
ATOM      2  C   UNL     1      15.477  15.722  36.528  0.00  0.00    +0.013 A 
ATOM      3  C   UNL     1      15.061  16.291  37.804  0.00  0.00    +0.019 A 
ATOM     38  C   UNL     1      13.750  16.918  37.879  0.00  0.00    +0.120 A 
ATOM     39  N   UNL     1      12.936  16.961  36.752  0.00  0.00    -0.263 NA
ATOM     40  C   UNL     1      13.327  16.418  35.518  0.00  0.00    +0.111 A 
ENDBRANCH   4   3
ENDBRANCH  10   9
BRANCH  12  13
ATOM     13  N   UNL     1      21.431  12.693  43.277  0.00  0.00    -0.281 N 
ATOM     14  C   UNL     1      22.456  13.594  43.513  0.00  0.00    +0.248 C 
ATOM     30  O   UNL     1      22.299  14.799  43.646  0.00  0.00    -0.270 OA
ATOM     31  H   UNL     1      21.715  11.755  42.993  0.00  0.00    +0.155 HD
BRANCH  14  15
ATOM     15  C   UNL     1      23.859  13.087  43.600  0.00  0.00    +0.037 A 
ATOM     16  C   UNL     1      24.854  13.426  42.580  0.00  0.00    +0.013 A 
ATOM     17  C   UNL     1      26.196  12.909  42.679  0.00  0.00    +0.005 A 
ATOM     18  C   UNL     1      26.550  12.047  43.804  0.00  0.00    -0.033 A 
ATOM     28  C   UNL     1      25.544  11.730  44.804  0.00  0.00    +0.005 A 
ATOM     29  C   UNL     1      24.228  12.235  44.710  0.00  0.00    +0.013 A 
BRANCH  18  19
ATOM     19  C   UNL     1      27.952  11.433  43.978  0.00  0.00    +0.119 C 
BRANCH  19  20
ATOM     20  N   UNL     1      29.020  11.889  43.039  0.00  0.00    -0.302 NA
ATOM     21  C   UNL     1      29.883  10.726  42.542  0.00  0.00    +0.066 C 
ATOM     22  C   UNL     1      30.980  11.217  41.543  0.00  0.00    -0.064 C 
ATOM     23  N   UNL     1      31.844  12.281  42.222  0.00  0.00    +0.379 N 
ATOM     24  C   UNL     1      32.913  12.704  41.304  0.00  0.00    -0.096 C 
ATOM     25  H   UNL     1      32.327  11.809  43.109  0.00  0.00    -0.082 HD
ATOM     26  C   UNL     1      30.994  13.441  42.721  0.00  0.00    -0.064 C 
ATOM     27  C   UNL     1      29.888  12.937  43.690  0.00  0.00    +0.066 C 
ENDBRANCH  19  20
ENDBRANCH  18  19
ENDBRANCH  14  15
ENDBRANCH  12  13
TORSDOF 6
ENDMDL
