MODEL 1
REMARK VINA RESULT:      -8.5      0.000      0.000
REMARK  Name = C:\Users\Docking\Desktop\test protocol\1iep_ligandH.pdb
REMARK  8 active torsions:
REMARK  status: ('A' for Active; 'I' for Inactive)
REMARK    1  A    between atoms: _5  and  _11
REMARK    2  A    between atoms: _19  and  _21
REMARK    3  A    between atoms: _22  and  _66
REMARK    4  A    between atoms: _27  and  _30
REMARK    5  A    between atoms: _32  and  _33
REMARK    6  A    between atoms: _38  and  _43
REMARK    7  A    between atoms: _43  and  _46
REMARK    8  A    between atoms: _53  and  _55
REMARK                            x       y       z     vdW  Elec       q    Type
REMARK                         _______ _______ _______ _____ _____    ______ ____
ROOT
ATOM     10  C   UNL     1      36.630  29.995  52.796  0.00  0.00    +0.038 A 
ATOM     11  C   UNL     1      36.195  29.455  51.558  0.00  0.00    +0.047 A 
ATOM     12  C   UNL     1      34.979  29.930  50.916  0.00  0.00    +0.035 A 
ATOM     32  C   UNL     1      34.232  30.958  51.561  0.00  0.00    +0.024 A 
ATOM     33  C   UNL     1      34.659  31.517  52.820  0.00  0.00    +0.007 A 
ATOM     34  C   UNL     1      35.856  31.051  53.459  0.00  0.00    -0.029 A 
ATOM     35  C   UNL     1      36.262  31.682  54.811  0.00  0.00    +0.045 C 
ENDROOT
BRANCH  10   9
ATOM      4  C   UNL     1      39.004  26.883  55.574  0.00  0.00    +0.077 A 
ATOM      5  C   UNL     1      37.797  26.197  55.938  0.00  0.00    +0.048 A 
ATOM      6  C   UNL     1      36.586  26.682  55.395  0.00  0.00    +0.116 A 
ATOM      7  N   UNL     1      36.593  27.771  54.551  0.00  0.00    -0.223 NA
ATOM      8  C   UNL     1      37.774  28.410  54.221  0.00  0.00    +0.220 A 
ATOM      9  N   UNL     1      37.805  29.502  53.368  0.00  0.00    -0.283 N 
ATOM     36  H   UNL     1      38.696  29.951  53.155  0.00  0.00    +0.155 HD
ATOM     37  N   UNL     1      38.944  27.968  54.728  0.00  0.00    -0.214 NA
BRANCH   4   3
ATOM      1  C   UNL     1      42.232  26.545  57.757  0.00  0.00    +0.020 A 
ATOM      2  C   UNL     1      40.914  26.956  57.329  0.00  0.00    +0.013 A 
ATOM      3  C   UNL     1      40.362  26.489  56.064  0.00  0.00    +0.019 A 
ATOM     38  C   UNL     1      41.175  25.599  55.248  0.00  0.00    +0.120 A 
ATOM     39  N   UNL     1      42.441  25.221  55.685  0.00  0.00    -0.263 NA
ATOM     40  C   UNL     1      42.983  25.666  56.900  0.00  0.00    +0.111 A 
ENDBRANCH   4   3
ENDBRANCH  10   9
BRANCH  12  13
ATOM     13  N   UNL     1      34.484  29.414  49.664  0.00  0.00    -0.281 N 
ATOM     14  C   UNL     1      33.435  28.533  49.462  0.00  0.00    +0.248 C 
ATOM     30  O   UNL     1      32.896  27.884  50.346  0.00  0.00    -0.270 OA
ATOM     31  H   UNL     1      34.966  29.738  48.825  0.00  0.00    +0.155 HD
BRANCH  14  15
ATOM     15  C   UNL     1      32.919  28.332  48.073  0.00  0.00    +0.037 A 
ATOM     16  C   UNL     1      33.823  28.318  46.921  0.00  0.00    +0.013 A 
ATOM     17  C   UNL     1      33.297  28.139  45.591  0.00  0.00    +0.005 A 
ATOM     18  C   UNL     1      31.857  27.971  45.407  0.00  0.00    -0.033 A 
ATOM     28  C   UNL     1      30.983  27.983  46.568  0.00  0.00    +0.005 A 
ATOM     29  C   UNL     1      31.495  28.159  47.873  0.00  0.00    +0.013 A 
BRANCH  18  19
ATOM     19  C   UNL     1      31.206  27.795  44.022  0.00  0.00    +0.119 C 
BRANCH  19  20
ATOM     20  N   UNL     1      29.843  28.375  43.829  0.00  0.00    -0.302 NA
ATOM     21  C   UNL     1      28.861  27.353  43.250  0.00  0.00    +0.066 C 
ATOM     22  C   UNL     1      27.435  27.970  43.075  0.00  0.00    -0.064 C 
ATOM     23  N   UNL     1      27.523  29.205  42.178  0.00  0.00    +0.379 N 
ATOM     24  C   UNL     1      26.175  29.754  41.965  0.00  0.00    -0.096 C 
ATOM     25  H   UNL     1      27.915  28.877  41.188  0.00  0.00    -0.082 HD
ATOM     26  C   UNL     1      28.499  30.226  42.746  0.00  0.00    -0.064 C 
ATOM     27  C   UNL     1      29.906  29.594  42.943  0.00  0.00    +0.066 C 
ENDBRANCH  19  20
ENDBRANCH  18  19
ENDBRANCH  14  15
ENDBRANCH  12  13
TORSDOF 6
ENDMDL
MODEL 2
REMARK VINA RESULT:      -8.3     28.822     31.981
REMARK  Name = C:\Users\Docking\Desktop\test protocol\1iep_ligandH.pdb
REMARK  8 active torsions:
REMARK  status: ('A' for Active; 'I' for Inactive)
REMARK    1  A    between atoms: _5  and  _11
REMARK    2  A    between atoms: _19  and  _21
REMARK    3  A    between atoms: _22  and  _66
REMARK    4  A    between atoms: _27  and  _30
REMARK    5  A    between atoms: _32  and  _33
REMARK    6  A    between atoms: _38  and  _43
REMARK    7  A    between atoms: _43  and  _46
REMARK    8  A    between atoms: _53  and  _55
REMARK                            x       y       z     vdW  Elec       q    Type
REMARK                         _______ _______ _______ _____ _____    ______ ____
ROOT
ATOM     10  C   UNL     1      31.143  -0.104  41.564  0.00  0.00    +0.038 A 
ATOM     11  C   UNL     1      32.560  -0.066  41.614  0.00  0.00    +0.047 A 
ATOM     12  C   UNL     1      33.313   0.917  40.851  0.00  0.00    +0.035 A 
ATOM     32  C   UNL     1      32.590   1.848  40.049  0.00  0.00    +0.024 A 
ATOM     33  C   UNL     1      31.150   1.823  39.986  0.00  0.00    +0.007 A 
ATOM     34  C   UNL     1      30.402   0.854  40.735  0.00  0.00    -0.029 A 
ATOM     35  C   UNL     1      28.859   0.869  40.624  0.00  0.00    +0.045 C 
ENDROOT
BRANCH  10   9
ATOM      4  C   UNL     1      29.404  -4.535  42.183  0.00  0.00    +0.077 A 
ATOM      5  C   UNL     1      29.849  -4.955  40.886  0.00  0.00    +0.048 A 
ATOM      6  C   UNL     1      30.516  -3.998  40.087  0.00  0.00    +0.116 A 
ATOM      7  N   UNL     1      30.716  -2.720  40.561  0.00  0.00    -0.223 NA
ATOM      8  C   UNL     1      30.272  -2.347  41.817  0.00  0.00    +0.220 A 
ATOM      9  N   UNL     1      30.470  -1.070  42.317  0.00  0.00    -0.283 N 
ATOM     36  H   UNL     1      30.121  -0.832  43.245  0.00  0.00    +0.155 HD
ATOM     37  N   UNL     1      29.632  -3.242  42.598  0.00  0.00    -0.214 NA
BRANCH   4   3
ATOM      1  C   UNL     1      27.304  -7.467  43.697  0.00  0.00    +0.020 A 
ATOM      2  C   UNL     1      27.979  -6.635  42.728  0.00  0.00    +0.013 A 
ATOM      3  C   UNL     1      28.688  -5.432  43.145  0.00  0.00    +0.019 A 
ATOM     38  C   UNL     1      28.695  -5.096  44.561  0.00  0.00    +0.120 A 
ATOM     39  N   UNL     1      28.035  -5.915  45.471  0.00  0.00    -0.263 NA
ATOM     40  C   UNL     1      27.348  -7.075  45.082  0.00  0.00    +0.111 A 
ENDBRANCH   4   3
ENDBRANCH  10   9
BRANCH  12  13
ATOM     13  N   UNL     1      34.752   0.999  40.855  0.00  0.00    -0.281 N 
ATOM     14  C   UNL     1      35.631   0.603  39.860  0.00  0.00    +0.248 C 
ATOM     30  O   UNL     1      35.321  -0.083  38.897  0.00  0.00    -0.270 OA
ATOM     31  H   UNL     1      35.175   1.398  41.694  0.00  0.00    +0.155 HD
BRANCH  14  15
ATOM     15  C   UNL     1      37.064   1.016  39.956  0.00  0.00    +0.037 A 
ATOM     16  C   UNL     1      38.120   0.264  39.273  0.00  0.00    +0.013 A 
ATOM     17  C   UNL     1      39.496   0.674  39.396  0.00  0.00    +0.005 A 
ATOM     18  C   UNL     1      39.825   1.845  40.206  0.00  0.00    -0.033 A 
ATOM     28  C   UNL     1      38.758   2.576  40.869  0.00  0.00    +0.005 A 
ATOM     29  C   UNL     1      37.408   2.176  40.751  0.00  0.00    +0.013 A 
BRANCH  18  19
ATOM     19  C   UNL     1      41.268   2.342  40.410  0.00  0.00    +0.119 C 
BRANCH  19  20
ATOM     20  N   UNL     1      41.478   3.446  41.393  0.00  0.00    -0.302 NA
ATOM     21  C   UNL     1      41.876   4.757  40.708  0.00  0.00    +0.066 C 
ATOM     22  C   UNL     1      42.070   5.907  41.749  0.00  0.00    -0.064 C 
ATOM     23  N   UNL     1      43.125   5.491  42.774  0.00  0.00    +0.379 N 
ATOM     24  C   UNL     1      43.351   6.593  43.721  0.00  0.00    -0.096 C 
ATOM     25  H   UNL     1      44.079   5.315  42.225  0.00  0.00    -0.082 HD
ATOM     26  C   UNL     1      42.739   4.187  43.458  0.00  0.00    -0.064 C 
ATOM     27  C   UNL     1      42.520   3.058  42.413  0.00  0.00    +0.066 C 
ENDBRANCH  19  20
ENDBRANCH  18  19
ENDBRANCH  14  15
ENDBRANCH  12  13
TORSDOF 6
ENDMDL
MODEL 3
REMARK VINA RESULT:      -8.2      5.454     13.225
REMARK  Name = C:\Users\Docking\Desktop\test protocol\1iep_ligandH.pdb
REMARK  8 active torsions:
REMARK  status: ('A' for Active; 'I' for Inactive)
REMARK    1  A    between atoms: _5  and  _11
REMARK    2  A    between atoms: _19  and  _21
REMARK    3  A    between atoms: _22  and  _66
REMARK    4  A    between atoms: _27  and  _30
REMARK    5  A    between atoms: _32  and  _33
REMARK    6  A    between atoms: _38  and  _43
REMARK    7  A    between atoms: _43  and  _46
REMARK    8  A    between atoms: _53  and  _55
REMARK                            x       y       z     vdW  Elec       q    Type
REMARK                         _______ _______ _______ _____ _____    ______ ____
ROOT
ATOM     10  C   UNL     1      34.930  30.689  51.803  0.00  0.00    +0.038 A 
ATOM     11  C   UNL     1      36.341  30.811  51.722  0.00  0.00    +0.047 A 
ATOM     12  C   UNL     1      37.149  31.006  52.915  0.00  0.00    +0.035 A 
ATOM     32  C   UNL     1      36.488  31.070  54.176  0.00  0.00    +0.024 A 
ATOM     33  C   UNL     1      35.055  30.949  54.277  0.00  0.00    +0.007 A 
ATOM     34  C   UNL     1      34.252  30.759  53.103  0.00  0.00    -0.029 A 
ATOM     35  C   UNL     1      32.719  30.642  53.271  0.00  0.00    +0.045 C 
ENDROOT
BRANCH  10   9
ATOM      4  C   UNL     1      33.055  27.891  48.384  0.00  0.00    +0.077 A 
ATOM      5  C   UNL     1      33.592  26.702  48.980  0.00  0.00    +0.048 A 
ATOM      6  C   UNL     1      34.351  26.855  50.162  0.00  0.00    +0.116 A 
ATOM      7  N   UNL     1      34.551  28.108  50.699  0.00  0.00    -0.223 NA
ATOM      8  C   UNL     1      34.021  29.234  50.098  0.00  0.00    +0.220 A 
ATOM      9  N   UNL     1      34.203  30.503  50.626  0.00  0.00    -0.283 N 
ATOM     36  H   UNL     1      33.801  31.310  50.148  0.00  0.00    +0.155 HD
ATOM     37  N   UNL     1      33.293  29.115  48.968  0.00  0.00    -0.214 NA
BRANCH   4   3
ATOM      1  C   UNL     1      31.966  27.986  44.628  0.00  0.00    +0.020 A 
ATOM      2  C   UNL     1      32.809  27.989  45.802  0.00  0.00    +0.013 A 
ATOM      3  C   UNL     1      32.229  27.893  47.135  0.00  0.00    +0.019 A 
ATOM     38  C   UNL     1      30.781  27.795  47.247  0.00  0.00    +0.120 A 
ATOM     39  N   UNL     1      29.995  27.796  46.099  0.00  0.00    -0.263 NA
ATOM     40  C   UNL     1      30.542  27.889  44.811  0.00  0.00    +0.111 A 
ENDBRANCH   4   3
ENDBRANCH  10   9
BRANCH  12  13
ATOM     13  N   UNL     1      38.584  31.145  52.893  0.00  0.00    -0.281 N 
ATOM     14  C   UNL     1      39.335  32.140  52.289  0.00  0.00    +0.248 C 
ATOM     30  O   UNL     1      38.891  32.951  51.490  0.00  0.00    -0.270 OA
ATOM     31  H   UNL     1      39.111  30.421  53.383  0.00  0.00    +0.155 HD
BRANCH  14  15
ATOM     15  C   UNL     1      40.792  32.240  52.608  0.00  0.00    +0.037 A 
ATOM     16  C   UNL     1      41.661  33.185  51.903  0.00  0.00    +0.013 A 
ATOM     17  C   UNL     1      43.066  33.249  52.218  0.00  0.00    +0.005 A 
ATOM     18  C   UNL     1      43.611  32.365  53.246  0.00  0.00    -0.033 A 
ATOM     28  C   UNL     1      42.725  31.441  53.934  0.00  0.00    +0.005 A 
ATOM     29  C   UNL     1      41.347  31.374  53.627  0.00  0.00    +0.013 A 
BRANCH  18  19
ATOM     19  C   UNL     1      45.101  32.350  53.632  0.00  0.00    +0.119 C 
BRANCH  19  20
ATOM     20  N   UNL     1      46.096  32.361  52.518  0.00  0.00    -0.302 NA
ATOM     21  C   UNL     1      47.235  31.364  52.755  0.00  0.00    +0.066 C 
ATOM     22  C   UNL     1      48.254  31.372  51.570  0.00  0.00    -0.064 C 
ATOM     23  N   UNL     1      48.804  32.787  51.384  0.00  0.00    +0.379 N 
ATOM     24  C   UNL     1      49.806  32.786  50.308  0.00  0.00    -0.096 C 
ATOM     25  H   UNL     1      49.321  33.076  52.328  0.00  0.00    -0.082 HD
ATOM     26  C   UNL     1      47.679  33.785  51.150  0.00  0.00    -0.064 C 
ATOM     27  C   UNL     1      46.655  33.748  52.320  0.00  0.00    +0.066 C 
ENDBRANCH  19  20
ENDBRANCH  18  19
ENDBRANCH  14  15
ENDBRANCH  12  13
TORSDOF 6
ENDMDL
MODEL 4
REMARK VINA RESULT:      -8.1      2.243      3.015
REMARK  Name = C:\Users\Docking\Desktop\test protocol\1iep_ligandH.pdb
REMARK  8 active torsions:
REMARK  status: ('A' for Active; 'I' for Inactive)
REMARK    1  A    between atoms: _5  and  _11
REMARK    2  A    between atoms: _19  and  _21
REMARK    3  A    between atoms: _22  and  _66
REMARK    4  A    between atoms: _27  and  _30
REMARK    5  A    between atoms: _32  and  _33
REMARK    6  A    between atoms: _38  and  _43
REMARK    7  A    between atoms: _43  and  _46
REMARK    8  A    between atoms: _53  and  _55
REMARK                            x       y       z     vdW  Elec       q    Type
REMARK                         _______ _______ _______ _____ _____    ______ ____
ROOT
ATOM     10  C   UNL     1      36.938  29.805  53.099  0.00  0.00    +0.038 A 
ATOM     11  C   UNL     1      36.061  29.274  52.120  0.00  0.00    +0.047 A 
ATOM     12  C   UNL     1      36.271  29.528  50.703  0.00  0.00    +0.035 A 
ATOM     32  C   UNL     1      37.388  30.326  50.319  0.00  0.00    +0.024 A 
ATOM     33  C   UNL     1      38.290  30.875  51.301  0.00  0.00    +0.007 A 
ATOM     34  C   UNL     1      38.086  30.629  52.700  0.00  0.00    -0.029 A 
ATOM     35  C   UNL     1      39.080  31.248  53.709  0.00  0.00    +0.045 C 
ENDROOT
BRANCH  10   9
ATOM      4  C   UNL     1      37.337  27.031  56.996  0.00  0.00    +0.077 A 
ATOM      5  C   UNL     1      38.083  26.034  56.282  0.00  0.00    +0.048 A 
ATOM      6  C   UNL     1      38.337  26.270  54.912  0.00  0.00    +0.116 A 
ATOM      7  N   UNL     1      37.874  27.421  54.311  0.00  0.00    -0.223 NA
ATOM      8  C   UNL     1      37.157  28.361  55.028  0.00  0.00    +0.220 A 
ATOM      9  N   UNL     1      36.689  29.529  54.445  0.00  0.00    -0.283 N 
ATOM     36  H   UNL     1      36.157  30.194  55.006  0.00  0.00    +0.155 HD
ATOM     37  N   UNL     1      36.900  28.158  56.337  0.00  0.00    -0.214 NA
BRANCH   4   3
ATOM      1  C   UNL     1      35.344  26.696  60.344  0.00  0.00    +0.020 A 
ATOM      2  C   UNL     1      35.623  26.794  58.930  0.00  0.00    +0.013 A 
ATOM      3  C   UNL     1      36.992  26.927  58.449  0.00  0.00    +0.019 A 
ATOM     38  C   UNL     1      38.064  26.957  59.432  0.00  0.00    +0.120 A 
ATOM     39  N   UNL     1      37.765  26.863  60.787  0.00  0.00    -0.263 NA
ATOM     40  C   UNL     1      36.451  26.737  61.263  0.00  0.00    +0.111 A 
ENDBRANCH   4   3
ENDBRANCH  10   9
BRANCH  12  13
ATOM     13  N   UNL     1      35.409  29.022  49.664  0.00  0.00    -0.281 N 
ATOM     14  C   UNL     1      34.034  29.155  49.559  0.00  0.00    +0.248 C 
ATOM     30  O   UNL     1      33.307  29.549  50.458  0.00  0.00    -0.270 OA
ATOM     31  H   UNL     1      35.868  28.502  48.916  0.00  0.00    +0.155 HD
BRANCH  14  15
ATOM     15  C   UNL     1      33.369  28.783  48.273  0.00  0.00    +0.037 A 
ATOM     16  C   UNL     1      34.153  28.397  47.096  0.00  0.00    +0.013 A 
ATOM     17  C   UNL     1      33.487  28.059  45.863  0.00  0.00    +0.005 A 
ATOM     18  C   UNL     1      32.028  28.104  45.801  0.00  0.00    -0.033 A 
ATOM     28  C   UNL     1      31.275  28.485  46.985  0.00  0.00    +0.005 A 
ATOM     29  C   UNL     1      31.925  28.818  48.195  0.00  0.00    +0.013 A 
BRANCH  18  19
ATOM     19  C   UNL     1      31.235  27.780  44.521  0.00  0.00    +0.119 C 
BRANCH  19  20
ATOM     20  N   UNL     1      29.761  28.021  44.551  0.00  0.00    -0.302 NA
ATOM     21  C   UNL     1      28.966  26.713  44.595  0.00  0.00    +0.066 C 
ATOM     22  C   UNL     1      27.427  26.984  44.648  0.00  0.00    -0.064 C 
ATOM     23  N   UNL     1      27.018  27.826  43.438  0.00  0.00    +0.379 N 
ATOM     24  C   UNL     1      25.563  28.033  43.454  0.00  0.00    -0.096 C 
ATOM     25  H   UNL     1      27.267  27.242  42.521  0.00  0.00    -0.082 HD
ATOM     26  C   UNL     1      27.806  29.127  43.385  0.00  0.00    -0.064 C 
ATOM     27  C   UNL     1      29.335  28.847  43.362  0.00  0.00    +0.066 C 
ENDBRANCH  19  20
ENDBRANCH  18  19
ENDBRANCH  14  15
ENDBRANCH  12  13
TORSDOF 6
ENDMDL
MODEL 5
REMARK VINA RESULT:      -8.1     18.186     23.565
REMARK  Name = C:\Users\Docking\Desktop\test protocol\1iep_ligandH.pdb
REMARK  8 active torsions:
REMARK  status: ('A' for Active; 'I' for Inactive)
REMARK    1  A    between atoms: _5  and  _11
REMARK    2  A    between atoms: _19  and  _21
REMARK    3  A    between atoms: _22  and  _66
REMARK    4  A    between atoms: _27  and  _30
REMARK    5  A    between atoms: _32  and  _33
REMARK    6  A    between atoms: _38  and  _43
REMARK    7  A    between atoms: _43  and  _46
REMARK    8  A    between atoms: _53  and  _55
REMARK                            x       y       z     vdW  Elec       q    Type
REMARK                         _______ _______ _______ _____ _____    ______ ____
ROOT
ATOM     10  C   UNL     1      20.635  16.451  39.035  0.00  0.00    +0.038 A 
ATOM     11  C   UNL     1      21.570  16.273  40.086  0.00  0.00    +0.047 A 
ATOM     12  C   UNL     1      21.920  14.945  40.565  0.00  0.00    +0.035 A 
ATOM     32  C   UNL     1      21.300  13.819  39.949  0.00  0.00    +0.024 A 
ATOM     33  C   UNL     1      20.346  13.982  38.880  0.00  0.00    +0.007 A 
ATOM     34  C   UNL     1      19.995  15.290  38.405  0.00  0.00    -0.029 A 
ATOM     35  C   UNL     1      18.962  15.405  37.260  0.00  0.00    +0.045 C 
ENDROOT
BRANCH  10   9
ATOM      4  C   UNL     1      18.020  20.470  39.240  0.00  0.00    +0.077 A 
ATOM      5  C   UNL     1      17.159  19.929  40.252  0.00  0.00    +0.048 A 
ATOM      6  C   UNL     1      17.419  18.610  40.687  0.00  0.00    +0.116 A 
ATOM      7  N   UNL     1      18.464  17.895  40.144  0.00  0.00    -0.223 NA
ATOM      8  C   UNL     1      19.274  18.446  39.168  0.00  0.00    +0.220 A 
ATOM      9  N   UNL     1      20.336  17.749  38.614  0.00  0.00    -0.283 N 
ATOM     36  H   UNL     1      20.906  18.188  37.891  0.00  0.00    +0.155 HD
ATOM     37  N   UNL     1      19.046  19.704  38.735  0.00  0.00    -0.214 NA
BRANCH   4   3
ATOM      1  C   UNL     1      18.479  23.675  37.044  0.00  0.00    +0.020 A 
ATOM      2  C   UNL     1      18.657  22.332  37.547  0.00  0.00    +0.013 A 
ATOM      3  C   UNL     1      17.875  21.851  38.679  0.00  0.00    +0.019 A 
ATOM     38  C   UNL     1      16.912  22.759  39.283  0.00  0.00    +0.120 A 
ATOM     39  N   UNL     1      16.763  24.047  38.777  0.00  0.00    -0.263 NA
ATOM     40  C   UNL     1      17.511  24.522  37.690  0.00  0.00    +0.111 A 
ENDBRANCH   4   3
ENDBRANCH  10   9
BRANCH  12  13
ATOM     13  N   UNL     1      22.857  14.703  41.634  0.00  0.00    -0.281 N 
ATOM     14  C   UNL     1      22.620  14.741  42.999  0.00  0.00    +0.248 C 
ATOM     30  O   UNL     1      21.612  15.202  43.513  0.00  0.00    -0.270 OA
ATOM     31  H   UNL     1      23.810  14.475  41.351  0.00  0.00    +0.155 HD
BRANCH  14  15
ATOM     15  C   UNL     1      23.661  14.204  43.927  0.00  0.00    +0.037 A 
ATOM     16  C   UNL     1      25.009  14.776  43.971  0.00  0.00    +0.013 A 
ATOM     17  C   UNL     1      25.999  14.227  44.864  0.00  0.00    +0.005 A 
ATOM     18  C   UNL     1      25.643  13.099  45.722  0.00  0.00    -0.033 A 
ATOM     28  C   UNL     1      24.297  12.555  45.662  0.00  0.00    +0.005 A 
ATOM     29  C   UNL     1      23.324  13.089  44.787  0.00  0.00    +0.013 A 
BRANCH  18  19
ATOM     19  C   UNL     1      26.641  12.437  46.690  0.00  0.00    +0.119 C 
BRANCH  19  20
ATOM     20  N   UNL     1      26.136  12.065  48.045  0.00  0.00    -0.302 NA
ATOM     21  C   UNL     1      27.039  12.596  49.161  0.00  0.00    +0.066 C 
ATOM     22  C   UNL     1      26.483  12.217  50.572  0.00  0.00    -0.064 C 
ATOM     23  N   UNL     1      26.339  10.697  50.669  0.00  0.00    +0.379 N 
ATOM     24  C   UNL     1      25.872  10.333  52.015  0.00  0.00    -0.096 C 
ATOM     25  H   UNL     1      27.352  10.252  50.531  0.00  0.00    -0.082 HD
ATOM     26  C   UNL     1      25.444  10.160  49.561  0.00  0.00    -0.064 C 
ATOM     27  C   UNL     1      25.990  10.568  48.164  0.00  0.00    +0.066 C 
ENDBRANCH  19  20
ENDBRANCH  18  19
ENDBRANCH  14  15
ENDBRANCH  12  13
TORSDOF 6
ENDMDL
