MODEL 1
REMARK VINA RESULT:      -8.5      0.000      0.000
REMARK  Name = C:\Users\Docking\Desktop\test protocol\1iep_ligandH.pdb
REMARK  8 active torsions:
REMARK  status: ('A' for Active; 'I' for Inactive)
REMARK    1  A    between atoms: _5  and  _11
REMARK    2  A    between atoms: _19  and  _21
REMARK    3  A    between atoms: _22  and  _66
REMARK    4  A    between atoms: _27  and  _30
REMARK    5  A    between atoms: _32  and  _33
REMARK    6  A    between atoms: _38  and  _43
REMARK    7  A    between atoms: _43  and  _46
REMARK    8  A    between atoms: _53  and  _55
REMARK                            x       y       z     vdW  Elec       q    Type
REMARK                         _______ _______ _______ _____ _____    ______ ____
ROOT
ATOM     10  C   UNL     1      39.589   0.961  41.624  0.00  0.00    +0.038 A 
ATOM     11  C   UNL     1      40.612   1.688  40.964  0.00  0.00    +0.047 A 
ATOM     12  C   UNL     1      41.684   2.327  41.712  0.00  0.00    +0.035 A 
ATOM     32  C   UNL     1      41.684   2.203  43.132  0.00  0.00    +0.024 A 
ATOM     33  C   UNL     1      40.650   1.469  43.819  0.00  0.00    +0.007 A 
ATOM     34  C   UNL     1      39.589   0.839  43.087  0.00  0.00    -0.029 A 
ATOM     35  C   UNL     1      38.505   0.070  43.877  0.00  0.00    +0.045 C 
ENDROOT
BRANCH  10   9
ATOM      4  C   UNL     1      35.582   1.189  38.991  0.00  0.00    +0.077 A 
ATOM      5  C   UNL     1      35.466   2.605  39.183  0.00  0.00    +0.048 A 
ATOM      6  C   UNL     1      36.453   3.237  39.972  0.00  0.00    +0.116 A 
ATOM      7  N   UNL     1      37.477   2.496  40.523  0.00  0.00    -0.223 NA
ATOM      8  C   UNL     1      37.559   1.131  40.319  0.00  0.00    +0.220 A 
ATOM      9  N   UNL     1      38.584   0.368  40.856  0.00  0.00    -0.283 N 
ATOM     36  H   UNL     1      38.605  -0.638  40.689  0.00  0.00    +0.155 HD
ATOM     37  N   UNL     1      36.627   0.504  39.571  0.00  0.00    -0.214 NA
BRANCH   4   3
ATOM      1  C   UNL     1      32.506   0.115  36.826  0.00  0.00    +0.020 A 
ATOM      2  C   UNL     1      33.403   0.940  37.602  0.00  0.00    +0.013 A 
ATOM      3  C   UNL     1      34.619   0.379  38.180  0.00  0.00    +0.019 A 
ATOM     38  C   UNL     1      34.899  -1.030  37.951  0.00  0.00    +0.120 A 
ATOM     39  N   UNL     1      34.016  -1.800  37.201  0.00  0.00    -0.263 NA
ATOM     40  C   UNL     1      32.843  -1.272  36.642  0.00  0.00    +0.111 A 
ENDBRANCH   4   3
ENDBRANCH  10   9
BRANCH  12  13
ATOM     13  N   UNL     1      42.746   3.084  41.097  0.00  0.00    -0.281 N 
ATOM     14  C   UNL     1      42.892   4.461  41.049  0.00  0.00    +0.248 C 
ATOM     30  O   UNL     1      42.016   5.260  41.344  0.00  0.00    -0.270 OA
ATOM     31  H   UNL     1      43.478   2.539  40.642  0.00  0.00    +0.155 HD
BRANCH  14  15
ATOM     15  C   UNL     1      44.195   5.033  40.592  0.00  0.00    +0.037 A 
ATOM     16  C   UNL     1      44.552   6.426  40.870  0.00  0.00    +0.013 A 
ATOM     17  C   UNL     1      45.808   6.958  40.404  0.00  0.00    +0.005 A 
ATOM     18  C   UNL     1      46.718   6.094  39.655  0.00  0.00    -0.033 A 
ATOM     28  C   UNL     1      46.341   4.714  39.398  0.00  0.00    +0.005 A 
ATOM     29  C   UNL     1      45.110   4.190  39.853  0.00  0.00    +0.013 A 
BRANCH  18  19
ATOM     19  C   UNL     1      48.069   6.582  39.101  0.00  0.00    +0.119 C 
BRANCH  19  20
ATOM     20  N   UNL     1      48.233   6.601  37.617  0.00  0.00    -0.302 NA
ATOM     21  C   UNL     1      49.707   6.579  37.201  0.00  0.00    +0.066 C 
ATOM     22  C   UNL     1      49.859   6.576  35.645  0.00  0.00    -0.064 C 
ATOM     23  N   UNL     1      49.151   7.801  35.064  0.00  0.00    +0.379 N 
ATOM     24  C   UNL     1      49.342   7.833  33.607  0.00  0.00    -0.096 C 
ATOM     25  H   UNL     1      49.641   8.708  35.489  0.00  0.00    -0.082 HD
ATOM     26  C   UNL     1      47.686   7.833  35.475  0.00  0.00    -0.064 C 
ATOM     27  C   UNL     1      47.545   7.805  37.022  0.00  0.00    +0.066 C 
ENDBRANCH  19  20
ENDBRANCH  18  19
ENDBRANCH  14  15
ENDBRANCH  12  13
TORSDOF 6
ENDMDL
MODEL 2
REMARK VINA RESULT:      -8.1     26.067     28.671
REMARK  Name = C:\Users\Docking\Desktop\test protocol\1iep_ligandH.pdb
REMARK  8 active torsions:
REMARK  status: ('A' for Active; 'I' for Inactive)
REMARK    1  A    between atoms: _5  and  _11
REMARK    2  A    between atoms: _19  and  _21
REMARK    3  A    between atoms: _22  and  _66
REMARK    4  A    between atoms: _27  and  _30
REMARK    5  A    between atoms: _32  and  _33
REMARK    6  A    between atoms: _38  and  _43
REMARK    7  A    between atoms: _43  and  _46
REMARK    8  A    between atoms: _53  and  _55
REMARK                            x       y       z     vdW  Elec       q    Type
REMARK                         _______ _______ _______ _____ _____    ______ ____
ROOT
ATOM     10  C   UNL     1      36.635  27.188  55.902  0.00  0.00    +0.038 A 
ATOM     11  C   UNL     1      37.806  26.491  55.510  0.00  0.00    +0.047 A 
ATOM     12  C   UNL     1      38.645  26.978  54.427  0.00  0.00    +0.035 A 
ATOM     32  C   UNL     1      38.262  28.181  53.765  0.00  0.00    +0.024 A 
ATOM     33  C   UNL     1      37.074  28.902  54.149  0.00  0.00    +0.007 A 
ATOM     34  C   UNL     1      36.241  28.424  55.215  0.00  0.00    -0.029 A 
ATOM     35  C   UNL     1      34.976  29.234  55.580  0.00  0.00    +0.045 C 
ENDROOT
BRANCH  10   9
ATOM      4  C   UNL     1      35.424  26.946  60.540  0.00  0.00    +0.077 A 
ATOM      5  C   UNL     1      36.426  27.902  60.912  0.00  0.00    +0.048 A 
ATOM      6  C   UNL     1      37.237  28.428  59.881  0.00  0.00    +0.116 A 
ATOM      7  N   UNL     1      37.050  28.019  58.578  0.00  0.00    -0.223 NA
ATOM      8  C   UNL     1      36.076  27.094  58.254  0.00  0.00    +0.220 A 
ATOM      9  N   UNL     1      35.866  26.675  56.949  0.00  0.00    -0.283 N 
ATOM     36  H   UNL     1      35.142  25.984  56.751  0.00  0.00    +0.155 HD
ATOM     37  N   UNL     1      35.290  26.576  59.220  0.00  0.00    -0.214 NA
BRANCH   4   3
ATOM      1  C   UNL     1      32.293  25.219  62.126  0.00  0.00    +0.020 A 
ATOM      2  C   UNL     1      33.158  25.833  61.145  0.00  0.00    +0.013 A 
ATOM      3  C   UNL     1      34.488  26.303  61.515  0.00  0.00    +0.019 A 
ATOM     38  C   UNL     1      34.914  26.134  62.896  0.00  0.00    +0.120 A 
ATOM     39  N   UNL     1      34.059  25.540  63.819  0.00  0.00    -0.263 NA
ATOM     40  C   UNL     1      32.777  25.086  63.475  0.00  0.00    +0.111 A 
ENDBRANCH   4   3
ENDBRANCH  10   9
BRANCH  12  13
ATOM     13  N   UNL     1      39.842  26.309  53.980  0.00  0.00    -0.281 N 
ATOM     14  C   UNL     1      39.938  25.152  53.223  0.00  0.00    +0.248 C 
ATOM     30  O   UNL     1      39.006  24.396  52.995  0.00  0.00    -0.270 OA
ATOM     31  H   UNL     1      40.724  26.740  54.255  0.00  0.00    +0.155 HD
BRANCH  14  15
ATOM     15  C   UNL     1      41.266  24.774  52.649  0.00  0.00    +0.037 A 
ATOM     16  C   UNL     1      41.683  23.372  52.561  0.00  0.00    +0.013 A 
ATOM     17  C   UNL     1      42.976  23.036  52.019  0.00  0.00    +0.005 A 
ATOM     18  C   UNL     1      43.860  24.104  51.559  0.00  0.00    -0.033 A 
ATOM     28  C   UNL     1      43.418  25.486  51.654  0.00  0.00    +0.005 A 
ATOM     29  C   UNL     1      42.153  25.819  52.186  0.00  0.00    +0.013 A 
BRANCH  18  19
ATOM     19  C   UNL     1      45.265  23.839  50.987  0.00  0.00    +0.119 C 
BRANCH  19  20
ATOM     20  N   UNL     1      46.258  23.183  51.888  0.00  0.00    -0.302 NA
ATOM     21  C   UNL     1      46.401  23.923  53.221  0.00  0.00    +0.066 C 
ATOM     22  C   UNL     1      47.427  23.210  54.161  0.00  0.00    -0.064 C 
ATOM     23  N   UNL     1      48.778  23.107  53.451  0.00  0.00    +0.379 N 
ATOM     24  C   UNL     1      49.761  22.489  54.354  0.00  0.00    -0.096 C 
ATOM     25  H   UNL     1      49.125  24.143  53.232  0.00  0.00    -0.082 HD
ATOM     26  C   UNL     1      48.645  22.374  52.123  0.00  0.00    -0.064 C 
ATOM     27  C   UNL     1      47.601  23.074  51.209  0.00  0.00    +0.066 C 
ENDBRANCH  19  20
ENDBRANCH  18  19
ENDBRANCH  14  15
ENDBRANCH  12  13
TORSDOF 6
ENDMDL
MODEL 3
REMARK VINA RESULT:      -8.1     20.821     23.239
REMARK  Name = C:\Users\Docking\Desktop\test protocol\1iep_ligandH.pdb
REMARK  8 active torsions:
REMARK  status: ('A' for Active; 'I' for Inactive)
REMARK    1  A    between atoms: _5  and  _11
REMARK    2  A    between atoms: _19  and  _21
REMARK    3  A    between atoms: _22  and  _66
REMARK    4  A    between atoms: _27  and  _30
REMARK    5  A    between atoms: _32  and  _33
REMARK    6  A    between atoms: _38  and  _43
REMARK    7  A    between atoms: _43  and  _46
REMARK    8  A    between atoms: _53  and  _55
REMARK                            x       y       z     vdW  Elec       q    Type
REMARK                         _______ _______ _______ _____ _____    ______ ____
ROOT
ATOM     10  C   UNL     1      26.813  14.154  48.615  0.00  0.00    +0.038 A 
ATOM     11  C   UNL     1      26.199  13.863  47.370  0.00  0.00    +0.047 A 
ATOM     12  C   UNL     1      26.408  14.717  46.211  0.00  0.00    +0.035 A 
ATOM     32  C   UNL     1      27.250  15.858  46.355  0.00  0.00    +0.024 A 
ATOM     33  C   UNL     1      27.881  16.168  47.614  0.00  0.00    +0.007 A 
ATOM     34  C   UNL     1      27.677  15.331  48.761  0.00  0.00    -0.029 A 
ATOM     35  C   UNL     1      28.374  15.717  50.087  0.00  0.00    +0.045 C 
ENDROOT
BRANCH  10   9
ATOM      4  C   UNL     1      24.366  12.866  52.539  0.00  0.00    +0.077 A 
ATOM      5  C   UNL     1      23.499  14.005  52.444  0.00  0.00    +0.048 A 
ATOM      6  C   UNL     1      23.721  14.902  51.375  0.00  0.00    +0.116 A 
ATOM      7  N   UNL     1      24.737  14.667  50.474  0.00  0.00    -0.223 NA
ATOM      8  C   UNL     1      25.556  13.560  50.595  0.00  0.00    +0.220 A 
ATOM      9  N   UNL     1      26.578  13.300  49.695  0.00  0.00    -0.283 N 
ATOM     36  H   UNL     1      27.165  12.476  49.824  0.00  0.00    +0.155 HD
ATOM     37  N   UNL     1      25.365  12.689  51.608  0.00  0.00    -0.214 NA
BRANCH   4   3
ATOM      1  C   UNL     1      24.331  11.082  56.019  0.00  0.00    +0.020 A 
ATOM      2  C   UNL     1      24.449  12.122  55.024  0.00  0.00    +0.013 A 
ATOM      3  C   UNL     1      24.256  11.826  53.610  0.00  0.00    +0.019 A 
ATOM     38  C   UNL     1      23.941  10.456  53.234  0.00  0.00    +0.120 A 
ATOM     39  N   UNL     1      23.836   9.474  54.214  0.00  0.00    -0.263 NA
ATOM     40  C   UNL     1      24.021   9.747  55.578  0.00  0.00    +0.111 A 
ENDBRANCH   4   3
ENDBRANCH  10   9
BRANCH  12  13
ATOM     13  N   UNL     1      25.805  14.477  44.924  0.00  0.00    -0.281 N 
ATOM     14  C   UNL     1      24.702  15.105  44.369  0.00  0.00    +0.248 C 
ATOM     30  O   UNL     1      23.933  15.826  44.988  0.00  0.00    -0.270 OA
ATOM     31  H   UNL     1      26.244  13.756  44.351  0.00  0.00    +0.155 HD
BRANCH  14  15
ATOM     15  C   UNL     1      24.401  14.891  42.921  0.00  0.00    +0.037 A 
ATOM     16  C   UNL     1      23.917  13.599  42.428  0.00  0.00    +0.013 A 
ATOM     17  C   UNL     1      23.650  13.415  41.023  0.00  0.00    +0.005 A 
ATOM     18  C   UNL     1      23.867  14.527  40.101  0.00  0.00    -0.033 A 
ATOM     28  C   UNL     1      24.343  15.799  40.618  0.00  0.00    +0.005 A 
ATOM     29  C   UNL     1      24.606  15.984  41.994  0.00  0.00    +0.013 A 
BRANCH  18  19
ATOM     19  C   UNL     1      23.629  14.414  38.584  0.00  0.00    +0.119 C 
BRANCH  19  20
ATOM     20  N   UNL     1      22.215  14.463  38.108  0.00  0.00    -0.302 NA
ATOM     21  C   UNL     1      21.977  13.532  36.916  0.00  0.00    +0.066 C 
ATOM     22  C   UNL     1      20.487  13.579  36.445  0.00  0.00    -0.064 C 
ATOM     23  N   UNL     1      20.112  15.019  36.090  0.00  0.00    +0.379 N 
ATOM     24  C   UNL     1      18.729  15.058  35.592  0.00  0.00    -0.096 C 
ATOM     25  H   UNL     1      20.780  15.347  35.260  0.00  0.00    -0.082 HD
ATOM     26  C   UNL     1      20.348  15.952  37.269  0.00  0.00    -0.064 C 
ATOM     27  C   UNL     1      21.825  15.876  37.748  0.00  0.00    +0.066 C 
ENDBRANCH  19  20
ENDBRANCH  18  19
ENDBRANCH  14  15
ENDBRANCH  12  13
TORSDOF 6
ENDMDL
MODEL 4
REMARK VINA RESULT:      -8.1      2.429     12.339
REMARK  Name = C:\Users\Docking\Desktop\test protocol\1iep_ligandH.pdb
REMARK  8 active torsions:
REMARK  status: ('A' for Active; 'I' for Inactive)
REMARK    1  A    between atoms: _5  and  _11
REMARK    2  A    between atoms: _19  and  _21
REMARK    3  A    between atoms: _22  and  _66
REMARK    4  A    between atoms: _27  and  _30
REMARK    5  A    between atoms: _32  and  _33
REMARK    6  A    between atoms: _38  and  _43
REMARK    7  A    between atoms: _43  and  _46
REMARK    8  A    between atoms: _53  and  _55
REMARK                            x       y       z     vdW  Elec       q    Type
REMARK                         _______ _______ _______ _____ _____    ______ ____
ROOT
ATOM     10  C   UNL     1      41.070   1.708  41.448  0.00  0.00    +0.038 A 
ATOM     11  C   UNL     1      39.953   1.418  40.623  0.00  0.00    +0.047 A 
ATOM     12  C   UNL     1      38.667   1.054  41.198  0.00  0.00    +0.035 A 
ATOM     32  C   UNL     1      38.553   0.997  42.618  0.00  0.00    +0.024 A 
ATOM     33  C   UNL     1      39.678   1.288  43.471  0.00  0.00    +0.007 A 
ATOM     34  C   UNL     1      40.950   1.645  42.910  0.00  0.00    -0.029 A 
ATOM     35  C   UNL     1      42.123   1.940  43.873  0.00  0.00    +0.045 C 
ENDROOT
BRANCH  10   9
ATOM      4  C   UNL     1      44.460   4.897  40.276  0.00  0.00    +0.077 A 
ATOM      5  C   UNL     1      43.745   5.974  40.898  0.00  0.00    +0.048 A 
ATOM      6  C   UNL     1      42.505   5.667  41.503  0.00  0.00    +0.116 A 
ATOM      7  N   UNL     1      42.026   4.375  41.481  0.00  0.00    -0.223 NA
ATOM      8  C   UNL     1      42.740   3.360  40.870  0.00  0.00    +0.220 A 
ATOM      9  N   UNL     1      42.280   2.052  40.843  0.00  0.00    -0.283 N 
ATOM     36  H   UNL     1      42.833   1.333  40.376  0.00  0.00    +0.155 HD
ATOM     37  N   UNL     1      43.925   3.628  40.285  0.00  0.00    -0.214 NA
BRANCH   4   3
ATOM      1  C   UNL     1      47.799   6.425  38.929  0.00  0.00    +0.020 A 
ATOM      2  C   UNL     1      46.523   6.319  39.598  0.00  0.00    +0.013 A 
ATOM      3  C   UNL     1      45.784   5.062  39.598  0.00  0.00    +0.019 A 
ATOM     38  C   UNL     1      46.370   3.923  38.907  0.00  0.00    +0.120 A 
ATOM     39  N   UNL     1      47.599   4.056  38.270  0.00  0.00    -0.263 NA
ATOM     40  C   UNL     1      48.318   5.261  38.262  0.00  0.00    +0.111 A 
ENDBRANCH   4   3
ENDBRANCH  10   9
BRANCH  12  13
ATOM     13  N   UNL     1      37.500   0.741  40.410  0.00  0.00    -0.281 N 
ATOM     14  C   UNL     1      36.741   1.602  39.635  0.00  0.00    +0.248 C 
ATOM     30  O   UNL     1      36.825   2.820  39.670  0.00  0.00    -0.270 OA
ATOM     31  H   UNL     1      37.198  -0.233  40.427  0.00  0.00    +0.155 HD
BRANCH  14  15
ATOM     15  C   UNL     1      35.733   1.026  38.694  0.00  0.00    +0.037 A 
ATOM     16  C   UNL     1      35.978   0.983  37.250  0.00  0.00    +0.013 A 
ATOM     17  C   UNL     1      34.981   0.437  36.363  0.00  0.00    +0.005 A 
ATOM     18  C   UNL     1      33.729  -0.071  36.918  0.00  0.00    -0.033 A 
ATOM     28  C   UNL     1      33.514  -0.021  38.355  0.00  0.00    +0.005 A 
ATOM     29  C   UNL     1      34.488   0.514  39.227  0.00  0.00    +0.013 A 
BRANCH  18  19
ATOM     19  C   UNL     1      32.601  -0.651  36.045  0.00  0.00    +0.119 C 
BRANCH  19  20
ATOM     20  N   UNL     1      32.119   0.186  34.906  0.00  0.00    -0.302 NA
ATOM     21  C   UNL     1      31.084   1.222  35.354  0.00  0.00    +0.066 C 
ATOM     22  C   UNL     1      30.606   2.105  34.155  0.00  0.00    -0.064 C 
ATOM     23  N   UNL     1      30.032   1.204  33.060  0.00  0.00    +0.379 N 
ATOM     24  C   UNL     1      29.529   2.035  31.956  0.00  0.00    -0.096 C 
ATOM     25  H   UNL     1      29.164   0.656  33.494  0.00  0.00    -0.082 HD
ATOM     26  C   UNL     1      31.054   0.169  32.611  0.00  0.00    -0.064 C 
ATOM     27  C   UNL     1      31.544  -0.683  33.815  0.00  0.00    +0.066 C 
ENDBRANCH  19  20
ENDBRANCH  18  19
ENDBRANCH  14  15
ENDBRANCH  12  13
TORSDOF 6
ENDMDL
MODEL 5
REMARK VINA RESULT:      -8.1     20.866     25.226
REMARK  Name = C:\Users\Docking\Desktop\test protocol\1iep_ligandH.pdb
REMARK  8 active torsions:
REMARK  status: ('A' for Active; 'I' for Inactive)
REMARK    1  A    between atoms: _5  and  _11
REMARK    2  A    between atoms: _19  and  _21
REMARK    3  A    between atoms: _22  and  _66
REMARK    4  A    between atoms: _27  and  _30
REMARK    5  A    between atoms: _32  and  _33
REMARK    6  A    between atoms: _38  and  _43
REMARK    7  A    between atoms: _43  and  _46
REMARK    8  A    between atoms: _53  and  _55
REMARK                            x       y       z     vdW  Elec       q    Type
REMARK                         _______ _______ _______ _____ _____    ______ ____
ROOT
ATOM     10  C   UNL     1      26.432  17.889  48.121  0.00  0.00    +0.038 A 
ATOM     11  C   UNL     1      26.014  17.466  46.833  0.00  0.00    +0.047 A 
ATOM     12  C   UNL     1      26.517  16.234  46.246  0.00  0.00    +0.035 A 
ATOM     32  C   UNL     1      27.444  15.456  46.999  0.00  0.00    +0.024 A 
ATOM     33  C   UNL     1      27.880  15.872  48.309  0.00  0.00    +0.007 A 
ATOM     34  C   UNL     1      27.389  17.087  48.892  0.00  0.00    -0.029 A 
ATOM     35  C   UNL     1      27.897  17.488  50.297  0.00  0.00    +0.045 C 
ENDROOT
BRANCH  10   9
ATOM      4  C   UNL     1      23.047  20.388  50.430  0.00  0.00    +0.077 A 
ATOM      5  C   UNL     1      22.222  19.226  50.601  0.00  0.00    +0.048 A 
ATOM      6  C   UNL     1      22.703  18.007  50.073  0.00  0.00    +0.116 A 
ATOM      7  N   UNL     1      23.918  17.963  49.426  0.00  0.00    -0.223 NA
ATOM      8  C   UNL     1      24.688  19.103  49.277  0.00  0.00    +0.220 A 
ATOM      9  N   UNL     1      25.917  19.081  48.636  0.00  0.00    -0.283 N 
ATOM     36  H   UNL     1      26.451  19.944  48.541  0.00  0.00    +0.155 HD
ATOM     37  N   UNL     1      24.251  20.280  49.771  0.00  0.00    -0.214 NA
BRANCH   4   3
ATOM      1  C   UNL     1      21.514  23.293  52.555  0.00  0.00    +0.020 A 
ATOM      2  C   UNL     1      21.840  21.958  52.109  0.00  0.00    +0.013 A 
ATOM      3  C   UNL     1      22.678  21.748  50.935  0.00  0.00    +0.019 A 
ATOM     38  C   UNL     1      23.175  22.920  50.230  0.00  0.00    +0.120 A 
ATOM     39  N   UNL     1      22.843  24.194  50.682  0.00  0.00    -0.263 NA
ATOM     40  C   UNL     1      22.036  24.407  51.809  0.00  0.00    +0.111 A 
ENDBRANCH   4   3
ENDBRANCH  10   9
BRANCH  12  13
ATOM     13  N   UNL     1      26.135  15.758  44.940  0.00  0.00    -0.281 N 
ATOM     14  C   UNL     1      25.009  15.028  44.596  0.00  0.00    +0.248 C 
ATOM     30  O   UNL     1      24.263  14.488  45.399  0.00  0.00    -0.270 OA
ATOM     31  H   UNL     1      26.772  15.986  44.177  0.00  0.00    +0.155 HD
BRANCH  14  15
ATOM     15  C   UNL     1      24.670  14.862  43.149  0.00  0.00    +0.037 A 
ATOM     16  C   UNL     1      24.238  13.569  42.613  0.00  0.00    +0.013 A 
ATOM     17  C   UNL     1      23.934  13.432  41.211  0.00  0.00    +0.005 A 
ATOM     18  C   UNL     1      24.060  14.594  40.334  0.00  0.00    -0.033 A 
ATOM     28  C   UNL     1      24.486  15.866  40.893  0.00  0.00    +0.005 A 
ATOM     29  C   UNL     1      24.786  16.004  42.267  0.00  0.00    +0.013 A 
BRANCH  18  19
ATOM     19  C   UNL     1      23.777  14.535  38.822  0.00  0.00    +0.119 C 
BRANCH  19  20
ATOM     20  N   UNL     1      22.355  14.666  38.386  0.00  0.00    -0.302 NA
ATOM     21  C   UNL     1      22.015  13.713  37.237  0.00  0.00    +0.066 C 
ATOM     22  C   UNL     1      20.517  13.848  36.810  0.00  0.00    -0.064 C 
ATOM     23  N   UNL     1      20.231  15.298  36.414  0.00  0.00    +0.379 N 
ATOM     24  C   UNL     1      18.839  15.416  35.956  0.00  0.00    -0.096 C 
ATOM     25  H   UNL     1      20.893  15.549  35.553  0.00  0.00    -0.082 HD
ATOM     26  C   UNL     1      20.569  16.253  37.550  0.00  0.00    -0.064 C 
ATOM     27  C   UNL     1      22.052  16.089  37.987  0.00  0.00    +0.066 C 
ENDBRANCH  19  20
ENDBRANCH  18  19
ENDBRANCH  14  15
ENDBRANCH  12  13
TORSDOF 6
ENDMDL
