MODEL 1
REMARK VINA RESULT:      -8.8      0.000      0.000
REMARK  Name = C:\Users\Docking\Desktop\test protocol\1iep_ligandH.pdb
REMARK  8 active torsions:
REMARK  status: ('A' for Active; 'I' for Inactive)
REMARK    1  A    between atoms: _5  and  _11
REMARK    2  A    between atoms: _19  and  _21
REMARK    3  A    between atoms: _22  and  _66
REMARK    4  A    between atoms: _27  and  _30
REMARK    5  A    between atoms: _32  and  _33
REMARK    6  A    between atoms: _38  and  _43
REMARK    7  A    between atoms: _43  and  _46
REMARK    8  A    between atoms: _53  and  _55
REMARK                            x       y       z     vdW  Elec       q    Type
REMARK                         _______ _______ _______ _____ _____    ______ ____
ROOT
ATOM     10  C   UNL     1      27.376  16.233  46.846  0.00  0.00    +0.038 A 
ATOM     11  C   UNL     1      26.880  15.111  47.558  0.00  0.00    +0.047 A 
ATOM     12  C   UNL     1      27.119  14.960  48.985  0.00  0.00    +0.035 A 
ATOM     32  C   UNL     1      27.864  15.972  49.656  0.00  0.00    +0.024 A 
ATOM     33  C   UNL     1      28.377  17.119  48.947  0.00  0.00    +0.007 A 
ATOM     34  C   UNL     1      28.146  17.272  47.539  0.00  0.00    -0.029 A 
ATOM     35  C   UNL     1      28.725  18.518  46.830  0.00  0.00    +0.045 C 
ENDROOT
BRANCH  10   9
ATOM      4  C   UNL     1      24.441  15.918  43.061  0.00  0.00    +0.077 A 
ATOM      5  C   UNL     1      23.336  15.505  43.878  0.00  0.00    +0.048 A 
ATOM      6  C   UNL     1      23.567  15.379  45.266  0.00  0.00    +0.116 A 
ATOM      7  N   UNL     1      24.813  15.648  45.788  0.00  0.00    -0.223 NA
ATOM      8  C   UNL     1      25.858  16.043  44.972  0.00  0.00    +0.220 A 
ATOM      9  N   UNL     1      27.117  16.327  45.476  0.00  0.00    -0.283 N 
ATOM     36  H   UNL     1      27.863  16.608  44.841  0.00  0.00    +0.155 HD
ATOM     37  N   UNL     1      25.663  16.170  43.643  0.00  0.00    -0.214 NA
BRANCH   4   3
ATOM      1  C   UNL     1      23.100  16.054  39.389  0.00  0.00    +0.020 A 
ATOM      2  C   UNL     1      23.131  15.863  40.821  0.00  0.00    +0.013 A 
ATOM      3  C   UNL     1      24.354  16.101  41.578  0.00  0.00    +0.019 A 
ATOM     38  C   UNL     1      25.536  16.535  40.850  0.00  0.00    +0.120 A 
ATOM     39  N   UNL     1      25.477  16.710  39.471  0.00  0.00    -0.263 NA
ATOM     40  C   UNL     1      24.307  16.482  38.732  0.00  0.00    +0.111 A 
ENDBRANCH   4   3
ENDBRANCH  10   9
BRANCH  12  13
ATOM     13  N   UNL     1      26.647  13.839  49.759  0.00  0.00    -0.281 N 
ATOM     14  C   UNL     1      25.414  13.685  50.372  0.00  0.00    +0.248 C 
ATOM     30  O   UNL     1      24.603  14.586  50.527  0.00  0.00    -0.270 OA
ATOM     31  H   UNL     1      27.301  13.064  49.868  0.00  0.00    +0.155 HD
BRANCH  14  15
ATOM     15  C   UNL     1      25.034  12.340  50.901  0.00  0.00    +0.037 A 
ATOM     16  C   UNL     1      25.405  11.112  50.194  0.00  0.00    +0.013 A 
ATOM     17  C   UNL     1      25.011   9.828  50.718  0.00  0.00    +0.005 A 
ATOM     18  C   UNL     1      24.240   9.767  51.958  0.00  0.00    -0.033 A 
ATOM     28  C   UNL     1      23.890  11.001  52.642  0.00  0.00    +0.005 A 
ATOM     29  C   UNL     1      24.274  12.261  52.131  0.00  0.00    +0.013 A 
BRANCH  18  19
ATOM     19  C   UNL     1      23.759   8.442  52.579  0.00  0.00    +0.119 C 
BRANCH  19  20
ATOM     20  N   UNL     1      24.348   8.049  53.893  0.00  0.00    -0.302 NA
ATOM     21  C   UNL     1      25.579   7.153  53.726  0.00  0.00    +0.066 C 
ATOM     22  C   UNL     1      26.196   6.769  55.110  0.00  0.00    -0.064 C 
ATOM     23  N   UNL     1      25.133   6.076  55.965  0.00  0.00    +0.379 N 
ATOM     24  C   UNL     1      25.726   5.662  57.245  0.00  0.00    -0.096 C 
ATOM     25  H   UNL     1      24.815   5.154  55.425  0.00  0.00    -0.082 HD
ATOM     26  C   UNL     1      23.905   6.959  56.134  0.00  0.00    -0.064 C 
ATOM     27  C   UNL     1      23.317   7.358  54.752  0.00  0.00    +0.066 C 
ENDBRANCH  19  20
ENDBRANCH  18  19
ENDBRANCH  14  15
ENDBRANCH  12  13
TORSDOF 6
ENDMDL
MODEL 2
REMARK VINA RESULT:      -8.6      2.721     12.576
REMARK  Name = C:\Users\Docking\Desktop\test protocol\1iep_ligandH.pdb
REMARK  8 active torsions:
REMARK  status: ('A' for Active; 'I' for Inactive)
REMARK    1  A    between atoms: _5  and  _11
REMARK    2  A    between atoms: _19  and  _21
REMARK    3  A    between atoms: _22  and  _66
REMARK    4  A    between atoms: _27  and  _30
REMARK    5  A    between atoms: _32  and  _33
REMARK    6  A    between atoms: _38  and  _43
REMARK    7  A    between atoms: _43  and  _46
REMARK    8  A    between atoms: _53  and  _55
REMARK                            x       y       z     vdW  Elec       q    Type
REMARK                         _______ _______ _______ _____ _____    ______ ____
ROOT
ATOM     10  C   UNL     1      26.860  14.843  48.519  0.00  0.00    +0.038 A 
ATOM     11  C   UNL     1      26.269  14.460  47.288  0.00  0.00    +0.047 A 
ATOM     12  C   UNL     1      26.449  15.259  46.086  0.00  0.00    +0.035 A 
ATOM     32  C   UNL     1      27.241  16.441  46.173  0.00  0.00    +0.024 A 
ATOM     33  C   UNL     1      27.849  16.845  47.416  0.00  0.00    +0.007 A 
ATOM     34  C   UNL     1      27.672  16.063  48.606  0.00  0.00    -0.029 A 
ATOM     35  C   UNL     1      28.342  16.548  49.913  0.00  0.00    +0.045 C 
ENDROOT
BRANCH  10   9
ATOM      4  C   UNL     1      24.337  13.545  52.390  0.00  0.00    +0.077 A 
ATOM      5  C   UNL     1      23.361  14.573  52.172  0.00  0.00    +0.048 A 
ATOM      6  C   UNL     1      23.548  15.419  51.056  0.00  0.00    +0.116 A 
ATOM      7  N   UNL     1      24.635  15.241  50.227  0.00  0.00    -0.223 NA
ATOM      8  C   UNL     1      25.559  14.241  50.467  0.00  0.00    +0.220 A 
ATOM      9  N   UNL     1      26.655  14.039  49.642  0.00  0.00    -0.283 N 
ATOM     36  H   UNL     1      27.317  13.294  49.858  0.00  0.00    +0.155 HD
ATOM     37  N   UNL     1      25.403  13.420  51.527  0.00  0.00    -0.214 NA
BRANCH   4   3
ATOM      1  C   UNL     1      24.579  11.935  55.947  0.00  0.00    +0.020 A 
ATOM      2  C   UNL     1      24.658  12.914  54.888  0.00  0.00    +0.013 A 
ATOM      3  C   UNL     1      24.275  12.569  53.524  0.00  0.00    +0.019 A 
ATOM     38  C   UNL     1      23.812  11.214  53.265  0.00  0.00    +0.120 A 
ATOM     39  N   UNL     1      23.748  10.292  54.305  0.00  0.00    -0.263 NA
ATOM     40  C   UNL     1      24.116  10.612  55.620  0.00  0.00    +0.111 A 
ENDBRANCH   4   3
ENDBRANCH  10   9
BRANCH  12  13
ATOM     13  N   UNL     1      25.866  14.924  44.810  0.00  0.00    -0.281 N 
ATOM     14  C   UNL     1      24.585  15.199  44.361  0.00  0.00    +0.248 C 
ATOM     30  O   UNL     1      23.672  15.589  45.073  0.00  0.00    -0.270 OA
ATOM     31  H   UNL     1      26.472  14.424  44.159  0.00  0.00    +0.155 HD
BRANCH  14  15
ATOM     15  C   UNL     1      24.268  14.998  42.914  0.00  0.00    +0.037 A 
ATOM     16  C   UNL     1      23.690  13.741  42.430  0.00  0.00    +0.013 A 
ATOM     17  C   UNL     1      23.411  13.567  41.027  0.00  0.00    +0.005 A 
ATOM     18  C   UNL     1      23.707  14.654  40.097  0.00  0.00    -0.033 A 
ATOM     28  C   UNL     1      24.276  15.892  40.605  0.00  0.00    +0.005 A 
ATOM     29  C   UNL     1      24.552  16.066  41.980  0.00  0.00    +0.013 A 
BRANCH  18  19
ATOM     19  C   UNL     1      23.461  14.548  38.581  0.00  0.00    +0.119 C 
BRANCH  19  20
ATOM     20  N   UNL     1      22.044  14.609  38.112  0.00  0.00    -0.302 NA
ATOM     21  C   UNL     1      21.810  13.736  36.876  0.00  0.00    +0.066 C 
ATOM     22  C   UNL     1      20.318  13.794  36.413  0.00  0.00    -0.064 C 
ATOM     23  N   UNL     1      19.930  15.246  36.132  0.00  0.00    +0.379 N 
ATOM     24  C   UNL     1      18.545  15.298  35.641  0.00  0.00    -0.096 C 
ATOM     25  H   UNL     1      20.592  15.621  35.317  0.00  0.00    -0.082 HD
ATOM     26  C   UNL     1      20.162  16.122  37.355  0.00  0.00    -0.064 C 
ATOM     27  C   UNL     1      21.641  16.034  37.824  0.00  0.00    +0.066 C 
ENDBRANCH  19  20
ENDBRANCH  18  19
ENDBRANCH  14  15
ENDBRANCH  12  13
TORSDOF 6
ENDMDL
MODEL 3
REMARK VINA RESULT:      -8.5     16.430     21.601
REMARK  Name = C:\Users\Docking\Desktop\test protocol\1iep_ligandH.pdb
REMARK  8 active torsions:
REMARK  status: ('A' for Active; 'I' for Inactive)
REMARK    1  A    between atoms: _5  and  _11
REMARK    2  A    between atoms: _19  and  _21
REMARK    3  A    between atoms: _22  and  _66
REMARK    4  A    between atoms: _27  and  _30
REMARK    5  A    between atoms: _32  and  _33
REMARK    6  A    between atoms: _38  and  _43
REMARK    7  A    between atoms: _43  and  _46
REMARK    8  A    between atoms: _53  and  _55
REMARK                            x       y       z     vdW  Elec       q    Type
REMARK                         _______ _______ _______ _____ _____    ______ ____
ROOT
ATOM     10  C   UNL     1      39.613  27.302  53.955  0.00  0.00    +0.038 A 
ATOM     11  C   UNL     1      38.862  27.264  52.752  0.00  0.00    +0.047 A 
ATOM     12  C   UNL     1      37.449  27.609  52.736  0.00  0.00    +0.035 A 
ATOM     32  C   UNL     1      36.833  27.991  53.964  0.00  0.00    +0.024 A 
ATOM     33  C   UNL     1      37.581  28.033  55.196  0.00  0.00    +0.007 A 
ATOM     34  C   UNL     1      38.974  27.691  55.218  0.00  0.00    -0.029 A 
ATOM     35  C   UNL     1      39.725  27.748  56.569  0.00  0.00    +0.045 C 
ENDROOT
BRANCH  10   9
ATOM      4  C   UNL     1      43.166  24.174  53.163  0.00  0.00    +0.077 A 
ATOM      5  C   UNL     1      42.248  23.123  52.832  0.00  0.00    +0.048 A 
ATOM      6  C   UNL     1      40.869  23.427  52.885  0.00  0.00    +0.116 A 
ATOM      7  N   UNL     1      40.451  24.690  53.242  0.00  0.00    -0.223 NA
ATOM      8  C   UNL     1      41.364  25.680  53.558  0.00  0.00    +0.220 A 
ATOM      9  N   UNL     1      40.966  26.960  53.912  0.00  0.00    -0.283 N 
ATOM     36  H   UNL     1      41.670  27.661  54.145  0.00  0.00    +0.155 HD
ATOM     37  N   UNL     1      42.686  25.415  53.516  0.00  0.00    -0.214 NA
BRANCH   4   3
ATOM      1  C   UNL     1      46.825  23.383  52.029  0.00  0.00    +0.020 A 
ATOM      2  C   UNL     1      45.388  23.523  51.989  0.00  0.00    +0.013 A 
ATOM      3  C   UNL     1      44.654  24.010  53.151  0.00  0.00    +0.019 A 
ATOM     38  C   UNL     1      45.411  24.350  54.346  0.00  0.00    +0.120 A 
ATOM     39  N   UNL     1      46.795  24.203  54.356  0.00  0.00    -0.263 NA
ATOM     40  C   UNL     1      47.511  23.734  53.244  0.00  0.00    +0.111 A 
ENDBRANCH   4   3
ENDBRANCH  10   9
BRANCH  12  13
ATOM     13  N   UNL     1      36.633  27.582  51.548  0.00  0.00    -0.281 N 
ATOM     14  C   UNL     1      36.610  28.499  50.510  0.00  0.00    +0.248 C 
ATOM     30  O   UNL     1      37.138  29.601  50.549  0.00  0.00    -0.270 OA
ATOM     31  H   UNL     1      35.996  26.791  51.461  0.00  0.00    +0.155 HD
BRANCH  14  15
ATOM     15  C   UNL     1      35.884  28.147  49.251  0.00  0.00    +0.037 A 
ATOM     16  C   UNL     1      35.836  26.767  48.762  0.00  0.00    +0.013 A 
ATOM     17  C   UNL     1      35.143  26.458  47.536  0.00  0.00    +0.005 A 
ATOM     18  C   UNL     1      34.490  27.533  46.792  0.00  0.00    -0.033 A 
ATOM     28  C   UNL     1      34.549  28.892  47.303  0.00  0.00    +0.005 A 
ATOM     29  C   UNL     1      35.228  29.199  48.504  0.00  0.00    +0.013 A 
BRANCH  18  19
ATOM     19  C   UNL     1      33.746  27.298  45.464  0.00  0.00    +0.119 C 
BRANCH  19  20
ATOM     20  N   UNL     1      32.255  27.368  45.495  0.00  0.00    -0.302 NA
ATOM     21  C   UNL     1      31.736  28.748  45.082  0.00  0.00    +0.066 C 
ATOM     22  C   UNL     1      30.173  28.797  45.098  0.00  0.00    -0.064 C 
ATOM     23  N   UNL     1      29.668  28.422  46.492  0.00  0.00    +0.379 N 
ATOM     24  C   UNL     1      28.202  28.523  46.526  0.00  0.00    -0.096 C 
ATOM     25  H   UNL     1      30.076  29.170  47.211  0.00  0.00    -0.082 HD
ATOM     26  C   UNL     1      30.182  27.052  46.911  0.00  0.00    -0.064 C 
ATOM     27  C   UNL     1      31.735  27.006  46.864  0.00  0.00    +0.066 C 
ENDBRANCH  19  20
ENDBRANCH  18  19
ENDBRANCH  14  15
ENDBRANCH  12  13
TORSDOF 6
ENDMDL
MODEL 4
REMARK VINA RESULT:      -8.5     21.403     23.674
REMARK  Name = C:\Users\Docking\Desktop\test protocol\1iep_ligandH.pdb
REMARK  8 active torsions:
REMARK  status: ('A' for Active; 'I' for Inactive)
REMARK    1  A    between atoms: _5  and  _11
REMARK    2  A    between atoms: _19  and  _21
REMARK    3  A    between atoms: _22  and  _66
REMARK    4  A    between atoms: _27  and  _30
REMARK    5  A    between atoms: _32  and  _33
REMARK    6  A    between atoms: _38  and  _43
REMARK    7  A    between atoms: _43  and  _46
REMARK    8  A    between atoms: _53  and  _55
REMARK                            x       y       z     vdW  Elec       q    Type
REMARK                         _______ _______ _______ _____ _____    ______ ____
ROOT
ATOM     10  C   UNL     1      39.869   1.287  41.598  0.00  0.00    +0.038 A 
ATOM     11  C   UNL     1      40.968   2.023  41.086  0.00  0.00    +0.047 A 
ATOM     12  C   UNL     1      42.008   2.532  41.966  0.00  0.00    +0.035 A 
ATOM     32  C   UNL     1      41.898   2.272  43.363  0.00  0.00    +0.024 A 
ATOM     33  C   UNL     1      40.787   1.528  43.901  0.00  0.00    +0.007 A 
ATOM     34  C   UNL     1      39.757   1.025  43.038  0.00  0.00    -0.029 A 
ATOM     35  C   UNL     1      38.585   0.239  43.670  0.00  0.00    +0.045 C 
ENDROOT
BRANCH  10   9
ATOM      4  C   UNL     1      35.938   1.910  38.915  0.00  0.00    +0.077 A 
ATOM      5  C   UNL     1      35.788   3.270  39.345  0.00  0.00    +0.048 A 
ATOM      6  C   UNL     1      36.740   3.770  40.262  0.00  0.00    +0.116 A 
ATOM      7  N   UNL     1      37.761   2.960  40.710  0.00  0.00    -0.223 NA
ATOM      8  C   UNL     1      37.875   1.651  40.277  0.00  0.00    +0.220 A 
ATOM      9  N   UNL     1      38.899   0.822  40.708  0.00  0.00    -0.283 N 
ATOM     36  H   UNL     1      38.944  -0.140  40.370  0.00  0.00    +0.155 HD
ATOM     37  N   UNL     1      36.978   1.151  39.402  0.00  0.00    -0.214 NA
BRANCH   4   3
ATOM      1  C   UNL     1      32.716   0.682  37.068  0.00  0.00    +0.020 A 
ATOM      2  C   UNL     1      33.563   1.349  38.030  0.00  0.00    +0.013 A 
ATOM      3  C   UNL     1      35.014   1.239  37.947  0.00  0.00    +0.019 A 
ATOM     38  C   UNL     1      35.580   0.441  36.870  0.00  0.00    +0.120 A 
ATOM     39  N   UNL     1      34.740  -0.191  35.959  0.00  0.00    -0.263 NA
ATOM     40  C   UNL     1      33.342  -0.094  36.030  0.00  0.00    +0.111 A 
ENDBRANCH   4   3
ENDBRANCH  10   9
BRANCH  12  13
ATOM     13  N   UNL     1      43.144   3.292  41.504  0.00  0.00    -0.281 N 
ATOM     14  C   UNL     1      44.139   2.888  40.629  0.00  0.00    +0.248 C 
ATOM     30  O   UNL     1      44.322   1.733  40.275  0.00  0.00    -0.270 OA
ATOM     31  H   UNL     1      43.223   4.242  41.866  0.00  0.00    +0.155 HD
BRANCH  14  15
ATOM     15  C   UNL     1      45.077   3.914  40.079  0.00  0.00    +0.037 A 
ATOM     16  C   UNL     1      46.017   3.587  39.005  0.00  0.00    +0.013 A 
ATOM     17  C   UNL     1      46.922   4.591  38.505  0.00  0.00    +0.005 A 
ATOM     18  C   UNL     1      46.890   5.934  39.078  0.00  0.00    -0.033 A 
ATOM     28  C   UNL     1      45.944   6.233  40.140  0.00  0.00    +0.005 A 
ATOM     29  C   UNL     1      45.056   5.251  40.634  0.00  0.00    +0.013 A 
BRANCH  18  19
ATOM     19  C   UNL     1      47.834   7.061  38.621  0.00  0.00    +0.119 C 
BRANCH  19  20
ATOM     20  N   UNL     1      48.365   6.985  37.227  0.00  0.00    -0.302 NA
ATOM     21  C   UNL     1      49.861   7.308  37.164  0.00  0.00    +0.066 C 
ATOM     22  C   UNL     1      50.405   7.201  35.703  0.00  0.00    -0.064 C 
ATOM     23  N   UNL     1      49.610   8.141  34.795  0.00  0.00    +0.379 N 
ATOM     24  C   UNL     1      50.157   8.087  33.432  0.00  0.00    -0.096 C 
ATOM     25  H   UNL     1      49.753   9.179  35.176  0.00  0.00    -0.082 HD
ATOM     26  C   UNL     1      48.121   7.829  34.854  0.00  0.00    -0.064 C 
ATOM     27  C   UNL     1      47.597   7.909  36.315  0.00  0.00    +0.066 C 
ENDBRANCH  19  20
ENDBRANCH  18  19
ENDBRANCH  14  15
ENDBRANCH  12  13
TORSDOF 6
ENDMDL
MODEL 5
REMARK VINA RESULT:      -8.4      3.533     12.286
REMARK  Name = C:\Users\Docking\Desktop\test protocol\1iep_ligandH.pdb
REMARK  8 active torsions:
REMARK  status: ('A' for Active; 'I' for Inactive)
REMARK    1  A    between atoms: _5  and  _11
REMARK    2  A    between atoms: _19  and  _21
REMARK    3  A    between atoms: _22  and  _66
REMARK    4  A    between atoms: _27  and  _30
REMARK    5  A    between atoms: _32  and  _33
REMARK    6  A    between atoms: _38  and  _43
REMARK    7  A    between atoms: _43  and  _46
REMARK    8  A    between atoms: _53  and  _55
REMARK                            x       y       z     vdW  Elec       q    Type
REMARK                         _______ _______ _______ _____ _____    ______ ____
ROOT
ATOM     10  C   UNL     1      26.481  16.898  48.508  0.00  0.00    +0.038 A 
ATOM     11  C   UNL     1      25.918  16.689  47.223  0.00  0.00    +0.047 A 
ATOM     12  C   UNL     1      26.650  17.033  46.015  0.00  0.00    +0.035 A 
ATOM     32  C   UNL     1      27.956  17.586  46.151  0.00  0.00    +0.024 A 
ATOM     33  C   UNL     1      28.544  17.807  47.449  0.00  0.00    +0.007 A 
ATOM     34  C   UNL     1      27.826  17.472  48.645  0.00  0.00    -0.029 A 
ATOM     35  C   UNL     1      28.503  17.736  50.010  0.00  0.00    +0.045 C 
ENDROOT
BRANCH  10   9
ATOM      4  C   UNL     1      25.082  13.751  51.851  0.00  0.00    +0.077 A 
ATOM      5  C   UNL     1      25.888  12.706  51.290  0.00  0.00    +0.048 A 
ATOM      6  C   UNL     1      26.643  13.017  50.136  0.00  0.00    +0.116 A 
ATOM      7  N   UNL     1      26.588  14.283  49.594  0.00  0.00    -0.223 NA
ATOM      8  C   UNL     1      25.798  15.267  50.159  0.00  0.00    +0.220 A 
ATOM      9  N   UNL     1      25.733  16.549  49.635  0.00  0.00    -0.283 N 
ATOM     36  H   UNL     1      25.133  17.245  50.077  0.00  0.00    +0.155 HD
ATOM     37  N   UNL     1      25.067  14.995  51.260  0.00  0.00    -0.214 NA
BRANCH   4   3
ATOM      1  C   UNL     1      23.888  12.929  55.484  0.00  0.00    +0.020 A 
ATOM      2  C   UNL     1      24.753  13.077  54.336  0.00  0.00    +0.013 A 
ATOM      3  C   UNL     1      24.231  13.579  53.071  0.00  0.00    +0.019 A 
ATOM     38  C   UNL     1      22.820  13.925  53.001  0.00  0.00    +0.120 A 
ATOM     39  N   UNL     1      22.011  13.771  54.123  0.00  0.00    -0.263 NA
ATOM     40  C   UNL     1      22.502  13.287  55.345  0.00  0.00    +0.111 A 
ENDBRANCH   4   3
ENDBRANCH  10   9
BRANCH  12  13
ATOM     13  N   UNL     1      26.126  16.850  44.684  0.00  0.00    -0.281 N 
ATOM     14  C   UNL     1      25.426  15.764  44.186  0.00  0.00    +0.248 C 
ATOM     30  O   UNL     1      25.329  14.685  44.753  0.00  0.00    -0.270 OA
ATOM     31  H   UNL     1      26.291  17.615  44.029  0.00  0.00    +0.155 HD
BRANCH  14  15
ATOM     15  C   UNL     1      24.747  15.888  42.860  0.00  0.00    +0.037 A 
ATOM     16  C   UNL     1      23.343  15.506  42.686  0.00  0.00    +0.013 A 
ATOM     17  C   UNL     1      22.718  15.620  41.392  0.00  0.00    +0.005 A 
ATOM     18  C   UNL     1      23.497  16.119  40.262  0.00  0.00    -0.033 A 
ATOM     28  C   UNL     1      24.886  16.496  40.464  0.00  0.00    +0.005 A 
ATOM     29  C   UNL     1      25.503  16.385  41.730  0.00  0.00    +0.013 A 
BRANCH  18  19
ATOM     19  C   UNL     1      22.917  16.254  38.841  0.00  0.00    +0.119 C 
BRANCH  19  20
ATOM     20  N   UNL     1      22.107  15.112  38.323  0.00  0.00    -0.302 NA
ATOM     21  C   UNL     1      22.984  14.013  37.717  0.00  0.00    +0.066 C 
ATOM     22  C   UNL     1      22.122  12.816  37.200  0.00  0.00    -0.064 C 
ATOM     23  N   UNL     1      21.109  13.327  36.174  0.00  0.00    +0.379 N 
ATOM     24  C   UNL     1      20.335  12.195  35.643  0.00  0.00    -0.096 C 
ATOM     25  H   UNL     1      21.681  13.773  35.327  0.00  0.00    -0.082 HD
ATOM     26  C   UNL     1      20.234  14.422  36.767  0.00  0.00    -0.064 C 
ATOM     27  C   UNL     1      21.102  15.593  37.304  0.00  0.00    +0.066 C 
ENDBRANCH  19  20
ENDBRANCH  18  19
ENDBRANCH  14  15
ENDBRANCH  12  13
TORSDOF 6
ENDMDL
