MODEL 1
REMARK VINA RESULT:      -8.9      0.000      0.000
REMARK  Name = C:\Users\Docking\Desktop\test protocol\1iep_ligandH.pdb
REMARK  8 active torsions:
REMARK  status: ('A' for Active; 'I' for Inactive)
REMARK    1  A    between atoms: _5  and  _11
REMARK    2  A    between atoms: _19  and  _21
REMARK    3  A    between atoms: _22  and  _66
REMARK    4  A    between atoms: _27  and  _30
REMARK    5  A    between atoms: _32  and  _33
REMARK    6  A    between atoms: _38  and  _43
REMARK    7  A    between atoms: _43  and  _46
REMARK    8  A    between atoms: _53  and  _55
REMARK                            x       y       z     vdW  Elec       q    Type
REMARK                         _______ _______ _______ _____ _____    ______ ____
ROOT
ATOM     10  C   UNL     1      27.495  16.266  46.706  0.00  0.00    +0.038 A 
ATOM     11  C   UNL     1      27.025  15.126  47.406  0.00  0.00    +0.047 A 
ATOM     12  C   UNL     1      27.293  14.951  48.825  0.00  0.00    +0.035 A 
ATOM     32  C   UNL     1      28.041  15.958  49.500  0.00  0.00    +0.024 A 
ATOM     33  C   UNL     1      28.527  17.124  48.804  0.00  0.00    +0.007 A 
ATOM     34  C   UNL     1      28.268  17.301  47.404  0.00  0.00    -0.029 A 
ATOM     35  C   UNL     1      28.819  18.566  46.707  0.00  0.00    +0.045 C 
ENDROOT
BRANCH  10   9
ATOM      4  C   UNL     1      24.525  15.872  42.956  0.00  0.00    +0.077 A 
ATOM      5  C   UNL     1      23.463  15.365  43.775  0.00  0.00    +0.048 A 
ATOM      6  C   UNL     1      23.724  15.213  45.155  0.00  0.00    +0.116 A 
ATOM      7  N   UNL     1      24.958  15.548  45.667  0.00  0.00    -0.223 NA
ATOM      8  C   UNL     1      25.962  16.033  44.849  0.00  0.00    +0.220 A 
ATOM      9  N   UNL     1      27.209  16.383  45.344  0.00  0.00    -0.283 N 
ATOM     36  H   UNL     1      27.925  16.731  44.706  0.00  0.00    +0.155 HD
ATOM     37  N   UNL     1      25.738  16.186  43.527  0.00  0.00    -0.214 NA
BRANCH   4   3
ATOM      1  C   UNL     1      25.355  16.685  39.220  0.00  0.00    +0.020 A 
ATOM      2  C   UNL     1      25.527  16.486  40.641  0.00  0.00    +0.013 A 
ATOM      3  C   UNL     1      24.402  16.091  41.480  0.00  0.00    +0.019 A 
ATOM     38  C   UNL     1      23.107  15.903  40.844  0.00  0.00    +0.120 A 
ATOM     39  N   UNL     1      22.971  16.103  39.474  0.00  0.00    -0.263 NA
ATOM     40  C   UNL     1      24.046  16.484  38.657  0.00  0.00    +0.111 A 
ENDBRANCH   4   3
ENDBRANCH  10   9
BRANCH  12  13
ATOM     13  N   UNL     1      26.849  13.810  49.586  0.00  0.00    -0.281 N 
ATOM     14  C   UNL     1      25.739  13.716  50.410  0.00  0.00    +0.248 C 
ATOM     30  O   UNL     1      25.075  14.670  50.786  0.00  0.00    -0.270 OA
ATOM     31  H   UNL     1      27.422  12.970  49.509  0.00  0.00    +0.155 HD
BRANCH  14  15
ATOM     15  C   UNL     1      25.314  12.368  50.898  0.00  0.00    +0.037 A 
ATOM     16  C   UNL     1      25.652  11.150  50.157  0.00  0.00    +0.013 A 
ATOM     17  C   UNL     1      25.215   9.865  50.641  0.00  0.00    +0.005 A 
ATOM     18  C   UNL     1      24.436   9.791  51.874  0.00  0.00    -0.033 A 
ATOM     28  C   UNL     1      24.120  11.014  52.593  0.00  0.00    +0.005 A 
ATOM     29  C   UNL     1      24.546  12.276  52.121  0.00  0.00    +0.013 A 
BRANCH  18  19
ATOM     19  C   UNL     1      23.911   8.464  52.453  0.00  0.00    +0.119 C 
BRANCH  19  20
ATOM     20  N   UNL     1      24.454   8.032  53.776  0.00  0.00    -0.302 NA
ATOM     21  C   UNL     1      25.669   7.112  53.625  0.00  0.00    +0.066 C 
ATOM     22  C   UNL     1      26.238   6.687  55.018  0.00  0.00    -0.064 C 
ATOM     23  N   UNL     1      25.137   6.002  55.828  0.00  0.00    +0.379 N 
ATOM     24  C   UNL     1      25.684   5.550  57.116  0.00  0.00    -0.096 C 
ATOM     25  H   UNL     1      24.813   5.098  55.262  0.00  0.00    -0.082 HD
ATOM     26  C   UNL     1      23.924   6.909  55.981  0.00  0.00    -0.064 C 
ATOM     27  C   UNL     1      23.384   7.349  54.591  0.00  0.00    +0.066 C 
ENDBRANCH  19  20
ENDBRANCH  18  19
ENDBRANCH  14  15
ENDBRANCH  12  13
TORSDOF 6
ENDMDL
MODEL 2
REMARK VINA RESULT:      -8.6      2.752     12.638
REMARK  Name = C:\Users\Docking\Desktop\test protocol\1iep_ligandH.pdb
REMARK  8 active torsions:
REMARK  status: ('A' for Active; 'I' for Inactive)
REMARK    1  A    between atoms: _5  and  _11
REMARK    2  A    between atoms: _19  and  _21
REMARK    3  A    between atoms: _22  and  _66
REMARK    4  A    between atoms: _27  and  _30
REMARK    5  A    between atoms: _32  and  _33
REMARK    6  A    between atoms: _38  and  _43
REMARK    7  A    between atoms: _43  and  _46
REMARK    8  A    between atoms: _53  and  _55
REMARK                            x       y       z     vdW  Elec       q    Type
REMARK                         _______ _______ _______ _____ _____    ______ ____
ROOT
ATOM     10  C   UNL     1      26.738  14.579  48.283  0.00  0.00    +0.038 A 
ATOM     11  C   UNL     1      26.113  14.229  47.059  0.00  0.00    +0.047 A 
ATOM     12  C   UNL     1      26.294  15.039  45.864  0.00  0.00    +0.035 A 
ATOM     32  C   UNL     1      27.120  16.197  45.951  0.00  0.00    +0.024 A 
ATOM     33  C   UNL     1      27.762  16.568  47.187  0.00  0.00    +0.007 A 
ATOM     34  C   UNL     1      27.585  15.775  48.370  0.00  0.00    -0.029 A 
ATOM     35  C   UNL     1      28.293  16.223  49.670  0.00  0.00    +0.045 C 
ENDROOT
BRANCH  10   9
ATOM      4  C   UNL     1      24.367  13.417  52.291  0.00  0.00    +0.077 A 
ATOM      5  C   UNL     1      23.484  14.541  52.165  0.00  0.00    +0.048 A 
ATOM      6  C   UNL     1      23.678  15.398  51.058  0.00  0.00    +0.116 A 
ATOM      7  N   UNL     1      24.683  15.140  50.151  0.00  0.00    -0.223 NA
ATOM      8  C   UNL     1      25.518  14.049  50.304  0.00  0.00    +0.220 A 
ATOM      9  N   UNL     1      26.531  13.766  49.399  0.00  0.00    -0.283 N 
ATOM     36  H   UNL     1      27.130  12.955  49.551  0.00  0.00    +0.155 HD
ATOM     37  N   UNL     1      25.355  13.216  51.353  0.00  0.00    -0.214 NA
BRANCH   4   3
ATOM      1  C   UNL     1      24.530  11.743  55.823  0.00  0.00    +0.020 A 
ATOM      2  C   UNL     1      24.626  12.744  54.785  0.00  0.00    +0.013 A 
ATOM      3  C   UNL     1      24.287  12.420  53.405  0.00  0.00    +0.019 A 
ATOM     38  C   UNL     1      23.850  11.064  53.106  0.00  0.00    +0.120 A 
ATOM     39  N   UNL     1      23.770  10.121  54.126  0.00  0.00    -0.263 NA
ATOM     40  C   UNL     1      24.095  10.421  55.458  0.00  0.00    +0.111 A 
ENDBRANCH   4   3
ENDBRANCH  10   9
BRANCH  12  13
ATOM     13  N   UNL     1      25.678  14.738  44.595  0.00  0.00    -0.281 N 
ATOM     14  C   UNL     1      24.385  15.023  44.187  0.00  0.00    +0.248 C 
ATOM     30  O   UNL     1      23.490  15.392  44.933  0.00  0.00    -0.270 OA
ATOM     31  H   UNL     1      26.267  14.256  43.915  0.00  0.00    +0.155 HD
BRANCH  14  15
ATOM     15  C   UNL     1      24.031  14.860  42.744  0.00  0.00    +0.037 A 
ATOM     16  C   UNL     1      23.528  13.586  42.224  0.00  0.00    +0.013 A 
ATOM     17  C   UNL     1      23.210  13.451  40.824  0.00  0.00    +0.005 A 
ATOM     18  C   UNL     1      23.394  14.595  39.935  0.00  0.00    -0.033 A 
ATOM     28  C   UNL     1      23.889  15.849  40.478  0.00  0.00    +0.005 A 
ATOM     29  C   UNL     1      24.203  15.985  41.849  0.00  0.00    +0.013 A 
BRANCH  18  19
ATOM     19  C   UNL     1      23.100  14.535  38.424  0.00  0.00    +0.119 C 
BRANCH  19  20
ATOM     20  N   UNL     1      21.674  14.664  37.999  0.00  0.00    -0.302 NA
ATOM     21  C   UNL     1      21.369  13.831  36.751  0.00  0.00    +0.066 C 
ATOM     22  C   UNL     1      19.868  13.960  36.333  0.00  0.00    -0.064 C 
ATOM     23  N   UNL     1      19.533  15.433  36.096  0.00  0.00    +0.379 N 
ATOM     24  C   UNL     1      18.138  15.553  35.647  0.00  0.00    -0.096 C 
ATOM     25  H   UNL     1      20.186  15.800  35.270  0.00  0.00    -0.082 HD
ATOM     26  C   UNL     1      19.836  16.270  37.331  0.00  0.00    -0.064 C 
ATOM     27  C   UNL     1      21.323  16.111  37.755  0.00  0.00    +0.066 C 
ENDBRANCH  19  20
ENDBRANCH  18  19
ENDBRANCH  14  15
ENDBRANCH  12  13
TORSDOF 6
ENDMDL
MODEL 3
REMARK VINA RESULT:      -8.6      2.300     12.404
REMARK  Name = C:\Users\Docking\Desktop\test protocol\1iep_ligandH.pdb
REMARK  8 active torsions:
REMARK  status: ('A' for Active; 'I' for Inactive)
REMARK    1  A    between atoms: _5  and  _11
REMARK    2  A    between atoms: _19  and  _21
REMARK    3  A    between atoms: _22  and  _66
REMARK    4  A    between atoms: _27  and  _30
REMARK    5  A    between atoms: _32  and  _33
REMARK    6  A    between atoms: _38  and  _43
REMARK    7  A    between atoms: _43  and  _46
REMARK    8  A    between atoms: _53  and  _55
REMARK                            x       y       z     vdW  Elec       q    Type
REMARK                         _______ _______ _______ _____ _____    ______ ____
ROOT
ATOM     10  C   UNL     1      26.825  13.951  48.750  0.00  0.00    +0.038 A 
ATOM     11  C   UNL     1      26.285  13.903  47.439  0.00  0.00    +0.047 A 
ATOM     12  C   UNL     1      26.505  14.987  46.495  0.00  0.00    +0.035 A 
ATOM     32  C   UNL     1      27.282  16.104  46.918  0.00  0.00    +0.024 A 
ATOM     33  C   UNL     1      27.837  16.170  48.247  0.00  0.00    +0.007 A 
ATOM     34  C   UNL     1      27.621  15.105  49.184  0.00  0.00    -0.029 A 
ATOM     35  C   UNL     1      28.234  15.231  50.598  0.00  0.00    +0.045 C 
ENDROOT
BRANCH  10   9
ATOM      4  C   UNL     1      24.099  11.624  51.944  0.00  0.00    +0.077 A 
ATOM      5  C   UNL     1      23.085  12.638  51.904  0.00  0.00    +0.048 A 
ATOM      6  C   UNL     1      23.306  13.745  51.055  0.00  0.00    +0.116 A 
ATOM      7  N   UNL     1      24.459  13.822  50.305  0.00  0.00    -0.223 NA
ATOM      8  C   UNL     1      25.418  12.828  50.367  0.00  0.00    +0.220 A 
ATOM      9  N   UNL     1      26.582  12.882  49.616  0.00  0.00    -0.283 N 
ATOM     36  H   UNL     1      27.269  12.132  49.695  0.00  0.00    +0.155 HD
ATOM     37  N   UNL     1      25.231  11.762  51.172  0.00  0.00    -0.214 NA
BRANCH   4   3
ATOM      1  C   UNL     1      24.083   7.892  53.113  0.00  0.00    +0.020 A 
ATOM      2  C   UNL     1      24.179   9.048  52.252  0.00  0.00    +0.013 A 
ATOM      3  C   UNL     1      24.009  10.393  52.790  0.00  0.00    +0.019 A 
ATOM     38  C   UNL     1      23.742  10.533  54.213  0.00  0.00    +0.120 A 
ATOM     39  N   UNL     1      23.653   9.401  55.017  0.00  0.00    -0.263 NA
ATOM     40  C   UNL     1      23.813   8.102  54.511  0.00  0.00    +0.111 A 
ENDBRANCH   4   3
ENDBRANCH  10   9
BRANCH  12  13
ATOM     13  N   UNL     1      25.976  14.997  45.153  0.00  0.00    -0.281 N 
ATOM     14  C   UNL     1      24.726  15.422  44.734  0.00  0.00    +0.248 C 
ATOM     30  O   UNL     1      23.790  15.660  45.483  0.00  0.00    -0.270 OA
ATOM     31  H   UNL     1      26.599  14.649  44.424  0.00  0.00    +0.155 HD
BRANCH  14  15
ATOM     15  C   UNL     1      24.474  15.593  43.271  0.00  0.00    +0.037 A 
ATOM     16  C   UNL     1      25.314  16.473  42.454  0.00  0.00    +0.013 A 
ATOM     17  C   UNL     1      25.039  16.633  41.048  0.00  0.00    +0.005 A 
ATOM     18  C   UNL     1      23.919  15.911  40.450  0.00  0.00    -0.033 A 
ATOM     28  C   UNL     1      23.105  15.041  41.283  0.00  0.00    +0.005 A 
ATOM     29  C   UNL     1      23.371  14.882  42.662  0.00  0.00    +0.013 A 
BRANCH  18  19
ATOM     19  C   UNL     1      23.540  16.038  38.963  0.00  0.00    +0.119 C 
BRANCH  19  20
ATOM     20  N   UNL     1      22.581  15.034  38.413  0.00  0.00    -0.302 NA
ATOM     21  C   UNL     1      23.284  13.974  37.561  0.00  0.00    +0.066 C 
ATOM     22  C   UNL     1      22.269  12.919  37.013  0.00  0.00    -0.064 C 
ATOM     23  N   UNL     1      21.184  13.632  36.203  0.00  0.00    +0.379 N 
ATOM     24  C   UNL     1      20.261  12.637  35.638  0.00  0.00    -0.096 C 
ATOM     25  H   UNL     1      21.684  14.151  35.353  0.00  0.00    -0.082 HD
ATOM     26  C   UNL     1      20.481  14.689  37.042  0.00  0.00    -0.064 C 
ATOM     27  C   UNL     1      21.503  15.716  37.606  0.00  0.00    +0.066 C 
ENDBRANCH  19  20
ENDBRANCH  18  19
ENDBRANCH  14  15
ENDBRANCH  12  13
TORSDOF 6
ENDMDL
MODEL 4
REMARK VINA RESULT:      -8.6     21.278     23.522
REMARK  Name = C:\Users\Docking\Desktop\test protocol\1iep_ligandH.pdb
REMARK  8 active torsions:
REMARK  status: ('A' for Active; 'I' for Inactive)
REMARK    1  A    between atoms: _5  and  _11
REMARK    2  A    between atoms: _19  and  _21
REMARK    3  A    between atoms: _22  and  _66
REMARK    4  A    between atoms: _27  and  _30
REMARK    5  A    between atoms: _32  and  _33
REMARK    6  A    between atoms: _38  and  _43
REMARK    7  A    between atoms: _43  and  _46
REMARK    8  A    between atoms: _53  and  _55
REMARK                            x       y       z     vdW  Elec       q    Type
REMARK                         _______ _______ _______ _____ _____    ______ ____
ROOT
ATOM     10  C   UNL     1      39.771   1.183  41.616  0.00  0.00    +0.038 A 
ATOM     11  C   UNL     1      40.894   1.905  41.136  0.00  0.00    +0.047 A 
ATOM     12  C   UNL     1      41.925   2.383  42.044  0.00  0.00    +0.035 A 
ATOM     32  C   UNL     1      41.782   2.106  43.435  0.00  0.00    +0.024 A 
ATOM     33  C   UNL     1      40.646   1.375  43.940  0.00  0.00    +0.007 A 
ATOM     34  C   UNL     1      39.625   0.903  43.050  0.00  0.00    -0.029 A 
ATOM     35  C   UNL     1      38.426   0.130  43.647  0.00  0.00    +0.045 C 
ENDROOT
BRANCH  10   9
ATOM      4  C   UNL     1      35.851   1.885  38.937  0.00  0.00    +0.077 A 
ATOM      5  C   UNL     1      35.686   3.225  39.424  0.00  0.00    +0.048 A 
ATOM      6  C   UNL     1      36.627   3.692  40.368  0.00  0.00    +0.116 A 
ATOM      7  N   UNL     1      37.653   2.873  40.787  0.00  0.00    -0.223 NA
ATOM      8  C   UNL     1      37.783   1.586  40.299  0.00  0.00    +0.220 A 
ATOM      9  N   UNL     1      38.811   0.748  40.700  0.00  0.00    -0.283 N 
ATOM     36  H   UNL     1      38.868  -0.198  40.321  0.00  0.00    +0.155 HD
ATOM     37  N   UNL     1      36.896   1.115  39.397  0.00  0.00    -0.214 NA
BRANCH   4   3
ATOM      1  C   UNL     1      32.657   0.772  36.973  0.00  0.00    +0.020 A 
ATOM      2  C   UNL     1      33.492   1.408  37.966  0.00  0.00    +0.013 A 
ATOM      3  C   UNL     1      34.940   1.249  37.933  0.00  0.00    +0.019 A 
ATOM     38  C   UNL     1      35.517   0.435  36.874  0.00  0.00    +0.120 A 
ATOM     39  N   UNL     1      34.688  -0.166  35.932  0.00  0.00    -0.263 NA
ATOM     40  C   UNL     1      33.293  -0.022  35.954  0.00  0.00    +0.111 A 
ENDBRANCH   4   3
ENDBRANCH  10   9
BRANCH  12  13
ATOM     13  N   UNL     1      43.083   3.128  41.616  0.00  0.00    -0.281 N 
ATOM     14  C   UNL     1      43.983   2.801  40.615  0.00  0.00    +0.248 C 
ATOM     30  O   UNL     1      44.050   1.707  40.076  0.00  0.00    -0.270 OA
ATOM     31  H   UNL     1      43.261   4.002  42.112  0.00  0.00    +0.155 HD
BRANCH  14  15
ATOM     15  C   UNL     1      44.960   3.836  40.157  0.00  0.00    +0.037 A 
ATOM     16  C   UNL     1      44.966   5.183  40.733  0.00  0.00    +0.013 A 
ATOM     17  C   UNL     1      45.908   6.167  40.261  0.00  0.00    +0.005 A 
ATOM     18  C   UNL     1      46.852   5.806  39.206  0.00  0.00    -0.033 A 
ATOM     28  C   UNL     1      46.828   4.461  38.656  0.00  0.00    +0.005 A 
ATOM     29  C   UNL     1      45.906   3.494  39.116  0.00  0.00    +0.013 A 
BRANCH  18  19
ATOM     19  C   UNL     1      47.878   6.798  38.626  0.00  0.00    +0.119 C 
BRANCH  19  20
ATOM     20  N   UNL     1      48.191   6.685  37.171  0.00  0.00    -0.302 NA
ATOM     21  C   UNL     1      49.694   6.536  36.917  0.00  0.00    +0.066 C 
ATOM     22  C   UNL     1      50.002   6.396  35.390  0.00  0.00    -0.064 C 
ATOM     23  N   UNL     1      49.446   7.612  34.647  0.00  0.00    +0.379 N 
ATOM     24  C   UNL     1      49.784   7.512  33.220  0.00  0.00    -0.096 C 
ATOM     25  H   UNL     1      49.954   8.517  35.053  0.00  0.00    -0.082 HD
ATOM     26  C   UNL     1      47.953   7.770  34.896  0.00  0.00    -0.064 C 
ATOM     27  C   UNL     1      47.655   7.878  36.418  0.00  0.00    +0.066 C 
ENDBRANCH  19  20
ENDBRANCH  18  19
ENDBRANCH  14  15
ENDBRANCH  12  13
TORSDOF 6
ENDMDL
MODEL 5
REMARK VINA RESULT:      -8.5      5.612     12.189
REMARK  Name = C:\Users\Docking\Desktop\test protocol\1iep_ligandH.pdb
REMARK  8 active torsions:
REMARK  status: ('A' for Active; 'I' for Inactive)
REMARK    1  A    between atoms: _5  and  _11
REMARK    2  A    between atoms: _19  and  _21
REMARK    3  A    between atoms: _22  and  _66
REMARK    4  A    between atoms: _27  and  _30
REMARK    5  A    between atoms: _32  and  _33
REMARK    6  A    between atoms: _38  and  _43
REMARK    7  A    between atoms: _43  and  _46
REMARK    8  A    between atoms: _53  and  _55
REMARK                            x       y       z     vdW  Elec       q    Type
REMARK                         _______ _______ _______ _____ _____    ______ ____
ROOT
ATOM     10  C   UNL     1      25.023  16.289  48.511  0.00  0.00    +0.038 A 
ATOM     11  C   UNL     1      24.714  16.042  47.149  0.00  0.00    +0.047 A 
ATOM     12  C   UNL     1      25.403  15.004  46.398  0.00  0.00    +0.035 A 
ATOM     32  C   UNL     1      26.399  14.235  47.067  0.00  0.00    +0.024 A 
ATOM     33  C   UNL     1      26.727  14.474  48.450  0.00  0.00    +0.007 A 
ATOM     34  C   UNL     1      26.053  15.498  49.196  0.00  0.00    -0.029 A 
ATOM     35  C   UNL     1      26.449  15.715  50.674  0.00  0.00    +0.045 C 
ENDROOT
BRANCH  10   9
ATOM      4  C   UNL     1      24.633  20.780  50.160  0.00  0.00    +0.077 A 
ATOM      5  C   UNL     1      25.930  21.139  49.662  0.00  0.00    +0.048 A 
ATOM      6  C   UNL     1      26.668  20.136  48.993  0.00  0.00    +0.116 A 
ATOM      7  N   UNL     1      26.139  18.873  48.840  0.00  0.00    -0.223 NA
ATOM      8  C   UNL     1      24.886  18.560  49.334  0.00  0.00    +0.220 A 
ATOM      9  N   UNL     1      24.331  17.299  49.184  0.00  0.00    -0.283 N 
ATOM     36  H   UNL     1      23.407  17.105  49.570  0.00  0.00    +0.155 HD
ATOM     37  N   UNL     1      24.162  19.499  49.978  0.00  0.00    -0.214 NA
BRANCH   4   3
ATOM      1  C   UNL     1      22.599  23.967  51.164  0.00  0.00    +0.020 A 
ATOM      2  C   UNL     1      23.479  23.090  50.427  0.00  0.00    +0.013 A 
ATOM      3  C   UNL     1      23.731  21.730  50.886  0.00  0.00    +0.019 A 
ATOM     38  C   UNL     1      23.070  21.284  52.103  0.00  0.00    +0.120 A 
ATOM     39  N   UNL     1      22.229  22.151  52.793  0.00  0.00    -0.263 NA
ATOM     40  C   UNL     1      21.981  23.463  52.362  0.00  0.00    +0.111 A 
ENDBRANCH   4   3
ENDBRANCH  10   9
BRANCH  12  13
ATOM     13  N   UNL     1      25.137  14.712  45.011  0.00  0.00    -0.281 N 
ATOM     14  C   UNL     1      23.939  14.316  44.439  0.00  0.00    +0.248 C 
ATOM     30  O   UNL     1      22.961  13.945  45.070  0.00  0.00    -0.270 OA
ATOM     31  H   UNL     1      25.928  14.809  44.375  0.00  0.00    +0.155 HD
BRANCH  14  15
ATOM     15  C   UNL     1      23.815  14.320  42.949  0.00  0.00    +0.037 A 
ATOM     16  C   UNL     1      23.545  13.087  42.206  0.00  0.00    +0.013 A 
ATOM     17  C   UNL     1      23.447  13.116  40.768  0.00  0.00    +0.005 A 
ATOM     18  C   UNL     1      23.618  14.384  40.064  0.00  0.00    -0.033 A 
ATOM     28  C   UNL     1      23.880  15.594  40.827  0.00  0.00    +0.005 A 
ATOM     29  C   UNL     1      23.978  15.569  42.236  0.00  0.00    +0.013 A 
BRANCH  18  19
ATOM     19  C   UNL     1      23.551  14.505  38.530  0.00  0.00    +0.119 C 
BRANCH  19  20
ATOM     20  N   UNL     1      22.229  14.255  37.882  0.00  0.00    -0.302 NA
ATOM     21  C   UNL     1      22.351  13.338  36.662  0.00  0.00    +0.066 C 
ATOM     22  C   UNL     1      20.956  13.069  36.010  0.00  0.00    -0.064 C 
ATOM     23  N   UNL     1      20.312  14.401  35.622  0.00  0.00    +0.379 N 
ATOM     24  C   UNL     1      19.026  14.149  34.956  0.00  0.00    -0.096 C 
ATOM     25  H   UNL     1      20.984  14.899  34.885  0.00  0.00    -0.082 HD
ATOM     26  C   UNL     1      20.189  15.321  36.829  0.00  0.00    -0.064 C 
ATOM     27  C   UNL     1      21.577  15.558  37.487  0.00  0.00    +0.066 C 
ENDBRANCH  19  20
ENDBRANCH  18  19
ENDBRANCH  14  15
ENDBRANCH  12  13
TORSDOF 6
ENDMDL
