MODEL 1
REMARK VINA RESULT:      -8.8      0.000      0.000
REMARK  Name = C:\Users\Docking\Desktop\test protocol\1iep_ligandH.pdb
REMARK  8 active torsions:
REMARK  status: ('A' for Active; 'I' for Inactive)
REMARK    1  A    between atoms: _5  and  _11
REMARK    2  A    between atoms: _19  and  _21
REMARK    3  A    between atoms: _22  and  _66
REMARK    4  A    between atoms: _27  and  _30
REMARK    5  A    between atoms: _32  and  _33
REMARK    6  A    between atoms: _38  and  _43
REMARK    7  A    between atoms: _43  and  _46
REMARK    8  A    between atoms: _53  and  _55
REMARK                            x       y       z     vdW  Elec       q    Type
REMARK                         _______ _______ _______ _____ _____    ______ ____
ROOT
ATOM     10  C   UNL     1      26.952  14.879  48.526  0.00  0.00    +0.038 A 
ATOM     11  C   UNL     1      26.448  14.453  47.271  0.00  0.00    +0.047 A 
ATOM     12  C   UNL     1      26.644  15.251  46.070  0.00  0.00    +0.035 A 
ATOM     32  C   UNL     1      27.363  16.477  46.185  0.00  0.00    +0.024 A 
ATOM     33  C   UNL     1      27.882  16.925  47.453  0.00  0.00    +0.007 A 
ATOM     34  C   UNL     1      27.688  16.144  48.641  0.00  0.00    -0.029 A 
ATOM     35  C   UNL     1      28.261  16.676  49.974  0.00  0.00    +0.045 C 
ENDROOT
BRANCH  10   9
ATOM      4  C   UNL     1      24.467  13.666  52.448  0.00  0.00    +0.077 A 
ATOM      5  C   UNL     1      23.539  14.745  52.266  0.00  0.00    +0.048 A 
ATOM      6  C   UNL     1      23.741  15.593  51.155  0.00  0.00    +0.116 A 
ATOM      7  N   UNL     1      24.795  15.370  50.296  0.00  0.00    -0.223 NA
ATOM      8  C   UNL     1      25.672  14.321  50.501  0.00  0.00    +0.220 A 
ATOM      9  N   UNL     1      26.735  14.073  49.646  0.00  0.00    -0.283 N 
ATOM     36  H   UNL     1      27.364  13.293  49.836  0.00  0.00    +0.155 HD
ATOM     37  N   UNL     1      25.502  13.497  51.556  0.00  0.00    -0.214 NA
BRANCH   4   3
ATOM      1  C   UNL     1      24.601  12.040  56.004  0.00  0.00    +0.020 A 
ATOM      2  C   UNL     1      24.697  13.028  54.954  0.00  0.00    +0.013 A 
ATOM      3  C   UNL     1      24.384  12.681  53.574  0.00  0.00    +0.019 A 
ATOM     38  C   UNL     1      23.973  11.315  53.287  0.00  0.00    +0.120 A 
ATOM     39  N   UNL     1      23.891  10.385  54.318  0.00  0.00    -0.263 NA
ATOM     40  C   UNL     1      24.191  10.707  55.650  0.00  0.00    +0.111 A 
ENDBRANCH   4   3
ENDBRANCH  10   9
BRANCH  12  13
ATOM     13  N   UNL     1      26.148  14.874  44.770  0.00  0.00    -0.281 N 
ATOM     14  C   UNL     1      24.842  14.918  44.312  0.00  0.00    +0.248 C 
ATOM     30  O   UNL     1      23.864  15.088  45.025  0.00  0.00    -0.270 OA
ATOM     31  H   UNL     1      26.844  14.533  44.107  0.00  0.00    +0.155 HD
BRANCH  14  15
ATOM     15  C   UNL     1      24.582  14.731  42.852  0.00  0.00    +0.037 A 
ATOM     16  C   UNL     1      24.146  13.438  42.317  0.00  0.00    +0.013 A 
ATOM     17  C   UNL     1      23.919  13.281  40.902  0.00  0.00    +0.005 A 
ATOM     18  C   UNL     1      24.127  14.421  40.012  0.00  0.00    -0.033 A 
ATOM     28  C   UNL     1      24.554  15.693  40.570  0.00  0.00    +0.005 A 
ATOM     29  C   UNL     1      24.779  15.851  41.956  0.00  0.00    +0.013 A 
BRANCH  18  19
ATOM     19  C   UNL     1      23.929  14.338  38.487  0.00  0.00    +0.119 C 
BRANCH  19  20
ATOM     20  N   UNL     1      22.531  14.181  37.986  0.00  0.00    -0.302 NA
ATOM     21  C   UNL     1      22.452  13.224  36.793  0.00  0.00    +0.066 C 
ATOM     22  C   UNL     1      20.980  13.054  36.296  0.00  0.00    -0.064 C 
ATOM     23  N   UNL     1      20.406  14.424  35.931  0.00  0.00    +0.379 N 
ATOM     24  C   UNL     1      19.041  14.261  35.409  0.00  0.00    -0.096 C 
ATOM     25  H   UNL     1      21.033  14.846  35.112  0.00  0.00    -0.082 HD
ATOM     26  C   UNL     1      20.483  15.382  37.111  0.00  0.00    -0.064 C 
ATOM     27  C   UNL     1      21.946  15.521  37.616  0.00  0.00    +0.066 C 
ENDBRANCH  19  20
ENDBRANCH  18  19
ENDBRANCH  14  15
ENDBRANCH  12  13
TORSDOF 6
ENDMDL
MODEL 2
REMARK VINA RESULT:      -8.7      1.585      2.202
REMARK  Name = C:\Users\Docking\Desktop\test protocol\1iep_ligandH.pdb
REMARK  8 active torsions:
REMARK  status: ('A' for Active; 'I' for Inactive)
REMARK    1  A    between atoms: _5  and  _11
REMARK    2  A    between atoms: _19  and  _21
REMARK    3  A    between atoms: _22  and  _66
REMARK    4  A    between atoms: _27  and  _30
REMARK    5  A    between atoms: _32  and  _33
REMARK    6  A    between atoms: _38  and  _43
REMARK    7  A    between atoms: _43  and  _46
REMARK    8  A    between atoms: _53  and  _55
REMARK                            x       y       z     vdW  Elec       q    Type
REMARK                         _______ _______ _______ _____ _____    ______ ____
ROOT
ATOM     10  C   UNL     1      26.304  15.738  48.567  0.00  0.00    +0.038 A 
ATOM     11  C   UNL     1      25.793  15.760  47.244  0.00  0.00    +0.047 A 
ATOM     12  C   UNL     1      26.481  16.480  46.183  0.00  0.00    +0.035 A 
ATOM     32  C   UNL     1      27.689  17.164  46.505  0.00  0.00    +0.024 A 
ATOM     33  C   UNL     1      28.222  17.153  47.844  0.00  0.00    +0.007 A 
ATOM     34  C   UNL     1      27.547  16.447  48.895  0.00  0.00    -0.029 A 
ATOM     35  C   UNL     1      28.161  16.474  50.314  0.00  0.00    +0.045 C 
ENDROOT
BRANCH  10   9
ATOM      4  C   UNL     1      25.263  11.700  50.943  0.00  0.00    +0.077 A 
ATOM      5  C   UNL     1      26.174  10.927  50.148  0.00  0.00    +0.048 A 
ATOM      6  C   UNL     1      26.886  11.605  49.133  0.00  0.00    +0.116 A 
ATOM      7  N   UNL     1      26.693  12.956  48.937  0.00  0.00    -0.223 NA
ATOM      8  C   UNL     1      25.806  13.671  49.721  0.00  0.00    +0.220 A 
ATOM      9  N   UNL     1      25.603  15.031  49.546  0.00  0.00    -0.283 N 
ATOM     36  H   UNL     1      24.934  15.521  50.140  0.00  0.00    +0.155 HD
ATOM     37  N   UNL     1      25.113  13.046  50.695  0.00  0.00    -0.214 NA
BRANCH   4   3
ATOM      1  C   UNL     1      23.225   9.229  53.189  0.00  0.00    +0.020 A 
ATOM      2  C   UNL     1      24.018   9.732  52.091  0.00  0.00    +0.013 A 
ATOM      3  C   UNL     1      24.441  11.127  52.055  0.00  0.00    +0.019 A 
ATOM     38  C   UNL     1      24.043  11.992  53.156  0.00  0.00    +0.120 A 
ATOM     39  N   UNL     1      23.278  11.479  54.199  0.00  0.00    -0.263 NA
ATOM     40  C   UNL     1      22.863  10.140  54.243  0.00  0.00    +0.111 A 
ENDBRANCH   4   3
ENDBRANCH  10   9
BRANCH  12  13
ATOM     13  N   UNL     1      26.005  16.544  44.824  0.00  0.00    -0.281 N 
ATOM     14  C   UNL     1      26.043  15.549  43.860  0.00  0.00    +0.248 C 
ATOM     30  O   UNL     1      26.688  14.516  43.958  0.00  0.00    -0.270 OA
ATOM     31  H   UNL     1      25.591  17.431  44.536  0.00  0.00    +0.155 HD
BRANCH  14  15
ATOM     15  C   UNL     1      25.262  15.735  42.600  0.00  0.00    +0.037 A 
ATOM     16  C   UNL     1      23.882  15.255  42.482  0.00  0.00    +0.013 A 
ATOM     17  C   UNL     1      23.157  15.432  41.249  0.00  0.00    +0.005 A 
ATOM     18  C   UNL     1      23.811  16.095  40.123  0.00  0.00    -0.033 A 
ATOM     28  C   UNL     1      25.178  16.566  40.269  0.00  0.00    +0.005 A 
ATOM     29  C   UNL     1      25.892  16.393  41.475  0.00  0.00    +0.013 A 
BRANCH  18  19
ATOM     19  C   UNL     1      23.120  16.308  38.763  0.00  0.00    +0.119 C 
BRANCH  19  20
ATOM     20  N   UNL     1      22.234  15.213  38.267  0.00  0.00    -0.302 NA
ATOM     21  C   UNL     1      23.023  14.116  37.547  0.00  0.00    +0.066 C 
ATOM     22  C   UNL     1      22.082  12.968  37.055  0.00  0.00    -0.064 C 
ATOM     23  N   UNL     1      21.006  13.552  36.138  0.00  0.00    +0.379 N 
ATOM     24  C   UNL     1      20.155  12.467  35.628  0.00  0.00    -0.096 C 
ATOM     25  H   UNL     1      21.521  14.017  35.266  0.00  0.00    -0.082 HD
ATOM     26  C   UNL     1      20.218  14.646  36.846  0.00  0.00    -0.064 C 
ATOM     27  C   UNL     1      21.166  15.767  37.356  0.00  0.00    +0.066 C 
ENDBRANCH  19  20
ENDBRANCH  18  19
ENDBRANCH  14  15
ENDBRANCH  12  13
TORSDOF 6
ENDMDL
MODEL 3
REMARK VINA RESULT:      -8.4      2.568     12.770
REMARK  Name = C:\Users\Docking\Desktop\test protocol\1iep_ligandH.pdb
REMARK  8 active torsions:
REMARK  status: ('A' for Active; 'I' for Inactive)
REMARK    1  A    between atoms: _5  and  _11
REMARK    2  A    between atoms: _19  and  _21
REMARK    3  A    between atoms: _22  and  _66
REMARK    4  A    between atoms: _27  and  _30
REMARK    5  A    between atoms: _32  and  _33
REMARK    6  A    between atoms: _38  and  _43
REMARK    7  A    between atoms: _43  and  _46
REMARK    8  A    between atoms: _53  and  _55
REMARK                            x       y       z     vdW  Elec       q    Type
REMARK                         _______ _______ _______ _____ _____    ______ ____
ROOT
ATOM     10  C   UNL     1      26.994  15.012  47.454  0.00  0.00    +0.038 A 
ATOM     11  C   UNL     1      26.508  14.053  48.379  0.00  0.00    +0.047 A 
ATOM     12  C   UNL     1      26.672  14.238  49.812  0.00  0.00    +0.035 A 
ATOM     32  C   UNL     1      27.333  15.415  50.270  0.00  0.00    +0.024 A 
ATOM     33  C   UNL     1      27.834  16.400  49.344  0.00  0.00    +0.007 A 
ATOM     34  C   UNL     1      27.678  16.221  47.929  0.00  0.00    -0.029 A 
ATOM     35  C   UNL     1      28.241  17.307  46.983  0.00  0.00    +0.045 C 
ENDROOT
BRANCH  10   9
ATOM      4  C   UNL     1      24.230  14.779  43.537  0.00  0.00    +0.077 A 
ATOM      5  C   UNL     1      23.049  15.115  44.278  0.00  0.00    +0.048 A 
ATOM      6  C   UNL     1      23.194  15.333  45.667  0.00  0.00    +0.116 A 
ATOM      7  N   UNL     1      24.434  15.221  46.259  0.00  0.00    -0.223 NA
ATOM      8  C   UNL     1      25.552  14.894  45.515  0.00  0.00    +0.220 A 
ATOM      9  N   UNL     1      26.810  14.783  46.089  0.00  0.00    -0.283 N 
ATOM     36  H   UNL     1      27.609  14.532  45.507  0.00  0.00    +0.155 HD
ATOM     37  N   UNL     1      25.440  14.679  44.188  0.00  0.00    -0.214 NA
BRANCH   4   3
ATOM      1  C   UNL     1      24.445  15.273  39.663  0.00  0.00    +0.020 A 
ATOM      2  C   UNL     1      24.445  15.575  41.076  0.00  0.00    +0.013 A 
ATOM      3  C   UNL     1      24.239  14.522  42.062  0.00  0.00    +0.019 A 
ATOM     38  C   UNL     1      24.036  13.163  41.582  0.00  0.00    +0.120 A 
ATOM     39  N   UNL     1      24.039  12.903  40.215  0.00  0.00    -0.263 NA
ATOM     40  C   UNL     1      24.234  13.909  39.257  0.00  0.00    +0.111 A 
ENDBRANCH   4   3
ENDBRANCH  10   9
BRANCH  12  13
ATOM     13  N   UNL     1      26.206  13.294  50.798  0.00  0.00    -0.281 N 
ATOM     14  C   UNL     1      24.957  13.230  51.392  0.00  0.00    +0.248 C 
ATOM     30  O   UNL     1      24.112  14.111  51.323  0.00  0.00    -0.270 OA
ATOM     31  H   UNL     1      26.880  12.587  51.093  0.00  0.00    +0.155 HD
BRANCH  14  15
ATOM     15  C   UNL     1      24.598  12.019  52.191  0.00  0.00    +0.037 A 
ATOM     16  C   UNL     1      24.370  12.101  53.636  0.00  0.00    +0.013 A 
ATOM     17  C   UNL     1      24.043  10.914  54.385  0.00  0.00    +0.005 A 
ATOM     18  C   UNL     1      23.939   9.634  53.689  0.00  0.00    -0.033 A 
ATOM     28  C   UNL     1      24.165   9.582  52.254  0.00  0.00    +0.005 A 
ATOM     29  C   UNL     1      24.487  10.743  51.517  0.00  0.00    +0.013 A 
BRANCH  18  19
ATOM     19  C   UNL     1      23.615   8.313  54.412  0.00  0.00    +0.119 C 
BRANCH  19  20
ATOM     20  N   UNL     1      24.749   7.595  55.066  0.00  0.00    -0.302 NA
ATOM     21  C   UNL     1      25.287   8.356  56.281  0.00  0.00    +0.066 C 
ATOM     22  C   UNL     1      26.458   7.579  56.966  0.00  0.00    -0.064 C 
ATOM     23  N   UNL     1      27.570   7.334  55.944  0.00  0.00    +0.379 N 
ATOM     24  C   UNL     1      28.698   6.655  56.600  0.00  0.00    -0.096 C 
ATOM     25  H   UNL     1      27.932   8.329  55.593  0.00  0.00    -0.082 HD
ATOM     26  C   UNL     1      27.043   6.580  54.731  0.00  0.00    -0.064 C 
ATOM     27  C   UNL     1      25.860   7.346  54.076  0.00  0.00    +0.066 C 
ENDBRANCH  19  20
ENDBRANCH  18  19
ENDBRANCH  14  15
ENDBRANCH  12  13
TORSDOF 6
ENDMDL
MODEL 4
REMARK VINA RESULT:      -8.3     20.331     22.118
REMARK  Name = C:\Users\Docking\Desktop\test protocol\1iep_ligandH.pdb
REMARK  8 active torsions:
REMARK  status: ('A' for Active; 'I' for Inactive)
REMARK    1  A    between atoms: _5  and  _11
REMARK    2  A    between atoms: _19  and  _21
REMARK    3  A    between atoms: _22  and  _66
REMARK    4  A    between atoms: _27  and  _30
REMARK    5  A    between atoms: _32  and  _33
REMARK    6  A    between atoms: _38  and  _43
REMARK    7  A    between atoms: _43  and  _46
REMARK    8  A    between atoms: _53  and  _55
REMARK                            x       y       z     vdW  Elec       q    Type
REMARK                         _______ _______ _______ _____ _____    ______ ____
ROOT
ATOM     10  C   UNL     1      38.797  27.019  56.207  0.00  0.00    +0.038 A 
ATOM     11  C   UNL     1      37.992  27.893  55.433  0.00  0.00    +0.047 A 
ATOM     12  C   UNL     1      36.655  28.267  55.867  0.00  0.00    +0.035 A 
ATOM     32  C   UNL     1      36.170  27.735  57.097  0.00  0.00    +0.024 A 
ATOM     33  C   UNL     1      36.975  26.845  57.896  0.00  0.00    +0.007 A 
ATOM     34  C   UNL     1      38.294  26.470  57.472  0.00  0.00    -0.029 A 
ATOM     35  C   UNL     1      39.109  25.507  58.366  0.00  0.00    +0.045 C 
ENDROOT
BRANCH  10   9
ATOM      4  C   UNL     1      41.791  24.329  53.592  0.00  0.00    +0.077 A 
ATOM      5  C   UNL     1      40.725  23.484  53.133  0.00  0.00    +0.048 A 
ATOM      6  C   UNL     1      39.423  23.772  53.600  0.00  0.00    +0.116 A 
ATOM      7  N   UNL     1      39.213  24.828  54.460  0.00  0.00    -0.223 NA
ATOM      8  C   UNL     1      40.263  25.621  54.884  0.00  0.00    +0.220 A 
ATOM      9  N   UNL     1      40.073  26.693  55.743  0.00  0.00    -0.283 N 
ATOM     36  H   UNL     1      40.875  27.250  56.039  0.00  0.00    +0.155 HD
ATOM     37  N   UNL     1      41.516  25.366  54.455  0.00  0.00    -0.214 NA
BRANCH   4   3
ATOM      1  C   UNL     1      45.018  23.647  51.490  0.00  0.00    +0.020 A 
ATOM      2  C   UNL     1      43.622  23.803  51.830  0.00  0.00    +0.013 A 
ATOM      3  C   UNL     1      43.221  24.154  53.186  0.00  0.00    +0.019 A 
ATOM     38  C   UNL     1      44.265  24.343  54.183  0.00  0.00    +0.120 A 
ATOM     39  N   UNL     1      45.600  24.184  53.826  0.00  0.00    -0.263 NA
ATOM     40  C   UNL     1      45.998  23.845  52.525  0.00  0.00    +0.111 A 
ENDBRANCH   4   3
ENDBRANCH  10   9
BRANCH  12  13
ATOM     13  N   UNL     1      35.789  29.144  55.118  0.00  0.00    -0.281 N 
ATOM     14  C   UNL     1      35.099  28.866  53.950  0.00  0.00    +0.248 C 
ATOM     30  O   UNL     1      35.293  27.882  53.251  0.00  0.00    -0.270 OA
ATOM     31  H   UNL     1      35.669  30.084  55.496  0.00  0.00    +0.155 HD
BRANCH  14  15
ATOM     15  C   UNL     1      34.054  29.826  53.482  0.00  0.00    +0.037 A 
ATOM     16  C   UNL     1      34.102  30.406  52.137  0.00  0.00    +0.013 A 
ATOM     17  C   UNL     1      33.090  31.343  51.717  0.00  0.00    +0.005 A 
ATOM     18  C   UNL     1      32.020  31.704  52.644  0.00  0.00    -0.033 A 
ATOM     28  C   UNL     1      31.993  31.109  53.970  0.00  0.00    +0.005 A 
ATOM     29  C   UNL     1      32.984  30.192  54.386  0.00  0.00    +0.013 A 
BRANCH  18  19
ATOM     19  C   UNL     1      30.910  32.711  52.288  0.00  0.00    +0.119 C 
BRANCH  19  20
ATOM     20  N   UNL     1      31.294  33.880  51.442  0.00  0.00    -0.302 NA
ATOM     21  C   UNL     1      31.253  35.195  52.226  0.00  0.00    +0.066 C 
ATOM     22  C   UNL     1      31.679  36.405  51.332  0.00  0.00    -0.064 C 
ATOM     23  N   UNL     1      30.765  36.476  50.107  0.00  0.00    +0.379 N 
ATOM     24  C   UNL     1      31.126  37.647  49.294  0.00  0.00    -0.096 C 
ATOM     25  H   UNL     1      29.722  36.625  50.471  0.00  0.00    -0.082 HD
ATOM     26  C   UNL     1      30.798  35.172  49.323  0.00  0.00    -0.064 C 
ATOM     27  C   UNL     1      30.402  33.972  50.229  0.00  0.00    +0.066 C 
ENDBRANCH  19  20
ENDBRANCH  18  19
ENDBRANCH  14  15
ENDBRANCH  12  13
TORSDOF 6
ENDMDL
MODEL 5
REMARK VINA RESULT:      -8.3      1.524      2.067
REMARK  Name = C:\Users\Docking\Desktop\test protocol\1iep_ligandH.pdb
REMARK  8 active torsions:
REMARK  status: ('A' for Active; 'I' for Inactive)
REMARK    1  A    between atoms: _5  and  _11
REMARK    2  A    between atoms: _19  and  _21
REMARK    3  A    between atoms: _22  and  _66
REMARK    4  A    between atoms: _27  and  _30
REMARK    5  A    between atoms: _32  and  _33
REMARK    6  A    between atoms: _38  and  _43
REMARK    7  A    between atoms: _43  and  _46
REMARK    8  A    between atoms: _53  and  _55
REMARK                            x       y       z     vdW  Elec       q    Type
REMARK                         _______ _______ _______ _____ _____    ______ ____
ROOT
ATOM     10  C   UNL     1      26.612  13.600  49.172  0.00  0.00    +0.038 A 
ATOM     11  C   UNL     1      25.990  13.617  47.898  0.00  0.00    +0.047 A 
ATOM     12  C   UNL     1      26.252  14.687  46.947  0.00  0.00    +0.035 A 
ATOM     32  C   UNL     1      27.155  15.722  47.327  0.00  0.00    +0.024 A 
ATOM     33  C   UNL     1      27.796  15.721  48.619  0.00  0.00    +0.007 A 
ATOM     34  C   UNL     1      27.539  14.670  49.562  0.00  0.00    -0.029 A 
ATOM     35  C   UNL     1      28.249  14.723  50.935  0.00  0.00    +0.045 C 
ENDROOT
BRANCH  10   9
ATOM      4  C   UNL     1      23.859  11.482  52.485  0.00  0.00    +0.077 A 
ATOM      5  C   UNL     1      22.929  12.574  52.495  0.00  0.00    +0.048 A 
ATOM      6  C   UNL     1      23.199  13.664  51.639  0.00  0.00    +0.116 A 
ATOM      7  N   UNL     1      24.319  13.653  50.836  0.00  0.00    -0.223 NA
ATOM      8  C   UNL     1      25.197  12.585  50.851  0.00  0.00    +0.220 A 
ATOM      9  N   UNL     1      26.325  12.549  50.046  0.00  0.00    -0.283 N 
ATOM     36  H   UNL     1      26.952  11.746  50.092  0.00  0.00    +0.155 HD
ATOM     37  N   UNL     1      24.962  11.532  51.661  0.00  0.00    -0.214 NA
BRANCH   4   3
ATOM      1  C   UNL     1      23.241   7.797  53.642  0.00  0.00    +0.020 A 
ATOM      2  C   UNL     1      23.373   8.949  52.780  0.00  0.00    +0.013 A 
ATOM      3  C   UNL     1      23.710  10.256  53.331  0.00  0.00    +0.019 A 
ATOM     38  C   UNL     1      23.908  10.363  54.769  0.00  0.00    +0.120 A 
ATOM     39  N   UNL     1      23.772   9.236  55.573  0.00  0.00    -0.263 NA
ATOM     40  C   UNL     1      23.447   7.974  55.055  0.00  0.00    +0.111 A 
ENDBRANCH   4   3
ENDBRANCH  10   9
BRANCH  12  13
ATOM     13  N   UNL     1      25.644  14.762  45.642  0.00  0.00    -0.281 N 
ATOM     14  C   UNL     1      24.603  15.580  45.233  0.00  0.00    +0.248 C 
ATOM     30  O   UNL     1      23.892  16.224  45.990  0.00  0.00    -0.270 OA
ATOM     31  H   UNL     1      26.026  14.136  44.934  0.00  0.00    +0.155 HD
BRANCH  14  15
ATOM     15  C   UNL     1      24.300  15.687  43.774  0.00  0.00    +0.037 A 
ATOM     16  C   UNL     1      23.005  15.265  43.234  0.00  0.00    +0.013 A 
ATOM     17  C   UNL     1      22.744  15.364  41.819  0.00  0.00    +0.005 A 
ATOM     18  C   UNL     1      23.782  15.888  40.935  0.00  0.00    -0.033 A 
ATOM     28  C   UNL     1      25.056  16.304  41.498  0.00  0.00    +0.005 A 
ATOM     29  C   UNL     1      25.315  16.208  42.883  0.00  0.00    +0.013 A 
BRANCH  18  19
ATOM     19  C   UNL     1      23.599  16.008  39.410  0.00  0.00    +0.119 C 
BRANCH  19  20
ATOM     20  N   UNL     1      22.685  15.028  38.752  0.00  0.00    -0.302 NA
ATOM     21  C   UNL     1      23.454  13.959  37.972  0.00  0.00    +0.066 C 
ATOM     22  C   UNL     1      22.483  12.929  37.308  0.00  0.00    -0.064 C 
ATOM     23  N   UNL     1      21.507  13.670  36.392  0.00  0.00    +0.379 N 
ATOM     24  C   UNL     1      20.630  12.698  35.722  0.00  0.00    -0.096 C 
ATOM     25  H   UNL     1      22.106  14.184  35.606  0.00  0.00    -0.082 HD
ATOM     26  C   UNL     1      20.739  14.737  37.160  0.00  0.00    -0.064 C 
ATOM     27  C   UNL     1      21.714  15.738  37.840  0.00  0.00    +0.066 C 
ENDBRANCH  19  20
ENDBRANCH  18  19
ENDBRANCH  14  15
ENDBRANCH  12  13
TORSDOF 6
ENDMDL
