MODEL 1
REMARK VINA RESULT:      -9.1      0.000      0.000
REMARK  Name = C:\Users\Docking\Desktop\test protocol\1iep_ligandH.pdb
REMARK  8 active torsions:
REMARK  status: ('A' for Active; 'I' for Inactive)
REMARK    1  A    between atoms: _5  and  _11
REMARK    2  A    between atoms: _19  and  _21
REMARK    3  A    between atoms: _22  and  _66
REMARK    4  A    between atoms: _27  and  _30
REMARK    5  A    between atoms: _32  and  _33
REMARK    6  A    between atoms: _38  and  _43
REMARK    7  A    between atoms: _43  and  _46
REMARK    8  A    between atoms: _53  and  _55
REMARK                            x       y       z     vdW  Elec       q    Type
REMARK                         _______ _______ _______ _____ _____    ______ ____
ROOT
ATOM     10  C   UNL     1      38.636  27.087  53.438  0.00  0.00    +0.038 A 
ATOM     11  C   UNL     1      38.012  27.184  52.167  0.00  0.00    +0.047 A 
ATOM     12  C   UNL     1      36.618  27.580  52.042  0.00  0.00    +0.035 A 
ATOM     32  C   UNL     1      35.889  27.872  53.231  0.00  0.00    +0.024 A 
ATOM     33  C   UNL     1      36.507  27.777  54.531  0.00  0.00    +0.007 A 
ATOM     34  C   UNL     1      37.881  27.385  54.661  0.00  0.00    -0.029 A 
ATOM     35  C   UNL     1      38.490  27.294  56.080  0.00  0.00    +0.045 C 
ENDROOT
BRANCH  10   9
ATOM      4  C   UNL     1      42.138  23.846  52.922  0.00  0.00    +0.077 A 
ATOM      5  C   UNL     1      41.215  22.825  52.520  0.00  0.00    +0.048 A 
ATOM      6  C   UNL     1      39.846  23.172  52.465  0.00  0.00    +0.116 A 
ATOM      7  N   UNL     1      39.443  24.449  52.791  0.00  0.00    -0.223 NA
ATOM      8  C   UNL     1      40.360  25.410  53.176  0.00  0.00    +0.220 A 
ATOM      9  N   UNL     1      39.977  26.703  53.500  0.00  0.00    -0.283 N 
ATOM     36  H   UNL     1      40.683  27.380  53.787  0.00  0.00    +0.155 HD
ATOM     37  N   UNL     1      41.672  25.103  53.237  0.00  0.00    -0.214 NA
BRANCH   4   3
ATOM      1  C   UNL     1      45.797  23.659  54.294  0.00  0.00    +0.020 A 
ATOM      2  C   UNL     1      44.370  23.880  54.248  0.00  0.00    +0.013 A 
ATOM      3  C   UNL     1      43.617  23.634  53.024  0.00  0.00    +0.019 A 
ATOM     38  C   UNL     1      44.344  23.160  51.856  0.00  0.00    +0.120 A 
ATOM     39  N   UNL     1      45.719  22.958  51.930  0.00  0.00    -0.263 NA
ATOM     40  C   UNL     1      46.454  23.193  53.101  0.00  0.00    +0.111 A 
ENDBRANCH   4   3
ENDBRANCH  10   9
BRANCH  12  13
ATOM     13  N   UNL     1      35.930  27.688  50.780  0.00  0.00    -0.281 N 
ATOM     14  C   UNL     1      36.385  28.270  49.608  0.00  0.00    +0.248 C 
ATOM     30  O   UNL     1      37.378  28.978  49.529  0.00  0.00    -0.270 OA
ATOM     31  H   UNL     1      34.992  27.287  50.746  0.00  0.00    +0.155 HD
BRANCH  14  15
ATOM     15  C   UNL     1      35.620  28.043  48.344  0.00  0.00    +0.037 A 
ATOM     16  C   UNL     1      35.492  29.096  47.334  0.00  0.00    +0.013 A 
ATOM     17  C   UNL     1      34.734  28.857  46.132  0.00  0.00    +0.005 A 
ATOM     18  C   UNL     1      34.099  27.557  45.932  0.00  0.00    -0.033 A 
ATOM     28  C   UNL     1      34.247  26.527  46.948  0.00  0.00    +0.005 A 
ATOM     29  C   UNL     1      34.988  26.759  48.128  0.00  0.00    +0.013 A 
BRANCH  18  19
ATOM     19  C   UNL     1      33.254  27.220  44.689  0.00  0.00    +0.119 C 
BRANCH  19  20
ATOM     20  N   UNL     1      31.918  27.876  44.573  0.00  0.00    -0.302 NA
ATOM     21  C   UNL     1      32.008  29.248  43.899  0.00  0.00    +0.066 C 
ATOM     22  C   UNL     1      30.598  29.911  43.765  0.00  0.00    -0.064 C 
ATOM     23  N   UNL     1      29.960  30.029  45.150  0.00  0.00    +0.379 N 
ATOM     24  C   UNL     1      28.659  30.704  45.035  0.00  0.00    -0.096 C 
ATOM     25  H   UNL     1      30.622  30.674  45.773  0.00  0.00    -0.082 HD
ATOM     26  C   UNL     1      29.869  28.670  45.829  0.00  0.00    -0.064 C 
ATOM     27  C   UNL     1      31.271  28.007  45.930  0.00  0.00    +0.066 C 
ENDBRANCH  19  20
ENDBRANCH  18  19
ENDBRANCH  14  15
ENDBRANCH  12  13
TORSDOF 6
ENDMDL
MODEL 2
REMARK VINA RESULT:      -8.7     16.922     19.521
REMARK  Name = C:\Users\Docking\Desktop\test protocol\1iep_ligandH.pdb
REMARK  8 active torsions:
REMARK  status: ('A' for Active; 'I' for Inactive)
REMARK    1  A    between atoms: _5  and  _11
REMARK    2  A    between atoms: _19  and  _21
REMARK    3  A    between atoms: _22  and  _66
REMARK    4  A    between atoms: _27  and  _30
REMARK    5  A    between atoms: _32  and  _33
REMARK    6  A    between atoms: _38  and  _43
REMARK    7  A    between atoms: _43  and  _46
REMARK    8  A    between atoms: _53  and  _55
REMARK                            x       y       z     vdW  Elec       q    Type
REMARK                         _______ _______ _______ _____ _____    ______ ____
ROOT
ATOM     10  C   UNL     1      26.782  14.837  48.404  0.00  0.00    +0.038 A 
ATOM     11  C   UNL     1      26.263  14.384  47.165  0.00  0.00    +0.047 A 
ATOM     12  C   UNL     1      26.457  15.148  45.943  0.00  0.00    +0.035 A 
ATOM     32  C   UNL     1      27.187  16.370  46.019  0.00  0.00    +0.024 A 
ATOM     33  C   UNL     1      27.720  16.847  47.271  0.00  0.00    +0.007 A 
ATOM     34  C   UNL     1      27.530  16.098  48.480  0.00  0.00    -0.029 A 
ATOM     35  C   UNL     1      28.118  16.660  49.795  0.00  0.00    +0.045 C 
ENDROOT
BRANCH  10   9
ATOM      4  C   UNL     1      24.201  13.611  52.261  0.00  0.00    +0.077 A 
ATOM      5  C   UNL     1      23.212  14.615  51.992  0.00  0.00    +0.048 A 
ATOM      6  C   UNL     1      23.409  15.431  50.856  0.00  0.00    +0.116 A 
ATOM      7  N   UNL     1      24.515  15.248  50.054  0.00  0.00    -0.223 NA
ATOM      8  C   UNL     1      25.450  14.271  50.343  0.00  0.00    +0.220 A 
ATOM      9  N   UNL     1      26.566  14.063  49.547  0.00  0.00    -0.283 N 
ATOM     36  H   UNL     1      27.236  13.337  49.797  0.00  0.00    +0.155 HD
ATOM     37  N   UNL     1      25.286  13.479  51.423  0.00  0.00    -0.214 NA
BRANCH   4   3
ATOM      1  C   UNL     1      24.381  12.115  55.870  0.00  0.00    +0.020 A 
ATOM      2  C   UNL     1      24.465  13.064  54.784  0.00  0.00    +0.013 A 
ATOM      3  C   UNL     1      24.132  12.668  53.422  0.00  0.00    +0.019 A 
ATOM     38  C   UNL     1      23.713  11.294  53.191  0.00  0.00    +0.120 A 
ATOM     39  N   UNL     1      23.642  10.402  54.256  0.00  0.00    -0.263 NA
ATOM     40  C   UNL     1      23.963  10.771  55.571  0.00  0.00    +0.111 A 
ENDBRANCH   4   3
ENDBRANCH  10   9
BRANCH  12  13
ATOM     13  N   UNL     1      25.947  14.742  44.657  0.00  0.00    -0.281 N 
ATOM     14  C   UNL     1      24.649  14.844  44.184  0.00  0.00    +0.248 C 
ATOM     30  O   UNL     1      23.679  15.108  44.880  0.00  0.00    -0.270 OA
ATOM     31  H   UNL     1      26.625  14.328  44.017  0.00  0.00    +0.155 HD
BRANCH  14  15
ATOM     15  C   UNL     1      24.388  14.606  42.732  0.00  0.00    +0.037 A 
ATOM     16  C   UNL     1      23.986  13.286  42.239  0.00  0.00    +0.013 A 
ATOM     17  C   UNL     1      23.757  13.078  40.831  0.00  0.00    +0.005 A 
ATOM     18  C   UNL     1      23.928  14.196  39.906  0.00  0.00    -0.033 A 
ATOM     28  C   UNL     1      24.321  15.496  40.423  0.00  0.00    +0.005 A 
ATOM     29  C   UNL     1      24.548  15.703  41.802  0.00  0.00    +0.013 A 
BRANCH  18  19
ATOM     19  C   UNL     1      23.725  14.061  38.385  0.00  0.00    +0.119 C 
BRANCH  19  20
ATOM     20  N   UNL     1      22.320  14.062  37.880  0.00  0.00    -0.302 NA
ATOM     21  C   UNL     1      22.166  13.222  36.609  0.00  0.00    +0.066 C 
ATOM     22  C   UNL     1      20.685  13.215  36.107  0.00  0.00    -0.064 C 
ATOM     23  N   UNL     1      20.226  14.654  35.864  0.00  0.00    +0.379 N 
ATOM     24  C   UNL     1      18.854  14.648  35.336  0.00  0.00    -0.096 C 
ATOM     25  H   UNL     1      20.888  15.092  35.081  0.00  0.00    -0.082 HD
ATOM     26  C   UNL     1      20.378  15.497  37.122  0.00  0.00    -0.064 C 
ATOM     27  C   UNL     1      21.847  15.473  37.629  0.00  0.00    +0.066 C 
ENDBRANCH  19  20
ENDBRANCH  18  19
ENDBRANCH  14  15
ENDBRANCH  12  13
TORSDOF 6
ENDMDL
MODEL 3
REMARK VINA RESULT:      -8.6      1.782      2.797
REMARK  Name = C:\Users\Docking\Desktop\test protocol\1iep_ligandH.pdb
REMARK  8 active torsions:
REMARK  status: ('A' for Active; 'I' for Inactive)
REMARK    1  A    between atoms: _5  and  _11
REMARK    2  A    between atoms: _19  and  _21
REMARK    3  A    between atoms: _22  and  _66
REMARK    4  A    between atoms: _27  and  _30
REMARK    5  A    between atoms: _32  and  _33
REMARK    6  A    between atoms: _38  and  _43
REMARK    7  A    between atoms: _43  and  _46
REMARK    8  A    between atoms: _53  and  _55
REMARK                            x       y       z     vdW  Elec       q    Type
REMARK                         _______ _______ _______ _____ _____    ______ ____
ROOT
ATOM     10  C   UNL     1      39.884  25.607  54.276  0.00  0.00    +0.038 A 
ATOM     11  C   UNL     1      39.144  25.806  53.082  0.00  0.00    +0.047 A 
ATOM     12  C   UNL     1      37.926  26.600  53.075  0.00  0.00    +0.035 A 
ATOM     32  C   UNL     1      37.490  27.178  54.303  0.00  0.00    +0.024 A 
ATOM     33  C   UNL     1      38.228  26.985  55.526  0.00  0.00    +0.007 A 
ATOM     34  C   UNL     1      39.430  26.201  55.539  0.00  0.00    -0.029 A 
ATOM     35  C   UNL     1      40.178  26.022  56.880  0.00  0.00    +0.045 C 
ENDROOT
BRANCH  10   9
ATOM      4  C   UNL     1      44.631  25.138  53.745  0.00  0.00    +0.077 A 
ATOM      5  C   UNL     1      44.805  26.545  53.525  0.00  0.00    +0.048 A 
ATOM      6  C   UNL     1      43.646  27.353  53.549  0.00  0.00    +0.116 A 
ATOM      7  N   UNL     1      42.411  26.786  53.778  0.00  0.00    -0.223 NA
ATOM      8  C   UNL     1      42.278  25.426  53.985  0.00  0.00    +0.220 A 
ATOM      9  N   UNL     1      41.047  24.836  54.224  0.00  0.00    -0.283 N 
ATOM     36  H   UNL     1      40.990  23.827  54.365  0.00  0.00    +0.155 HD
ATOM     37  N   UNL     1      43.369  24.632  53.965  0.00  0.00    -0.214 NA
BRANCH   4   3
ATOM      1  C   UNL     1      47.505  22.744  52.600  0.00  0.00    +0.020 A 
ATOM      2  C   UNL     1      46.419  23.695  52.537  0.00  0.00    +0.013 A 
ATOM      3  C   UNL     1      45.759  24.154  53.753  0.00  0.00    +0.019 A 
ATOM     38  C   UNL     1      46.226  23.626  55.026  0.00  0.00    +0.120 A 
ATOM     39  N   UNL     1      47.272  22.710  55.056  0.00  0.00    -0.263 NA
ATOM     40  C   UNL     1      47.914  22.260  53.892  0.00  0.00    +0.111 A 
ENDBRANCH   4   3
ENDBRANCH  10   9
BRANCH  12  13
ATOM     13  N   UNL     1      37.129  26.830  51.896  0.00  0.00    -0.281 N 
ATOM     14  C   UNL     1      37.161  27.924  51.047  0.00  0.00    +0.248 C 
ATOM     30  O   UNL     1      37.733  28.975  51.295  0.00  0.00    -0.270 OA
ATOM     31  H   UNL     1      36.460  26.097  51.658  0.00  0.00    +0.155 HD
BRANCH  14  15
ATOM     15  C   UNL     1      36.441  27.845  49.739  0.00  0.00    +0.037 A 
ATOM     16  C   UNL     1      36.416  26.605  48.959  0.00  0.00    +0.013 A 
ATOM     17  C   UNL     1      35.728  26.561  47.693  0.00  0.00    +0.005 A 
ATOM     18  C   UNL     1      35.058  27.762  47.200  0.00  0.00    -0.033 A 
ATOM     28  C   UNL     1      35.094  28.977  47.996  0.00  0.00    +0.005 A 
ATOM     29  C   UNL     1      35.768  29.024  49.237  0.00  0.00    +0.013 A 
BRANCH  18  19
ATOM     19  C   UNL     1      34.319  27.811  45.850  0.00  0.00    +0.119 C 
BRANCH  19  20
ATOM     20  N   UNL     1      32.834  27.969  45.889  0.00  0.00    -0.302 NA
ATOM     21  C   UNL     1      32.172  26.949  46.820  0.00  0.00    +0.066 C 
ATOM     22  C   UNL     1      30.622  27.143  46.866  0.00  0.00    -0.064 C 
ATOM     23  N   UNL     1      30.054  27.032  45.450  0.00  0.00    +0.379 N 
ATOM     24  C   UNL     1      28.590  27.156  45.498  0.00  0.00    -0.096 C 
ATOM     25  H   UNL     1      30.295  26.013  45.069  0.00  0.00    -0.082 HD
ATOM     26  C   UNL     1      30.709  28.041  44.517  0.00  0.00    -0.064 C 
ATOM     27  C   UNL     1      32.252  27.859  44.501  0.00  0.00    +0.066 C 
ENDBRANCH  19  20
ENDBRANCH  18  19
ENDBRANCH  14  15
ENDBRANCH  12  13
TORSDOF 6
ENDMDL
MODEL 4
REMARK VINA RESULT:      -8.6     16.854     19.600
REMARK  Name = C:\Users\Docking\Desktop\test protocol\1iep_ligandH.pdb
REMARK  8 active torsions:
REMARK  status: ('A' for Active; 'I' for Inactive)
REMARK    1  A    between atoms: _5  and  _11
REMARK    2  A    between atoms: _19  and  _21
REMARK    3  A    between atoms: _22  and  _66
REMARK    4  A    between atoms: _27  and  _30
REMARK    5  A    between atoms: _32  and  _33
REMARK    6  A    between atoms: _38  and  _43
REMARK    7  A    between atoms: _43  and  _46
REMARK    8  A    between atoms: _53  and  _55
REMARK                            x       y       z     vdW  Elec       q    Type
REMARK                         _______ _______ _______ _____ _____    ______ ____
ROOT
ATOM     10  C   UNL     1      26.059  15.734  47.910  0.00  0.00    +0.038 A 
ATOM     11  C   UNL     1      25.530  15.720  46.594  0.00  0.00    +0.047 A 
ATOM     12  C   UNL     1      26.236  16.355  45.492  0.00  0.00    +0.035 A 
ATOM     32  C   UNL     1      27.481  16.994  45.767  0.00  0.00    +0.024 A 
ATOM     33  C   UNL     1      28.033  17.018  47.099  0.00  0.00    +0.007 A 
ATOM     34  C   UNL     1      27.339  16.395  48.190  0.00  0.00    -0.029 A 
ATOM     35  C   UNL     1      27.974  16.458  49.598  0.00  0.00    +0.045 C 
ENDROOT
BRANCH  10   9
ATOM      4  C   UNL     1      25.138  11.976  50.751  0.00  0.00    +0.077 A 
ATOM      5  C   UNL     1      26.161  11.183  50.133  0.00  0.00    +0.048 A 
ATOM      6  C   UNL     1      26.896  11.777  49.082  0.00  0.00    +0.116 A 
ATOM      7  N   UNL     1      26.621  13.068  48.688  0.00  0.00    -0.223 NA
ATOM      8  C   UNL     1      25.626  13.805  49.305  0.00  0.00    +0.220 A 
ATOM      9  N   UNL     1      25.338  15.108  48.930  0.00  0.00    -0.283 N 
ATOM     36  H   UNL     1      24.592  15.616  49.404  0.00  0.00    +0.155 HD
ATOM     37  N   UNL     1      24.909  13.260  50.309  0.00  0.00    -0.214 NA
BRANCH   4   3
ATOM      1  C   UNL     1      22.645   9.863  52.900  0.00  0.00    +0.020 A 
ATOM      2  C   UNL     1      23.458  10.289  51.784  0.00  0.00    +0.013 A 
ATOM      3  C   UNL     1      24.277  11.491  51.875  0.00  0.00    +0.019 A 
ATOM     38  C   UNL     1      24.252  12.245  53.120  0.00  0.00    +0.120 A 
ATOM     39  N   UNL     1      23.458  11.811  54.177  0.00  0.00    -0.263 NA
ATOM     40  C   UNL     1      22.664  10.657  54.100  0.00  0.00    +0.111 A 
ENDBRANCH   4   3
ENDBRANCH  10   9
BRANCH  12  13
ATOM     13  N   UNL     1      25.745  16.380  44.137  0.00  0.00    -0.281 N 
ATOM     14  C   UNL     1      25.436  15.303  43.323  0.00  0.00    +0.248 C 
ATOM     30  O   UNL     1      25.740  14.144  43.565  0.00  0.00    -0.270 OA
ATOM     31  H   UNL     1      25.608  17.305  43.728  0.00  0.00    +0.155 HD
BRANCH  14  15
ATOM     15  C   UNL     1      24.695  15.550  42.049  0.00  0.00    +0.037 A 
ATOM     16  C   UNL     1      25.380  16.058  40.858  0.00  0.00    +0.013 A 
ATOM     17  C   UNL     1      24.639  16.303  39.646  0.00  0.00    +0.005 A 
ATOM     18  C   UNL     1      23.202  16.039  39.620  0.00  0.00    -0.033 A 
ATOM     28  C   UNL     1      22.549  15.530  40.814  0.00  0.00    +0.005 A 
ATOM     29  C   UNL     1      23.272  15.289  42.004  0.00  0.00    +0.013 A 
BRANCH  18  19
ATOM     19  C   UNL     1      22.328  16.292  38.378  0.00  0.00    +0.119 C 
BRANCH  19  20
ATOM     20  N   UNL     1      21.458  15.170  37.914  0.00  0.00    -0.302 NA
ATOM     21  C   UNL     1      22.276  14.005  37.348  0.00  0.00    +0.066 C 
ATOM     22  C   UNL     1      21.352  12.831  36.889  0.00  0.00    -0.064 C 
ATOM     23  N   UNL     1      20.355  13.347  35.849  0.00  0.00    +0.379 N 
ATOM     24  C   UNL     1      19.523  12.233  35.372  0.00  0.00    -0.096 C 
ATOM     25  H   UNL     1      20.940  13.729  34.981  0.00  0.00    -0.082 HD
ATOM     26  C   UNL     1      19.539  14.507  36.402  0.00  0.00    -0.064 C 
ATOM     27  C   UNL     1      20.469  15.656  36.884  0.00  0.00    +0.066 C 
ENDBRANCH  19  20
ENDBRANCH  18  19
ENDBRANCH  14  15
ENDBRANCH  12  13
TORSDOF 6
ENDMDL
MODEL 5
REMARK VINA RESULT:      -8.6     17.032     21.395
REMARK  Name = C:\Users\Docking\Desktop\test protocol\1iep_ligandH.pdb
REMARK  8 active torsions:
REMARK  status: ('A' for Active; 'I' for Inactive)
REMARK    1  A    between atoms: _5  and  _11
REMARK    2  A    between atoms: _19  and  _21
REMARK    3  A    between atoms: _22  and  _66
REMARK    4  A    between atoms: _27  and  _30
REMARK    5  A    between atoms: _32  and  _33
REMARK    6  A    between atoms: _38  and  _43
REMARK    7  A    between atoms: _43  and  _46
REMARK    8  A    between atoms: _53  and  _55
REMARK                            x       y       z     vdW  Elec       q    Type
REMARK                         _______ _______ _______ _____ _____    ______ ____
ROOT
ATOM     10  C   UNL     1      27.413  16.174  46.647  0.00  0.00    +0.038 A 
ATOM     11  C   UNL     1      26.886  15.087  47.390  0.00  0.00    +0.047 A 
ATOM     12  C   UNL     1      27.142  14.956  48.816  0.00  0.00    +0.035 A 
ATOM     32  C   UNL     1      27.937  15.952  49.454  0.00  0.00    +0.024 A 
ATOM     33  C   UNL     1      28.481  17.064  48.714  0.00  0.00    +0.007 A 
ATOM     34  C   UNL     1      28.234  17.197  47.307  0.00  0.00    -0.029 A 
ATOM     35  C   UNL     1      28.847  18.406  46.562  0.00  0.00    +0.045 C 
ENDROOT
BRANCH  10   9
ATOM      4  C   UNL     1      24.441  15.758  42.901  0.00  0.00    +0.077 A 
ATOM      5  C   UNL     1      23.356  15.325  43.734  0.00  0.00    +0.048 A 
ATOM      6  C   UNL     1      23.606  15.216  45.121  0.00  0.00    +0.116 A 
ATOM      7  N   UNL     1      24.852  15.520  45.625  0.00  0.00    -0.223 NA
ATOM      8  C   UNL     1      25.877  15.933  44.793  0.00  0.00    +0.220 A 
ATOM      9  N   UNL     1      27.136  16.251  45.280  0.00  0.00    -0.283 N 
ATOM     36  H   UNL     1      27.867  16.544  44.633  0.00  0.00    +0.155 HD
ATOM     37  N   UNL     1      25.664  16.043  43.466  0.00  0.00    -0.214 NA
BRANCH   4   3
ATOM      1  C   UNL     1      25.296  16.476  39.152  0.00  0.00    +0.020 A 
ATOM      2  C   UNL     1      25.455  16.329  40.581  0.00  0.00    +0.013 A 
ATOM      3  C   UNL     1      24.332  15.925  41.417  0.00  0.00    +0.019 A 
ATOM     38  C   UNL     1      23.052  15.674  40.772  0.00  0.00    +0.120 A 
ATOM     39  N   UNL     1      22.929  15.825  39.394  0.00  0.00    -0.263 NA
ATOM     40  C   UNL     1      24.002  16.215  38.579  0.00  0.00    +0.111 A 
ENDBRANCH   4   3
ENDBRANCH  10   9
BRANCH  12  13
ATOM     13  N   UNL     1      26.641  13.869  49.620  0.00  0.00    -0.281 N 
ATOM     14  C   UNL     1      25.592  13.892  50.524  0.00  0.00    +0.248 C 
ATOM     30  O   UNL     1      25.058  14.911  50.938  0.00  0.00    -0.270 OA
ATOM     31  H   UNL     1      27.118  12.974  49.510  0.00  0.00    +0.155 HD
BRANCH  14  15
ATOM     15  C   UNL     1      25.068  12.597  51.057  0.00  0.00    +0.037 A 
ATOM     16  C   UNL     1      25.291  11.337  50.343  0.00  0.00    +0.013 A 
ATOM     17  C   UNL     1      24.761  10.105  50.870  0.00  0.00    +0.005 A 
ATOM     18  C   UNL     1      24.003  10.127  52.119  0.00  0.00    -0.033 A 
ATOM     28  C   UNL     1      23.802  11.390  52.809  0.00  0.00    +0.005 A 
ATOM     29  C   UNL     1      24.319  12.601  52.295  0.00  0.00    +0.013 A 
BRANCH  18  19
ATOM     19  C   UNL     1      23.383   8.863  52.744  0.00  0.00    +0.119 C 
BRANCH  19  20
ATOM     20  N   UNL     1      24.004   8.345  53.999  0.00  0.00    -0.302 NA
ATOM     21  C   UNL     1      25.257   7.511  53.719  0.00  0.00    +0.066 C 
ATOM     22  C   UNL     1      25.907   6.996  55.044  0.00  0.00    -0.064 C 
ATOM     23  N   UNL     1      24.879   6.181  55.830  0.00  0.00    +0.379 N 
ATOM     24  C   UNL     1      25.504   5.647  57.049  0.00  0.00    -0.096 C 
ATOM     25  H   UNL     1      24.579   5.314  55.196  0.00  0.00    -0.082 HD
ATOM     26  C   UNL     1      23.628   7.002  56.111  0.00  0.00    -0.064 C 
ATOM     27  C   UNL     1      23.007   7.533  54.789  0.00  0.00    +0.066 C 
ENDBRANCH  19  20
ENDBRANCH  18  19
ENDBRANCH  14  15
ENDBRANCH  12  13
TORSDOF 6
ENDMDL
