MODEL 1
REMARK VINA RESULT:      -9.6      0.000      0.000
REMARK  Name = C:\Users\Docking\Desktop\test protocol\1iep_ligandH.pdb
REMARK  8 active torsions:
REMARK  status: ('A' for Active; 'I' for Inactive)
REMARK    1  A    between atoms: _5  and  _11
REMARK    2  A    between atoms: _19  and  _21
REMARK    3  A    between atoms: _22  and  _66
REMARK    4  A    between atoms: _27  and  _30
REMARK    5  A    between atoms: _32  and  _33
REMARK    6  A    between atoms: _38  and  _43
REMARK    7  A    between atoms: _43  and  _46
REMARK    8  A    between atoms: _53  and  _55
REMARK                            x       y       z     vdW  Elec       q    Type
REMARK                         _______ _______ _______ _____ _____    ______ ____
ROOT
ATOM     10  C   UNL     1      17.500  54.088  32.565  0.00  0.00    +0.038 A 
ATOM     11  C   UNL     1      18.349  53.028  32.973  0.00  0.00    +0.047 A 
ATOM     12  C   UNL     1      18.709  52.846  34.371  0.00  0.00    +0.035 A 
ATOM     32  C   UNL     1      18.183  53.763  35.328  0.00  0.00    +0.024 A 
ATOM     33  C   UNL     1      17.320  54.847  34.931  0.00  0.00    +0.007 A 
ATOM     34  C   UNL     1      16.964  55.032  33.553  0.00  0.00    -0.029 A 
ATOM     35  C   UNL     1      16.039  56.216  33.184  0.00  0.00    +0.045 C 
ENDROOT
BRANCH  10   9
ATOM      4  C   UNL     1      18.709  54.993  28.009  0.00  0.00    +0.077 A 
ATOM      5  C   UNL     1      20.073  55.262  28.362  0.00  0.00    +0.048 A 
ATOM      6  C   UNL     1      20.421  55.164  29.728  0.00  0.00    +0.116 A 
ATOM      7  N   UNL     1      19.468  54.820  30.662  0.00  0.00    -0.223 NA
ATOM      8  C   UNL     1      18.161  54.569  30.288  0.00  0.00    +0.220 A 
ATOM      9  N   UNL     1      17.188  54.215  31.210  0.00  0.00    -0.283 N 
ATOM     36  H   UNL     1      16.233  54.045  30.895  0.00  0.00    +0.155 HD
ATOM     37  N   UNL     1      17.803  54.658  28.990  0.00  0.00    -0.214 NA
BRANCH   4   3
ATOM      1  C   UNL     1      18.435  55.568  24.150  0.00  0.00    +0.020 A 
ATOM      2  C   UNL     1      18.986  55.531  25.485  0.00  0.00    +0.013 A 
ATOM      3  C   UNL     1      18.188  55.053  26.607  0.00  0.00    +0.019 A 
ATOM     38  C   UNL     1      16.826  54.616  26.342  0.00  0.00    +0.120 A 
ATOM     39  N   UNL     1      16.322  54.664  25.046  0.00  0.00    -0.263 NA
ATOM     40  C   UNL     1      17.080  55.124  23.959  0.00  0.00    +0.111 A 
ENDBRANCH   4   3
ENDBRANCH  10   9
BRANCH  12  13
ATOM     13  N   UNL     1      19.573  51.793  34.843  0.00  0.00    -0.281 N 
ATOM     14  C   UNL     1      20.946  51.685  34.689  0.00  0.00    +0.248 C 
ATOM     30  O   UNL     1      21.613  52.375  33.933  0.00  0.00    -0.270 OA
ATOM     31  H   UNL     1      19.118  51.036  35.352  0.00  0.00    +0.155 HD
BRANCH  14  15
ATOM     15  C   UNL     1      21.681  50.651  35.479  0.00  0.00    +0.037 A 
ATOM     16  C   UNL     1      20.970  49.563  36.155  0.00  0.00    +0.013 A 
ATOM     17  C   UNL     1      21.702  48.588  36.925  0.00  0.00    +0.005 A 
ATOM     18  C   UNL     1      23.156  48.697  37.021  0.00  0.00    -0.033 A 
ATOM     28  C   UNL     1      23.836  49.784  36.336  0.00  0.00    +0.005 A 
ATOM     29  C   UNL     1      23.122  50.741  35.582  0.00  0.00    +0.013 A 
BRANCH  18  19
ATOM     19  C   UNL     1      24.016  47.715  37.838  0.00  0.00    +0.119 C 
BRANCH  19  20
ATOM     20  N   UNL     1      24.276  48.059  39.267  0.00  0.00    -0.302 NA
ATOM     21  C   UNL     1      24.245  46.823  40.171  0.00  0.00    +0.066 C 
ATOM     22  C   UNL     1      24.542  47.198  41.659  0.00  0.00    -0.064 C 
ATOM     23  N   UNL     1      23.526  48.241  42.132  0.00  0.00    +0.379 N 
ATOM     24  C   UNL     1      23.767  48.553  43.548  0.00  0.00    -0.096 C 
ATOM     25  H   UNL     1      22.512  47.784  42.053  0.00  0.00    -0.082 HD
ATOM     26  C   UNL     1      23.549  49.472  41.237  0.00  0.00    -0.064 C 
ATOM     27  C   UNL     1      23.282  49.084  39.756  0.00  0.00    +0.066 C 
ENDBRANCH  19  20
ENDBRANCH  18  19
ENDBRANCH  14  15
ENDBRANCH  12  13
TORSDOF 6
ENDMDL
MODEL 2
REMARK VINA RESULT:      -9.1      1.704      2.511
REMARK  Name = C:\Users\Docking\Desktop\test protocol\1iep_ligandH.pdb
REMARK  8 active torsions:
REMARK  status: ('A' for Active; 'I' for Inactive)
REMARK    1  A    between atoms: _5  and  _11
REMARK    2  A    between atoms: _19  and  _21
REMARK    3  A    between atoms: _22  and  _66
REMARK    4  A    between atoms: _27  and  _30
REMARK    5  A    between atoms: _32  and  _33
REMARK    6  A    between atoms: _38  and  _43
REMARK    7  A    between atoms: _43  and  _46
REMARK    8  A    between atoms: _53  and  _55
REMARK                            x       y       z     vdW  Elec       q    Type
REMARK                         _______ _______ _______ _____ _____    ______ ____
ROOT
ATOM     10  C   UNL     1      18.023  54.651  32.743  0.00  0.00    +0.038 A 
ATOM     11  C   UNL     1      18.840  53.665  33.353  0.00  0.00    +0.047 A 
ATOM     12  C   UNL     1      18.665  53.302  34.750  0.00  0.00    +0.035 A 
ATOM     32  C   UNL     1      17.645  53.961  35.497  0.00  0.00    +0.024 A 
ATOM     33  C   UNL     1      16.806  54.966  34.894  0.00  0.00    +0.007 A 
ATOM     34  C   UNL     1      16.976  55.331  33.516  0.00  0.00    -0.029 A 
ATOM     35  C   UNL     1      16.052  56.420  32.923  0.00  0.00    +0.045 C 
ENDROOT
BRANCH  10   9
ATOM      4  C   UNL     1      17.040  54.131  28.074  0.00  0.00    +0.077 A 
ATOM      5  C   UNL     1      16.038  53.138  28.335  0.00  0.00    +0.048 A 
ATOM      6  C   UNL     1      15.811  52.784  29.684  0.00  0.00    +0.116 A 
ATOM      7  N   UNL     1      16.538  53.385  30.689  0.00  0.00    -0.223 NA
ATOM      8  C   UNL     1      17.498  54.338  30.403  0.00  0.00    +0.220 A 
ATOM      9  N   UNL     1      18.235  54.961  31.398  0.00  0.00    -0.283 N 
ATOM     36  H   UNL     1      18.939  55.654  31.145  0.00  0.00    +0.155 HD
ATOM     37  N   UNL     1      17.734  54.693  29.122  0.00  0.00    -0.214 NA
BRANCH   4   3
ATOM      1  C   UNL     1      16.870  54.995  24.263  0.00  0.00    +0.020 A 
ATOM      2  C   UNL     1      16.481  54.514  25.568  0.00  0.00    +0.013 A 
ATOM      3  C   UNL     1      17.392  54.614  26.701  0.00  0.00    +0.019 A 
ATOM     38  C   UNL     1      18.700  55.211  26.478  0.00  0.00    +0.120 A 
ATOM     39  N   UNL     1      19.048  55.665  25.210  0.00  0.00    -0.263 NA
ATOM     40  C   UNL     1      18.180  55.572  24.111  0.00  0.00    +0.111 A 
ENDBRANCH   4   3
ENDBRANCH  10   9
BRANCH  12  13
ATOM     13  N   UNL     1      19.469  52.314  35.425  0.00  0.00    -0.281 N 
ATOM     14  C   UNL     1      20.766  51.926  35.131  0.00  0.00    +0.248 C 
ATOM     30  O   UNL     1      21.359  52.220  34.103  0.00  0.00    -0.270 OA
ATOM     31  H   UNL     1      19.030  51.843  36.216  0.00  0.00    +0.155 HD
BRANCH  14  15
ATOM     15  C   UNL     1      21.507  51.077  36.113  0.00  0.00    +0.037 A 
ATOM     16  C   UNL     1      22.870  50.615  35.842  0.00  0.00    +0.013 A 
ATOM     17  C   UNL     1      23.556  49.783  36.799  0.00  0.00    +0.005 A 
ATOM     18  C   UNL     1      22.878  49.409  38.038  0.00  0.00    -0.033 A 
ATOM     28  C   UNL     1      21.527  49.886  38.284  0.00  0.00    +0.005 A 
ATOM     29  C   UNL     1      20.852  50.701  37.348  0.00  0.00    +0.013 A 
BRANCH  18  19
ATOM     19  C   UNL     1      23.525  48.508  39.106  0.00  0.00    +0.119 C 
BRANCH  19  20
ATOM     20  N   UNL     1      22.763  47.296  39.531  0.00  0.00    -0.302 NA
ATOM     21  C   UNL     1      23.203  46.795  40.910  0.00  0.00    +0.066 C 
ATOM     22  C   UNL     1      22.380  45.540  41.349  0.00  0.00    -0.064 C 
ATOM     23  N   UNL     1      22.533  44.440  40.298  0.00  0.00    +0.379 N 
ATOM     24  C   UNL     1      21.807  43.238  40.736  0.00  0.00    -0.096 C 
ATOM     25  H   UNL     1      23.615  44.178  40.238  0.00  0.00    -0.082 HD
ATOM     26  C   UNL     1      22.100  44.931  38.924  0.00  0.00    -0.064 C 
ATOM     27  C   UNL     1      22.904  46.195  38.510  0.00  0.00    +0.066 C 
ENDBRANCH  19  20
ENDBRANCH  18  19
ENDBRANCH  14  15
ENDBRANCH  12  13
TORSDOF 6
ENDMDL
MODEL 3
REMARK VINA RESULT:      -8.3     10.685     20.075
REMARK  Name = C:\Users\Docking\Desktop\test protocol\1iep_ligandH.pdb
REMARK  8 active torsions:
REMARK  status: ('A' for Active; 'I' for Inactive)
REMARK    1  A    between atoms: _5  and  _11
REMARK    2  A    between atoms: _19  and  _21
REMARK    3  A    between atoms: _22  and  _66
REMARK    4  A    between atoms: _27  and  _30
REMARK    5  A    between atoms: _32  and  _33
REMARK    6  A    between atoms: _38  and  _43
REMARK    7  A    between atoms: _43  and  _46
REMARK    8  A    between atoms: _53  and  _55
REMARK                            x       y       z     vdW  Elec       q    Type
REMARK                         _______ _______ _______ _____ _____    ______ ____
ROOT
ATOM     10  C   UNL     1      16.785  56.254  18.259  0.00  0.00    +0.038 A 
ATOM     11  C   UNL     1      17.593  55.329  17.550  0.00  0.00    +0.047 A 
ATOM     12  C   UNL     1      17.460  55.163  16.111  0.00  0.00    +0.035 A 
ATOM     32  C   UNL     1      16.495  55.958  15.425  0.00  0.00    +0.024 A 
ATOM     33  C   UNL     1      15.665  56.902  16.131  0.00  0.00    +0.007 A 
ATOM     34  C   UNL     1      15.790  57.068  17.551  0.00  0.00    -0.029 A 
ATOM     35  C   UNL     1      14.869  58.090  18.257  0.00  0.00    +0.045 C 
ENDROOT
BRANCH  10   9
ATOM      4  C   UNL     1      16.881  54.402  22.686  0.00  0.00    +0.077 A 
ATOM      5  C   UNL     1      16.538  53.093  22.210  0.00  0.00    +0.048 A 
ATOM      6  C   UNL     1      16.338  52.940  20.820  0.00  0.00    +0.116 A 
ATOM      7  N   UNL     1      16.474  54.023  19.978  0.00  0.00    -0.223 NA
ATOM      8  C   UNL     1      16.805  55.272  20.470  0.00  0.00    +0.220 A 
ATOM      9  N   UNL     1      16.955  56.372  19.641  0.00  0.00    -0.283 N 
ATOM     36  H   UNL     1      17.192  57.279  20.043  0.00  0.00    +0.155 HD
ATOM     37  N   UNL     1      16.999  55.444  21.794  0.00  0.00    -0.214 NA
BRANCH   4   3
ATOM      1  C   UNL     1      18.556  55.607  26.010  0.00  0.00    +0.020 A 
ATOM      2  C   UNL     1      18.369  55.316  24.607  0.00  0.00    +0.013 A 
ATOM      3  C   UNL     1      17.127  54.722  24.128  0.00  0.00    +0.019 A 
ATOM     38  C   UNL     1      16.086  54.432  25.102  0.00  0.00    +0.120 A 
ATOM     39  N   UNL     1      16.295  54.721  26.447  0.00  0.00    -0.263 NA
ATOM     40  C   UNL     1      17.487  55.292  26.920  0.00  0.00    +0.111 A 
ENDBRANCH   4   3
ENDBRANCH  10   9
BRANCH  12  13
ATOM     13  N   UNL     1      18.247  54.235  15.338  0.00  0.00    -0.281 N 
ATOM     14  C   UNL     1      17.843  53.032  14.783  0.00  0.00    +0.248 C 
ATOM     30  O   UNL     1      16.793  52.466  15.049  0.00  0.00    -0.270 OA
ATOM     31  H   UNL     1      19.221  54.496  15.181  0.00  0.00    +0.155 HD
BRANCH  14  15
ATOM     15  C   UNL     1      18.741  52.352  13.801  0.00  0.00    +0.037 A 
ATOM     16  C   UNL     1      20.048  51.825  14.203  0.00  0.00    +0.013 A 
ATOM     17  C   UNL     1      20.902  51.189  13.232  0.00  0.00    +0.005 A 
ATOM     18  C   UNL     1      20.450  51.074  11.848  0.00  0.00    -0.033 A 
ATOM     28  C   UNL     1      19.147  51.600  11.476  0.00  0.00    +0.005 A 
ATOM     29  C   UNL     1      18.308  52.225  12.425  0.00  0.00    +0.013 A 
BRANCH  18  19
ATOM     19  C   UNL     1      21.304  50.429  10.740  0.00  0.00    +0.119 C 
BRANCH  19  20
ATOM     20  N   UNL     1      22.758  50.770  10.712  0.00  0.00    -0.302 NA
ATOM     21  C   UNL     1      23.051  51.963   9.798  0.00  0.00    +0.066 C 
ATOM     22  C   UNL     1      24.573  52.320   9.798  0.00  0.00    -0.064 C 
ATOM     23  N   UNL     1      25.381  51.095   9.366  0.00  0.00    +0.379 N 
ATOM     24  C   UNL     1      26.808  51.444   9.309  0.00  0.00    -0.096 C 
ATOM     25  H   UNL     1      25.058  50.824   8.334  0.00  0.00    -0.082 HD
ATOM     26  C   UNL     1      25.094  49.903  10.268  0.00  0.00    -0.064 C 
ATOM     27  C   UNL     1      23.575  49.575  10.284  0.00  0.00    +0.066 C 
ENDBRANCH  19  20
ENDBRANCH  18  19
ENDBRANCH  14  15
ENDBRANCH  12  13
TORSDOF 6
ENDMDL
MODEL 4
REMARK VINA RESULT:      -8.3      4.991     14.324
REMARK  Name = C:\Users\Docking\Desktop\test protocol\1iep_ligandH.pdb
REMARK  8 active torsions:
REMARK  status: ('A' for Active; 'I' for Inactive)
REMARK    1  A    between atoms: _5  and  _11
REMARK    2  A    between atoms: _19  and  _21
REMARK    3  A    between atoms: _22  and  _66
REMARK    4  A    between atoms: _27  and  _30
REMARK    5  A    between atoms: _32  and  _33
REMARK    6  A    between atoms: _38  and  _43
REMARK    7  A    between atoms: _43  and  _46
REMARK    8  A    between atoms: _53  and  _55
REMARK                            x       y       z     vdW  Elec       q    Type
REMARK                         _______ _______ _______ _____ _____    ______ ____
ROOT
ATOM     10  C   UNL     1      23.467  51.566  43.417  0.00  0.00    +0.038 A 
ATOM     11  C   UNL     1      22.794  51.492  42.171  0.00  0.00    +0.047 A 
ATOM     12  C   UNL     1      23.135  50.473  41.191  0.00  0.00    +0.035 A 
ATOM     32  C   UNL     1      24.166  49.543  41.514  0.00  0.00    +0.024 A 
ATOM     33  C   UNL     1      24.862  49.604  42.775  0.00  0.00    +0.007 A 
ATOM     34  C   UNL     1      24.531  50.609  43.745  0.00  0.00    -0.029 A 
ATOM     35  C   UNL     1      25.314  50.631  45.078  0.00  0.00    +0.045 C 
ENDROOT
BRANCH  10   9
ATOM      4  C   UNL     1      20.705  53.261  46.957  0.00  0.00    +0.077 A 
ATOM      5  C   UNL     1      19.911  52.066  46.990  0.00  0.00    +0.048 A 
ATOM      6  C   UNL     1      20.242  51.042  46.074  0.00  0.00    +0.116 A 
ATOM      7  N   UNL     1      21.291  51.211  45.196  0.00  0.00    -0.223 NA
ATOM      8  C   UNL     1      22.035  52.376  45.190  0.00  0.00    +0.220 A 
ATOM      9  N   UNL     1      23.099  52.564  44.322  0.00  0.00    -0.283 N 
ATOM     36  H   UNL     1      23.619  53.441  44.343  0.00  0.00    +0.155 HD
ATOM     37  N   UNL     1      21.738  53.370  46.054  0.00  0.00    -0.214 NA
BRANCH   4   3
ATOM      1  C   UNL     1      19.583  56.735  48.361  0.00  0.00    +0.020 A 
ATOM      2  C   UNL     1      19.773  55.634  47.446  0.00  0.00    +0.013 A 
ATOM      3  C   UNL     1      20.481  54.431  47.865  0.00  0.00    +0.019 A 
ATOM     38  C   UNL     1      20.988  54.373  49.227  0.00  0.00    +0.120 A 
ATOM     39  N   UNL     1      20.792  55.450  50.086  0.00  0.00    -0.263 NA
ATOM     40  C   UNL     1      20.113  56.614  49.694  0.00  0.00    +0.111 A 
ENDBRANCH   4   3
ENDBRANCH  10   9
BRANCH  12  13
ATOM     13  N   UNL     1      22.492  50.354  39.906  0.00  0.00    -0.281 N 
ATOM     14  C   UNL     1      21.339  50.985  39.469  0.00  0.00    +0.248 C 
ATOM     30  O   UNL     1      20.563  51.588  40.196  0.00  0.00    -0.270 OA
ATOM     31  H   UNL     1      22.941  49.728  39.237  0.00  0.00    +0.155 HD
BRANCH  14  15
ATOM     15  C   UNL     1      20.989  50.927  38.017  0.00  0.00    +0.037 A 
ATOM     16  C   UNL     1      20.163  51.963  37.392  0.00  0.00    +0.013 A 
ATOM     17  C   UNL     1      19.827  51.874  35.993  0.00  0.00    +0.005 A 
ATOM     18  C   UNL     1      20.318  50.743  35.209  0.00  0.00    -0.033 A 
ATOM     28  C   UNL     1      21.139  49.731  35.854  0.00  0.00    +0.005 A 
ATOM     29  C   UNL     1      21.470  49.815  37.225  0.00  0.00    +0.013 A 
BRANCH  18  19
ATOM     19  C   UNL     1      19.990  50.555  33.716  0.00  0.00    +0.119 C 
BRANCH  19  20
ATOM     20  N   UNL     1      19.484  51.747  32.972  0.00  0.00    -0.302 NA
ATOM     21  C   UNL     1      19.017  51.386  31.559  0.00  0.00    +0.066 C 
ATOM     22  C   UNL     1      18.469  52.640  30.803  0.00  0.00    -0.064 C 
ATOM     23  N   UNL     1      19.554  53.718  30.757  0.00  0.00    +0.379 N 
ATOM     24  C   UNL     1      19.062  54.876  29.996  0.00  0.00    -0.096 C 
ATOM     25  H   UNL     1      20.426  53.296  30.205  0.00  0.00    -0.082 HD
ATOM     26  C   UNL     1      20.026  54.080  32.157  0.00  0.00    -0.064 C 
ATOM     27  C   UNL     1      20.540  52.822  32.910  0.00  0.00    +0.066 C 
ENDBRANCH  19  20
ENDBRANCH  18  19
ENDBRANCH  14  15
ENDBRANCH  12  13
TORSDOF 6
ENDMDL
MODEL 5
REMARK VINA RESULT:      -7.9      4.071     14.197
REMARK  Name = C:\Users\Docking\Desktop\test protocol\1iep_ligandH.pdb
REMARK  8 active torsions:
REMARK  status: ('A' for Active; 'I' for Inactive)
REMARK    1  A    between atoms: _5  and  _11
REMARK    2  A    between atoms: _19  and  _21
REMARK    3  A    between atoms: _22  and  _66
REMARK    4  A    between atoms: _27  and  _30
REMARK    5  A    between atoms: _32  and  _33
REMARK    6  A    between atoms: _38  and  _43
REMARK    7  A    between atoms: _43  and  _46
REMARK    8  A    between atoms: _53  and  _55
REMARK                            x       y       z     vdW  Elec       q    Type
REMARK                         _______ _______ _______ _____ _____    ______ ____
ROOT
ATOM     10  C   UNL     1      22.109  49.824  42.040  0.00  0.00    +0.038 A 
ATOM     11  C   UNL     1      21.905  50.606  40.875  0.00  0.00    +0.047 A 
ATOM     12  C   UNL     1      21.537  49.990  39.609  0.00  0.00    +0.035 A 
ATOM     32  C   UNL     1      21.383  48.574  39.567  0.00  0.00    +0.024 A 
ATOM     33  C   UNL     1      21.587  47.763  40.742  0.00  0.00    +0.007 A 
ATOM     34  C   UNL     1      21.952  48.365  41.992  0.00  0.00    -0.029 A 
ATOM     35  C   UNL     1      22.165  47.446  43.218  0.00  0.00    +0.045 C 
ENDROOT
BRANCH  10   9
ATOM      4  C   UNL     1      20.986  51.971  46.183  0.00  0.00    +0.077 A 
ATOM      5  C   UNL     1      19.579  51.821  45.948  0.00  0.00    +0.048 A 
ATOM      6  C   UNL     1      19.186  51.192  44.745  0.00  0.00    +0.116 A 
ATOM      7  N   UNL     1      20.137  50.750  43.852  0.00  0.00    -0.223 NA
ATOM      8  C   UNL     1      21.486  50.912  44.109  0.00  0.00    +0.220 A 
ATOM      9  N   UNL     1      22.461  50.467  43.228  0.00  0.00    -0.283 N 
ATOM     36  H   UNL     1      23.445  50.612  43.451  0.00  0.00    +0.155 HD
ATOM     37  N   UNL     1      21.888  51.510  45.250  0.00  0.00    -0.214 NA
BRANCH   4   3
ATOM      1  C   UNL     1      21.460  54.234  49.339  0.00  0.00    +0.020 A 
ATOM      2  C   UNL     1      20.862  53.648  48.161  0.00  0.00    +0.013 A 
ATOM      3  C   UNL     1      21.559  52.611  47.410  0.00  0.00    +0.019 A 
ATOM     38  C   UNL     1      22.868  52.186  47.881  0.00  0.00    +0.120 A 
ATOM     39  N   UNL     1      23.419  52.769  49.018  0.00  0.00    -0.263 NA
ATOM     40  C   UNL     1      22.759  53.769  49.748  0.00  0.00    +0.111 A 
ENDBRANCH   4   3
ENDBRANCH  10   9
BRANCH  12  13
ATOM     13  N   UNL     1      21.325  50.732  38.392  0.00  0.00    -0.281 N 
ATOM     14  C   UNL     1      21.947  50.555  37.167  0.00  0.00    +0.248 C 
ATOM     30  O   UNL     1      22.940  49.865  36.989  0.00  0.00    -0.270 OA
ATOM     31  H   UNL     1      20.633  51.480  38.438  0.00  0.00    +0.155 HD
BRANCH  14  15
ATOM     15  C   UNL     1      21.395  51.256  35.968  0.00  0.00    +0.037 A 
ATOM     16  C   UNL     1      20.092  51.924  36.012  0.00  0.00    +0.013 A 
ATOM     17  C   UNL     1      19.574  52.579  34.836  0.00  0.00    +0.005 A 
ATOM     18  C   UNL     1      20.362  52.569  33.606  0.00  0.00    -0.033 A 
ATOM     28  C   UNL     1      21.654  51.903  33.592  0.00  0.00    +0.005 A 
ATOM     29  C   UNL     1      22.164  51.259  34.742  0.00  0.00    +0.013 A 
BRANCH  18  19
ATOM     19  C   UNL     1      19.879  53.224  32.298  0.00  0.00    +0.119 C 
BRANCH  19  20
ATOM     20  N   UNL     1      18.546  52.802  31.774  0.00  0.00    -0.302 NA
ATOM     21  C   UNL     1      18.518  51.315  31.407  0.00  0.00    +0.066 C 
ATOM     22  C   UNL     1      17.109  50.885  30.882  0.00  0.00    -0.064 C 
ATOM     23  N   UNL     1      16.733  51.748  29.676  0.00  0.00    +0.379 N 
ATOM     24  C   UNL     1      15.435  51.308  29.144  0.00  0.00    -0.096 C 
ATOM     25  H   UNL     1      17.499  51.576  28.885  0.00  0.00    -0.082 HD
ATOM     26  C   UNL     1      16.761  53.228  30.031  0.00  0.00    -0.064 C 
ATOM     27  C   UNL     1      18.156  53.638  30.580  0.00  0.00    +0.066 C 
ENDBRANCH  19  20
ENDBRANCH  18  19
ENDBRANCH  14  15
ENDBRANCH  12  13
TORSDOF 6
ENDMDL
