MODEL 1
REMARK VINA RESULT:      -8.5      0.000      0.000
REMARK  Name = C:\Users\Docking\Desktop\test protocol\1iep_ligandH.pdb
REMARK  8 active torsions:
REMARK  status: ('A' for Active; 'I' for Inactive)
REMARK    1  A    between atoms: _5  and  _11
REMARK    2  A    between atoms: _19  and  _21
REMARK    3  A    between atoms: _22  and  _66
REMARK    4  A    between atoms: _27  and  _30
REMARK    5  A    between atoms: _32  and  _33
REMARK    6  A    between atoms: _38  and  _43
REMARK    7  A    between atoms: _43  and  _46
REMARK    8  A    between atoms: _53  and  _55
REMARK                            x       y       z     vdW  Elec       q    Type
REMARK                         _______ _______ _______ _____ _____    ______ ____
ROOT
ATOM     10  C   UNL     1      25.719   0.764  21.017  0.00  0.00    +0.038 A 
ATOM     11  C   UNL     1      27.001   1.055  20.485  0.00  0.00    +0.047 A 
ATOM     12  C   UNL     1      27.711   2.270  20.854  0.00  0.00    +0.035 A 
ATOM     32  C   UNL     1      27.087   3.165  21.770  0.00  0.00    +0.024 A 
ATOM     33  C   UNL     1      25.783   2.886  22.320  0.00  0.00    +0.007 A 
ATOM     34  C   UNL     1      25.077   1.691  21.957  0.00  0.00    -0.029 A 
ATOM     35  C   UNL     1      23.679   1.446  22.572  0.00  0.00    +0.045 C 
ENDROOT
BRANCH  10   9
ATOM      4  C   UNL     1      24.429  -3.796  21.776  0.00  0.00    +0.077 A 
ATOM      5  C   UNL     1      25.103  -3.838  23.041  0.00  0.00    +0.048 A 
ATOM      6  C   UNL     1      25.776  -2.667  23.457  0.00  0.00    +0.116 A 
ATOM      7  N   UNL     1      25.768  -1.544  22.659  0.00  0.00    -0.223 NA
ATOM      8  C   UNL     1      25.110  -1.538  21.443  0.00  0.00    +0.220 A 
ATOM      9  N   UNL     1      25.082  -0.416  20.628  0.00  0.00    -0.283 N 
ATOM     36  H   UNL     1      24.592  -0.454  19.735  0.00  0.00    +0.155 HD
ATOM     37  N   UNL     1      24.461  -2.643  21.023  0.00  0.00    -0.214 NA
BRANCH   4   3
ATOM      1  C   UNL     1      21.819  -6.664  21.261  0.00  0.00    +0.020 A 
ATOM      2  C   UNL     1      22.517  -5.549  21.860  0.00  0.00    +0.013 A 
ATOM      3  C   UNL     1      23.671  -4.952  21.200  0.00  0.00    +0.019 A 
ATOM     38  C   UNL     1      24.097  -5.510  19.926  0.00  0.00    +0.120 A 
ATOM     39  N   UNL     1      23.407  -6.585  19.375  0.00  0.00    -0.263 NA
ATOM     40  C   UNL     1      22.296  -7.170  20.001  0.00  0.00    +0.111 A 
ENDBRANCH   4   3
ENDBRANCH  10   9
BRANCH  12  13
ATOM     13  N   UNL     1      29.012   2.622  20.340  0.00  0.00    -0.281 N 
ATOM     14  C   UNL     1      30.068   1.776  20.043  0.00  0.00    +0.248 C 
ATOM     30  O   UNL     1      30.128   0.602  20.378  0.00  0.00    -0.270 OA
ATOM     31  H   UNL     1      29.173   3.615  20.175  0.00  0.00    +0.155 HD
BRANCH  14  15
ATOM     15  C   UNL     1      31.232   2.315  19.276  0.00  0.00    +0.037 A 
ATOM     16  C   UNL     1      31.108   2.676  17.862  0.00  0.00    +0.013 A 
ATOM     17  C   UNL     1      32.250   3.178  17.141  0.00  0.00    +0.005 A 
ATOM     18  C   UNL     1      33.528   3.324  17.835  0.00  0.00    -0.033 A 
ATOM     28  C   UNL     1      33.621   2.963  19.239  0.00  0.00    +0.005 A 
ATOM     29  C   UNL     1      32.504   2.469  19.949  0.00  0.00    +0.013 A 
BRANCH  18  19
ATOM     19  C   UNL     1      34.805   3.831  17.139  0.00  0.00    +0.119 C 
BRANCH  19  20
ATOM     20  N   UNL     1      34.909   5.300  16.888  0.00  0.00    -0.302 NA
ATOM     21  C   UNL     1      36.361   5.750  16.704  0.00  0.00    +0.066 C 
ATOM     22  C   UNL     1      36.450   7.285  16.420  0.00  0.00    -0.064 C 
ATOM     23  N   UNL     1      35.786   8.051  17.566  0.00  0.00    +0.379 N 
ATOM     24  C   UNL     1      35.919   9.497  17.330  0.00  0.00    -0.096 C 
ATOM     25  H   UNL     1      36.341   7.808  18.501  0.00  0.00    -0.082 HD
ATOM     26  C   UNL     1      34.342   7.608  17.757  0.00  0.00    -0.064 C 
ATOM     27  C   UNL     1      34.263   6.077  18.009  0.00  0.00    +0.066 C 
ENDBRANCH  19  20
ENDBRANCH  18  19
ENDBRANCH  14  15
ENDBRANCH  12  13
TORSDOF 6
ENDMDL
MODEL 2
REMARK VINA RESULT:      -8.4      3.808      6.157
REMARK  Name = C:\Users\Docking\Desktop\test protocol\1iep_ligandH.pdb
REMARK  8 active torsions:
REMARK  status: ('A' for Active; 'I' for Inactive)
REMARK    1  A    between atoms: _5  and  _11
REMARK    2  A    between atoms: _19  and  _21
REMARK    3  A    between atoms: _22  and  _66
REMARK    4  A    between atoms: _27  and  _30
REMARK    5  A    between atoms: _32  and  _33
REMARK    6  A    between atoms: _38  and  _43
REMARK    7  A    between atoms: _43  and  _46
REMARK    8  A    between atoms: _53  and  _55
REMARK                            x       y       z     vdW  Elec       q    Type
REMARK                         _______ _______ _______ _____ _____    ______ ____
ROOT
ATOM     10  C   UNL     1      27.939   1.174  20.132  0.00  0.00    +0.038 A 
ATOM     11  C   UNL     1      29.069   1.831  19.579  0.00  0.00    +0.047 A 
ATOM     12  C   UNL     1      30.405   1.272  19.715  0.00  0.00    +0.035 A 
ATOM     32  C   UNL     1      30.555   0.041  20.418  0.00  0.00    +0.024 A 
ATOM     33  C   UNL     1      29.418  -0.639  20.987  0.00  0.00    +0.007 A 
ATOM     34  C   UNL     1      28.098  -0.092  20.858  0.00  0.00    -0.029 A 
ATOM     35  C   UNL     1      26.916  -0.861  21.494  0.00  0.00    +0.045 C 
ENDROOT
BRANCH  10   9
ATOM      4  C   UNL     1      24.458   4.178  21.506  0.00  0.00    +0.077 A 
ATOM      5  C   UNL     1      25.201   4.608  22.656  0.00  0.00    +0.048 A 
ATOM      6  C   UNL     1      26.472   4.025  22.861  0.00  0.00    +0.116 A 
ATOM      7  N   UNL     1      26.954   3.085  21.976  0.00  0.00    -0.223 NA
ATOM      8  C   UNL     1      26.211   2.693  20.878  0.00  0.00    +0.220 A 
ATOM      9  N   UNL     1      26.679   1.755  19.971  0.00  0.00    -0.283 N 
ATOM     36  H   UNL     1      26.098   1.486  19.178  0.00  0.00    +0.155 HD
ATOM     37  N   UNL     1      24.994   3.233  20.661  0.00  0.00    -0.214 NA
BRANCH   4   3
ATOM      1  C   UNL     1      20.636   5.008  21.592  0.00  0.00    +0.020 A 
ATOM      2  C   UNL     1      21.923   4.478  21.980  0.00  0.00    +0.013 A 
ATOM      3  C   UNL     1      23.101   4.703  21.151  0.00  0.00    +0.019 A 
ATOM     38  C   UNL     1      22.942   5.475  19.928  0.00  0.00    +0.120 A 
ATOM     39  N   UNL     1      21.689   5.971  19.580  0.00  0.00    -0.263 NA
ATOM     40  C   UNL     1      20.548   5.759  20.368  0.00  0.00    +0.111 A 
ENDBRANCH   4   3
ENDBRANCH  10   9
BRANCH  12  13
ATOM     13  N   UNL     1      31.590   1.898  19.182  0.00  0.00    -0.281 N 
ATOM     14  C   UNL     1      32.523   2.667  19.857  0.00  0.00    +0.248 C 
ATOM     30  O   UNL     1      32.367   3.114  20.983  0.00  0.00    -0.270 OA
ATOM     31  H   UNL     1      31.761   1.757  18.186  0.00  0.00    +0.155 HD
BRANCH  14  15
ATOM     15  C   UNL     1      33.812   3.001  19.176  0.00  0.00    +0.037 A 
ATOM     16  C   UNL     1      34.230   4.391  18.980  0.00  0.00    +0.013 A 
ATOM     17  C   UNL     1      35.469   4.685  18.306  0.00  0.00    +0.005 A 
ATOM     18  C   UNL     1      36.301   3.585  17.823  0.00  0.00    -0.033 A 
ATOM     28  C   UNL     1      35.864   2.215  18.035  0.00  0.00    +0.005 A 
ATOM     29  C   UNL     1      34.649   1.923  18.695  0.00  0.00    +0.013 A 
BRANCH  18  19
ATOM     19  C   UNL     1      37.628   3.806  17.074  0.00  0.00    +0.119 C 
BRANCH  19  20
ATOM     20  N   UNL     1      37.646   4.853  16.009  0.00  0.00    -0.302 NA
ATOM     21  C   UNL     1      36.808   4.450  14.792  0.00  0.00    +0.066 C 
ATOM     22  C   UNL     1      36.820   5.567  13.698  0.00  0.00    -0.064 C 
ATOM     23  N   UNL     1      38.264   5.860  13.288  0.00  0.00    +0.379 N 
ATOM     24  C   UNL     1      38.275   6.867  12.218  0.00  0.00    -0.096 C 
ATOM     25  H   UNL     1      38.694   4.919  12.872  0.00  0.00    -0.082 HD
ATOM     26  C   UNL     1      39.105   6.258  14.492  0.00  0.00    -0.064 C 
ATOM     27  C   UNL     1      39.063   5.155  15.586  0.00  0.00    +0.066 C 
ENDBRANCH  19  20
ENDBRANCH  18  19
ENDBRANCH  14  15
ENDBRANCH  12  13
TORSDOF 6
ENDMDL
MODEL 3
REMARK VINA RESULT:      -8.4      1.251      1.910
REMARK  Name = C:\Users\Docking\Desktop\test protocol\1iep_ligandH.pdb
REMARK  8 active torsions:
REMARK  status: ('A' for Active; 'I' for Inactive)
REMARK    1  A    between atoms: _5  and  _11
REMARK    2  A    between atoms: _19  and  _21
REMARK    3  A    between atoms: _22  and  _66
REMARK    4  A    between atoms: _27  and  _30
REMARK    5  A    between atoms: _32  and  _33
REMARK    6  A    between atoms: _38  and  _43
REMARK    7  A    between atoms: _43  and  _46
REMARK    8  A    between atoms: _53  and  _55
REMARK                            x       y       z     vdW  Elec       q    Type
REMARK                         _______ _______ _______ _____ _____    ______ ____
ROOT
ATOM     10  C   UNL     1      25.794   1.165  22.036  0.00  0.00    +0.038 A 
ATOM     11  C   UNL     1      27.132   1.194  21.565  0.00  0.00    +0.047 A 
ATOM     12  C   UNL     1      27.693   2.393  20.964  0.00  0.00    +0.035 A 
ATOM     32  C   UNL     1      26.863   3.548  20.860  0.00  0.00    +0.024 A 
ATOM     33  C   UNL     1      25.501   3.536  21.332  0.00  0.00    +0.007 A 
ATOM     34  C   UNL     1      24.942   2.355  21.924  0.00  0.00    -0.029 A 
ATOM     35  C   UNL     1      23.473   2.398  22.408  0.00  0.00    +0.045 C 
ENDROOT
BRANCH  10   9
ATOM      4  C   UNL     1      24.639  -3.487  21.798  0.00  0.00    +0.077 A 
ATOM      5  C   UNL     1      25.011  -3.570  20.415  0.00  0.00    +0.048 A 
ATOM      6  C   UNL     1      25.489  -2.391  19.800  0.00  0.00    +0.116 A 
ATOM      7  N   UNL     1      25.583  -1.222  20.524  0.00  0.00    -0.223 NA
ATOM      8  C   UNL     1      25.214  -1.176  21.856  0.00  0.00    +0.220 A 
ATOM      9  N   UNL     1      25.307  -0.014  22.605  0.00  0.00    -0.283 N 
ATOM     36  H   UNL     1      25.018  -0.019  23.583  0.00  0.00    +0.155 HD
ATOM     37  N   UNL     1      24.753  -2.288  22.465  0.00  0.00    -0.214 NA
BRANCH   4   3
ATOM      1  C   UNL     1      24.269  -6.313  24.477  0.00  0.00    +0.020 A 
ATOM      2  C   UNL     1      24.814  -5.191  23.748  0.00  0.00    +0.013 A 
ATOM      3  C   UNL     1      24.119  -4.648  22.588  0.00  0.00    +0.019 A 
ATOM     38  C   UNL     1      22.865  -5.268  22.188  0.00  0.00    +0.120 A 
ATOM     39  N   UNL     1      22.365  -6.349  22.908  0.00  0.00    -0.263 NA
ATOM     40  C   UNL     1      23.026  -6.881  24.025  0.00  0.00    +0.111 A 
ENDBRANCH   4   3
ENDBRANCH  10   9
BRANCH  12  13
ATOM     13  N   UNL     1      29.041   2.479  20.460  0.00  0.00    -0.281 N 
ATOM     14  C   UNL     1      29.545   1.954  19.282  0.00  0.00    +0.248 C 
ATOM     30  O   UNL     1      28.959   1.145  18.579  0.00  0.00    -0.270 OA
ATOM     31  H   UNL     1      29.705   2.988  21.044  0.00  0.00    +0.155 HD
BRANCH  14  15
ATOM     15  C   UNL     1      30.903   2.380  18.824  0.00  0.00    +0.037 A 
ATOM     16  C   UNL     1      32.064   2.303  19.715  0.00  0.00    +0.013 A 
ATOM     17  C   UNL     1      33.359   2.736  19.254  0.00  0.00    +0.005 A 
ATOM     18  C   UNL     1      33.500   3.250  17.893  0.00  0.00    -0.033 A 
ATOM     28  C   UNL     1      32.333   3.310  17.029  0.00  0.00    +0.005 A 
ATOM     29  C   UNL     1      31.062   2.888  17.478  0.00  0.00    +0.013 A 
BRANCH  18  19
ATOM     19  C   UNL     1      34.840   3.753  17.324  0.00  0.00    +0.119 C 
BRANCH  19  20
ATOM     20  N   UNL     1      34.947   5.211  17.017  0.00  0.00    -0.302 NA
ATOM     21  C   UNL     1      36.401   5.653  16.828  0.00  0.00    +0.066 C 
ATOM     22  C   UNL     1      36.493   7.175  16.484  0.00  0.00    -0.064 C 
ATOM     23  N   UNL     1      35.820   7.987  17.592  0.00  0.00    +0.379 N 
ATOM     24  C   UNL     1      35.956   9.421  17.301  0.00  0.00    -0.096 C 
ATOM     25  H   UNL     1      36.367   7.781  18.542  0.00  0.00    -0.082 HD
ATOM     26  C   UNL     1      34.375   7.552  17.789  0.00  0.00    -0.064 C 
ATOM     27  C   UNL     1      34.292   6.032  18.100  0.00  0.00    +0.066 C 
ENDBRANCH  19  20
ENDBRANCH  18  19
ENDBRANCH  14  15
ENDBRANCH  12  13
TORSDOF 6
ENDMDL
MODEL 4
REMARK VINA RESULT:      -8.0      6.636     15.217
REMARK  Name = C:\Users\Docking\Desktop\test protocol\1iep_ligandH.pdb
REMARK  8 active torsions:
REMARK  status: ('A' for Active; 'I' for Inactive)
REMARK    1  A    between atoms: _5  and  _11
REMARK    2  A    between atoms: _19  and  _21
REMARK    3  A    between atoms: _22  and  _66
REMARK    4  A    between atoms: _27  and  _30
REMARK    5  A    between atoms: _32  and  _33
REMARK    6  A    between atoms: _38  and  _43
REMARK    7  A    between atoms: _43  and  _46
REMARK    8  A    between atoms: _53  and  _55
REMARK                            x       y       z     vdW  Elec       q    Type
REMARK                         _______ _______ _______ _____ _____    ______ ____
ROOT
ATOM     10  C   UNL     1      24.290  -3.849  21.266  0.00  0.00    +0.038 A 
ATOM     11  C   UNL     1      23.719  -4.504  22.387  0.00  0.00    +0.047 A 
ATOM     12  C   UNL     1      23.728  -5.954  22.497  0.00  0.00    +0.035 A 
ATOM     32  C   UNL     1      24.330  -6.707  21.447  0.00  0.00    +0.024 A 
ATOM     33  C   UNL     1      24.914  -6.058  20.300  0.00  0.00    +0.007 A 
ATOM     34  C   UNL     1      24.905  -4.628  20.185  0.00  0.00    -0.029 A 
ATOM     35  C   UNL     1      25.540  -3.986  18.930  0.00  0.00    +0.045 C 
ENDROOT
BRANCH  10   9
ATOM      4  C   UNL     1      25.404   0.484  23.005  0.00  0.00    +0.077 A 
ATOM      5  C   UNL     1      26.094  -0.079  24.129  0.00  0.00    +0.048 A 
ATOM      6  C   UNL     1      26.134  -1.488  24.227  0.00  0.00    +0.116 A 
ATOM      7  N   UNL     1      25.525  -2.266  23.266  0.00  0.00    -0.223 NA
ATOM      8  C   UNL     1      24.866  -1.691  22.195  0.00  0.00    +0.220 A 
ATOM      9  N   UNL     1      24.253  -2.454  21.213  0.00  0.00    -0.283 N 
ATOM     36  H   UNL     1      23.770  -1.991  20.443  0.00  0.00    +0.155 HD
ATOM     37  N   UNL     1      24.813  -0.348  22.080  0.00  0.00    -0.214 NA
BRANCH   4   3
ATOM      1  C   UNL     1      26.236   4.283  22.585  0.00  0.00    +0.020 A 
ATOM      2  C   UNL     1      26.411   2.870  22.830  0.00  0.00    +0.013 A 
ATOM      3  C   UNL     1      25.278   1.956  22.760  0.00  0.00    +0.019 A 
ATOM     38  C   UNL     1      23.971   2.508  22.437  0.00  0.00    +0.120 A 
ATOM     39  N   UNL     1      23.833   3.873  22.208  0.00  0.00    -0.263 NA
ATOM     40  C   UNL     1      24.915   4.763  22.274  0.00  0.00    +0.111 A 
ENDBRANCH   4   3
ENDBRANCH  10   9
BRANCH  12  13
ATOM     13  N   UNL     1      23.156  -6.675  23.607  0.00  0.00    -0.281 N 
ATOM     14  C   UNL     1      23.813  -7.211  24.703  0.00  0.00    +0.248 C 
ATOM     30  O   UNL     1      25.025  -7.339  24.788  0.00  0.00    -0.270 OA
ATOM     31  H   UNL     1      22.145  -6.806  23.583  0.00  0.00    +0.155 HD
BRANCH  14  15
ATOM     15  C   UNL     1      23.005  -7.689  25.866  0.00  0.00    +0.037 A 
ATOM     16  C   UNL     1      23.249  -8.999  26.475  0.00  0.00    +0.013 A 
ATOM     17  C   UNL     1      22.444  -9.442  27.585  0.00  0.00    +0.005 A 
ATOM     18  C   UNL     1      21.387  -8.572  28.096  0.00  0.00    -0.033 A 
ATOM     28  C   UNL     1      21.170  -7.275  27.477  0.00  0.00    +0.005 A 
ATOM     29  C   UNL     1      21.957  -6.837  26.388  0.00  0.00    +0.013 A 
BRANCH  18  19
ATOM     19  C   UNL     1      20.466  -8.972  29.263  0.00  0.00    +0.119 C 
BRANCH  19  20
ATOM     20  N   UNL     1      20.337  -8.006  30.395  0.00  0.00    -0.302 NA
ATOM     21  C   UNL     1      20.789  -8.615  31.725  0.00  0.00    +0.066 C 
ATOM     22  C   UNL     1      20.670  -7.584  32.894  0.00  0.00    -0.064 C 
ATOM     23  N   UNL     1      19.226  -7.089  32.988  0.00  0.00    +0.379 N 
ATOM     24  C   UNL     1      19.097  -6.163  34.123  0.00  0.00    -0.096 C 
ATOM     25  H   UNL     1      18.579  -7.973  33.197  0.00  0.00    -0.082 HD
ATOM     26  C   UNL     1      18.767  -6.484  31.669  0.00  0.00    -0.064 C 
ATOM     27  C   UNL     1      18.918  -7.507  30.509  0.00  0.00    +0.066 C 
ENDBRANCH  19  20
ENDBRANCH  18  19
ENDBRANCH  14  15
ENDBRANCH  12  13
TORSDOF 6
ENDMDL
MODEL 5
REMARK VINA RESULT:      -7.8      2.879     13.448
REMARK  Name = C:\Users\Docking\Desktop\test protocol\1iep_ligandH.pdb
REMARK  8 active torsions:
REMARK  status: ('A' for Active; 'I' for Inactive)
REMARK    1  A    between atoms: _5  and  _11
REMARK    2  A    between atoms: _19  and  _21
REMARK    3  A    between atoms: _22  and  _66
REMARK    4  A    between atoms: _27  and  _30
REMARK    5  A    between atoms: _32  and  _33
REMARK    6  A    between atoms: _38  and  _43
REMARK    7  A    between atoms: _43  and  _46
REMARK    8  A    between atoms: _53  and  _55
REMARK                            x       y       z     vdW  Elec       q    Type
REMARK                         _______ _______ _______ _____ _____    ______ ____
ROOT
ATOM     10  C   UNL     1      26.415   1.324  21.631  0.00  0.00    +0.038 A 
ATOM     11  C   UNL     1      26.125  -0.063  21.680  0.00  0.00    +0.047 A 
ATOM     12  C   UNL     1      24.800  -0.543  22.042  0.00  0.00    +0.035 A 
ATOM     32  C   UNL     1      23.793   0.419  22.346  0.00  0.00    +0.024 A 
ATOM     33  C   UNL     1      24.071   1.834  22.302  0.00  0.00    +0.007 A 
ATOM     34  C   UNL     1      25.377   2.312  21.948  0.00  0.00    -0.029 A 
ATOM     35  C   UNL     1      25.619   3.839  21.923  0.00  0.00    +0.045 C 
ENDROOT
BRANCH  10   9
ATOM      4  C   UNL     1      29.773   2.383  18.368  0.00  0.00    +0.077 A 
ATOM      5  C   UNL     1      28.893   2.079  17.277  0.00  0.00    +0.048 A 
ATOM      6  C   UNL     1      27.586   1.646  17.598  0.00  0.00    +0.116 A 
ATOM      7  N   UNL     1      27.200   1.530  18.916  0.00  0.00    -0.223 NA
ATOM      8  C   UNL     1      28.074   1.830  19.944  0.00  0.00    +0.220 A 
ATOM      9  N   UNL     1      27.704   1.729  21.277  0.00  0.00    -0.283 N 
ATOM     36  H   UNL     1      28.380   1.953  22.006  0.00  0.00    +0.155 HD
ATOM     37  N   UNL     1      29.327   2.244  19.664  0.00  0.00    -0.214 NA
BRANCH   4   3
ATOM      1  C   UNL     1      33.553   3.169  18.993  0.00  0.00    +0.020 A 
ATOM      2  C   UNL     1      32.206   2.696  19.215  0.00  0.00    +0.013 A 
ATOM      3  C   UNL     1      31.182   2.855  18.191  0.00  0.00    +0.019 A 
ATOM     38  C   UNL     1      31.557   3.502  16.942  0.00  0.00    +0.120 A 
ATOM     39  N   UNL     1      32.862   3.949  16.757  0.00  0.00    -0.263 NA
ATOM     40  C   UNL     1      33.855   3.803  17.737  0.00  0.00    +0.111 A 
ENDBRANCH   4   3
ENDBRANCH  10   9
BRANCH  12  13
ATOM     13  N   UNL     1      24.449  -1.939  22.116  0.00  0.00    -0.281 N 
ATOM     14  C   UNL     1      25.185  -2.974  22.670  0.00  0.00    +0.248 C 
ATOM     30  O   UNL     1      26.359  -2.889  22.998  0.00  0.00    -0.270 OA
ATOM     31  H   UNL     1      23.549  -2.196  21.711  0.00  0.00    +0.155 HD
BRANCH  14  15
ATOM     15  C   UNL     1      24.525  -4.299  22.877  0.00  0.00    +0.037 A 
ATOM     16  C   UNL     1      23.380  -4.713  22.063  0.00  0.00    +0.013 A 
ATOM     17  C   UNL     1      22.751  -5.989  22.294  0.00  0.00    +0.005 A 
ATOM     18  C   UNL     1      23.269  -6.862  23.345  0.00  0.00    -0.033 A 
ATOM     28  C   UNL     1      24.410  -6.429  24.135  0.00  0.00    +0.005 A 
ATOM     29  C   UNL     1      25.028  -5.178  23.911  0.00  0.00    +0.013 A 
BRANCH  18  19
ATOM     19  C   UNL     1      22.647  -8.232  23.676  0.00  0.00    +0.119 C 
BRANCH  19  20
ATOM     20  N   UNL     1      21.338  -8.233  24.394  0.00  0.00    -0.302 NA
ATOM     21  C   UNL     1      20.152  -8.234  23.426  0.00  0.00    +0.066 C 
ATOM     22  C   UNL     1      18.790  -8.258  24.194  0.00  0.00    -0.064 C 
ATOM     23  N   UNL     1      18.719  -7.056  25.138  0.00  0.00    +0.379 N 
ATOM     24  C   UNL     1      17.416  -7.044  25.818  0.00  0.00    -0.096 C 
ATOM     25  H   UNL     1      18.784  -6.134  24.515  0.00  0.00    -0.082 HD
ATOM     26  C   UNL     1      19.896  -7.046  26.102  0.00  0.00    -0.064 C 
ATOM     27  C   UNL     1      21.244  -7.052  25.328  0.00  0.00    +0.066 C 
ENDBRANCH  19  20
ENDBRANCH  18  19
ENDBRANCH  14  15
ENDBRANCH  12  13
TORSDOF 6
ENDMDL
