MODEL 1
REMARK VINA RESULT:      -8.3      0.000      0.000
REMARK  Name = C:\Users\Docking\Desktop\test protocol\1iep_ligandH.pdb
REMARK  8 active torsions:
REMARK  status: ('A' for Active; 'I' for Inactive)
REMARK    1  A    between atoms: _5  and  _11
REMARK    2  A    between atoms: _19  and  _21
REMARK    3  A    between atoms: _22  and  _66
REMARK    4  A    between atoms: _27  and  _30
REMARK    5  A    between atoms: _32  and  _33
REMARK    6  A    between atoms: _38  and  _43
REMARK    7  A    between atoms: _43  and  _46
REMARK    8  A    between atoms: _53  and  _55
REMARK                            x       y       z     vdW  Elec       q    Type
REMARK                         _______ _______ _______ _____ _____    ______ ____
ROOT
ATOM     10  C   UNL     1      20.374  25.870   4.110  0.00  0.00    +0.038 A 
ATOM     11  C   UNL     1      19.057  25.744   4.622  0.00  0.00    +0.047 A 
ATOM     12  C   UNL     1      18.393  24.451   4.682  0.00  0.00    +0.035 A 
ATOM     32  C   UNL     1      19.102  23.306   4.215  0.00  0.00    +0.024 A 
ATOM     33  C   UNL     1      20.441  23.415   3.691  0.00  0.00    +0.007 A 
ATOM     34  C   UNL     1      21.099  24.688   3.627  0.00  0.00    -0.029 A 
ATOM     35  C   UNL     1      22.533  24.748   3.050  0.00  0.00    +0.045 C 
ENDROOT
BRANCH  10   9
ATOM      4  C   UNL     1      21.600  29.906   1.822  0.00  0.00    +0.077 A 
ATOM      5  C   UNL     1      21.044  29.443   0.583  0.00  0.00    +0.048 A 
ATOM      6  C   UNL     1      20.457  28.158   0.576  0.00  0.00    +0.116 A 
ATOM      7  N   UNL     1      20.435  27.401   1.727  0.00  0.00    -0.223 NA
ATOM      8  C   UNL     1      20.982  27.876   2.904  0.00  0.00    +0.220 A 
ATOM      9  N   UNL     1      20.963  27.135   4.076  0.00  0.00    -0.283 N 
ATOM     36  H   UNL     1      21.384  27.519   4.922  0.00  0.00    +0.155 HD
ATOM     37  N   UNL     1      21.549  29.100   2.937  0.00  0.00    -0.214 NA
BRANCH   4   3
ATOM      1  C   UNL     1      23.869  33.048   1.287  0.00  0.00    +0.020 A 
ATOM      2  C   UNL     1      23.272  31.748   1.080  0.00  0.00    +0.013 A 
ATOM      3  C   UNL     1      22.252  31.244   1.990  0.00  0.00    +0.019 A 
ATOM     38  C   UNL     1      21.854  32.086   3.108  0.00  0.00    +0.120 A 
ATOM     39  N   UNL     1      22.447  33.332   3.283  0.00  0.00    -0.263 NA
ATOM     40  C   UNL     1      23.432  33.827   2.415  0.00  0.00    +0.111 A 
ENDBRANCH   4   3
ENDBRANCH  10   9
BRANCH  12  13
ATOM     13  N   UNL     1      17.055  24.263   5.183  0.00  0.00    -0.281 N 
ATOM     14  C   UNL     1      15.980  23.672   4.540  0.00  0.00    +0.248 C 
ATOM     30  O   UNL     1      15.949  23.404   3.349  0.00  0.00    -0.270 OA
ATOM     31  H   UNL     1      16.878  24.609   6.127  0.00  0.00    +0.155 HD
BRANCH  14  15
ATOM     15  C   UNL     1      14.756  23.343   5.333  0.00  0.00    +0.037 A 
ATOM     16  C   UNL     1      13.468  23.101   4.678  0.00  0.00    +0.013 A 
ATOM     17  C   UNL     1      12.299  22.803   5.467  0.00  0.00    +0.005 A 
ATOM     18  C   UNL     1      12.414  22.744   6.922  0.00  0.00    -0.033 A 
ATOM     28  C   UNL     1      13.705  22.983   7.546  0.00  0.00    +0.005 A 
ATOM     29  C   UNL     1      14.852  23.276   6.776  0.00  0.00    +0.013 A 
BRANCH  18  19
ATOM     19  C   UNL     1      11.215  22.453   7.845  0.00  0.00    +0.119 C 
BRANCH  19  20
ATOM     20  N   UNL     1      10.494  23.628   8.418  0.00  0.00    -0.302 NA
ATOM     21  C   UNL     1      10.435  24.802   7.437  0.00  0.00    +0.066 C 
ATOM     22  C   UNL     1       9.657  26.014   8.044  0.00  0.00    -0.064 C 
ATOM     23  N   UNL     1      10.321  26.437   9.356  0.00  0.00    +0.379 N 
ATOM     24  C   UNL     1       9.627  27.613   9.900  0.00  0.00    -0.096 C 
ATOM     25  H   UNL     1      11.368  26.741   9.121  0.00  0.00    -0.082 HD
ATOM     26  C   UNL     1      10.386  25.275  10.337  0.00  0.00    -0.064 C 
ATOM     27  C   UNL     1      11.136  24.066   9.712  0.00  0.00    +0.066 C 
ENDBRANCH  19  20
ENDBRANCH  18  19
ENDBRANCH  14  15
ENDBRANCH  12  13
TORSDOF 6
ENDMDL
MODEL 2
REMARK VINA RESULT:      -8.1      3.488     12.400
REMARK  Name = C:\Users\Docking\Desktop\test protocol\1iep_ligandH.pdb
REMARK  8 active torsions:
REMARK  status: ('A' for Active; 'I' for Inactive)
REMARK    1  A    between atoms: _5  and  _11
REMARK    2  A    between atoms: _19  and  _21
REMARK    3  A    between atoms: _22  and  _66
REMARK    4  A    between atoms: _27  and  _30
REMARK    5  A    between atoms: _32  and  _33
REMARK    6  A    between atoms: _38  and  _43
REMARK    7  A    between atoms: _43  and  _46
REMARK    8  A    between atoms: _53  and  _55
REMARK                            x       y       z     vdW  Elec       q    Type
REMARK                         _______ _______ _______ _____ _____    ______ ____
ROOT
ATOM     10  C   UNL     1      12.686  23.237   7.951  0.00  0.00    +0.038 A 
ATOM     11  C   UNL     1      13.898  23.589   7.305  0.00  0.00    +0.047 A 
ATOM     12  C   UNL     1      15.177  23.078   7.774  0.00  0.00    +0.035 A 
ATOM     32  C   UNL     1      15.183  22.206   8.902  0.00  0.00    +0.024 A 
ATOM     33  C   UNL     1      13.960  21.838   9.571  0.00  0.00    +0.007 A 
ATOM     34  C   UNL     1      12.696  22.341   9.114  0.00  0.00    -0.029 A 
ATOM     35  C   UNL     1      11.417  21.918   9.873  0.00  0.00    +0.045 C 
ENDROOT
BRANCH  10   9
ATOM      4  C   UNL     1       9.262  26.598   7.835  0.00  0.00    +0.077 A 
ATOM      5  C   UNL     1       9.902  27.370   8.861  0.00  0.00    +0.048 A 
ATOM      6  C   UNL     1      11.107  26.863   9.397  0.00  0.00    +0.116 A 
ATOM      7  N   UNL     1      11.624  25.673   8.934  0.00  0.00    -0.223 NA
ATOM      8  C   UNL     1      10.980  24.952   7.945  0.00  0.00    +0.220 A 
ATOM      9  N   UNL     1      11.487  23.757   7.458  0.00  0.00    -0.283 N 
ATOM     36  H   UNL     1      10.978  23.252   6.733  0.00  0.00    +0.155 HD
ATOM     37  N   UNL     1       9.827  25.414   7.417  0.00  0.00    -0.214 NA
BRANCH   4   3
ATOM      1  C   UNL     1       5.533  27.597   7.204  0.00  0.00    +0.020 A 
ATOM      2  C   UNL     1       6.739  27.205   7.897  0.00  0.00    +0.013 A 
ATOM      3  C   UNL     1       7.984  27.003   7.167  0.00  0.00    +0.019 A 
ATOM     38  C   UNL     1       7.976  27.208   5.727  0.00  0.00    +0.120 A 
ATOM     39  N   UNL     1       6.799  27.584   5.087  0.00  0.00    -0.263 NA
ATOM     40  C   UNL     1       5.594  27.779   5.778  0.00  0.00    +0.111 A 
ENDBRANCH   4   3
ENDBRANCH  10   9
BRANCH  12  13
ATOM     13  N   UNL     1      16.441  23.408   7.164  0.00  0.00    -0.281 N 
ATOM     14  C   UNL     1      17.132  22.696   6.197  0.00  0.00    +0.248 C 
ATOM     30  O   UNL     1      16.868  21.550   5.862  0.00  0.00    -0.270 OA
ATOM     31  H   UNL     1      16.880  24.271   7.484  0.00  0.00    +0.155 HD
BRANCH  14  15
ATOM     15  C   UNL     1      18.292  23.345   5.514  0.00  0.00    +0.037 A 
ATOM     16  C   UNL     1      19.636  22.766   5.584  0.00  0.00    +0.013 A 
ATOM     17  C   UNL     1      20.740  23.421   4.929  0.00  0.00    +0.005 A 
ATOM     18  C   UNL     1      20.504  24.663   4.198  0.00  0.00    -0.033 A 
ATOM     28  C   UNL     1      19.160  25.213   4.140  0.00  0.00    +0.005 A 
ATOM     29  C   UNL     1      18.075  24.574   4.781  0.00  0.00    +0.013 A 
BRANCH  18  19
ATOM     19  C   UNL     1      21.628  25.442   3.487  0.00  0.00    +0.119 C 
BRANCH  19  20
ATOM     20  N   UNL     1      22.184  24.849   2.234  0.00  0.00    -0.302 NA
ATOM     21  C   UNL     1      23.427  23.997   2.504  0.00  0.00    +0.066 C 
ATOM     22  C   UNL     1      23.983  23.367   1.186  0.00  0.00    -0.064 C 
ATOM     23  N   UNL     1      24.295  24.479   0.184  0.00  0.00    +0.379 N 
ATOM     24  C   UNL     1      24.872  23.894  -1.035  0.00  0.00    -0.096 C 
ATOM     25  H   UNL     1      25.069  25.139   0.641  0.00  0.00    -0.082 HD
ATOM     26  C   UNL     1      23.065  25.333  -0.088  0.00  0.00    -0.064 C 
ATOM     27  C   UNL     1      22.503  25.931   1.232  0.00  0.00    +0.066 C 
ENDBRANCH  19  20
ENDBRANCH  18  19
ENDBRANCH  14  15
ENDBRANCH  12  13
TORSDOF 6
ENDMDL
MODEL 3
REMARK VINA RESULT:      -8.0      2.541     12.012
REMARK  Name = C:\Users\Docking\Desktop\test protocol\1iep_ligandH.pdb
REMARK  8 active torsions:
REMARK  status: ('A' for Active; 'I' for Inactive)
REMARK    1  A    between atoms: _5  and  _11
REMARK    2  A    between atoms: _19  and  _21
REMARK    3  A    between atoms: _22  and  _66
REMARK    4  A    between atoms: _27  and  _30
REMARK    5  A    between atoms: _32  and  _33
REMARK    6  A    between atoms: _38  and  _43
REMARK    7  A    between atoms: _43  and  _46
REMARK    8  A    between atoms: _53  and  _55
REMARK                            x       y       z     vdW  Elec       q    Type
REMARK                         _______ _______ _______ _____ _____    ______ ____
ROOT
ATOM     10  C   UNL     1      12.414  23.127   8.248  0.00  0.00    +0.038 A 
ATOM     11  C   UNL     1      13.617  23.482   7.587  0.00  0.00    +0.047 A 
ATOM     12  C   UNL     1      14.903  22.973   8.040  0.00  0.00    +0.035 A 
ATOM     32  C   UNL     1      14.925  22.102   9.168  0.00  0.00    +0.024 A 
ATOM     33  C   UNL     1      13.711  21.732   9.852  0.00  0.00    +0.007 A 
ATOM     34  C   UNL     1      12.441  22.233   9.412  0.00  0.00    -0.029 A 
ATOM     35  C   UNL     1      11.172  21.808  10.188  0.00  0.00    +0.045 C 
ENDROOT
BRANCH  10   9
ATOM      4  C   UNL     1       9.102  26.592   7.989  0.00  0.00    +0.077 A 
ATOM      5  C   UNL     1       9.823  27.431   8.902  0.00  0.00    +0.048 A 
ATOM      6  C   UNL     1      11.039  26.931   9.422  0.00  0.00    +0.116 A 
ATOM      7  N   UNL     1      11.489  25.683   9.048  0.00  0.00    -0.223 NA
ATOM      8  C   UNL     1      10.769  24.899   8.167  0.00  0.00    +0.220 A 
ATOM      9  N   UNL     1      11.207  23.645   7.771  0.00  0.00    -0.283 N 
ATOM     36  H   UNL     1      10.643  23.094   7.125  0.00  0.00    +0.155 HD
ATOM     37  N   UNL     1       9.605  25.353   7.658  0.00  0.00    -0.214 NA
BRANCH   4   3
ATOM      1  C   UNL     1       5.320  27.416   7.425  0.00  0.00    +0.020 A 
ATOM      2  C   UNL     1       6.546  27.033   8.087  0.00  0.00    +0.013 A 
ATOM      3  C   UNL     1       7.804  26.981   7.353  0.00  0.00    +0.019 A 
ATOM     38  C   UNL     1       7.788  27.327   5.939  0.00  0.00    +0.120 A 
ATOM     39  N   UNL     1       6.592  27.691   5.328  0.00  0.00    -0.263 NA
ATOM     40  C   UNL     1       5.375  27.742   6.024  0.00  0.00    +0.111 A 
ENDBRANCH   4   3
ENDBRANCH  10   9
BRANCH  12  13
ATOM     13  N   UNL     1      16.158  23.305   7.413  0.00  0.00    -0.281 N 
ATOM     14  C   UNL     1      16.969  22.486   6.644  0.00  0.00    +0.248 C 
ATOM     30  O   UNL     1      16.841  21.274   6.554  0.00  0.00    -0.270 OA
ATOM     31  H   UNL     1      16.490  24.259   7.554  0.00  0.00    +0.155 HD
BRANCH  14  15
ATOM     15  C   UNL     1      18.092  23.101   5.874  0.00  0.00    +0.037 A 
ATOM     16  C   UNL     1      19.412  22.467   5.819  0.00  0.00    +0.013 A 
ATOM     17  C   UNL     1      20.484  23.090   5.083  0.00  0.00    +0.005 A 
ATOM     18  C   UNL     1      20.239  24.355   4.394  0.00  0.00    -0.033 A 
ATOM     28  C   UNL     1      18.918  24.959   4.460  0.00  0.00    +0.005 A 
ATOM     29  C   UNL     1      17.866  24.352   5.181  0.00  0.00    +0.013 A 
BRANCH  18  19
ATOM     19  C   UNL     1      21.329  25.101   3.602  0.00  0.00    +0.119 C 
BRANCH  19  20
ATOM     20  N   UNL     1      20.876  26.030   2.524  0.00  0.00    -0.302 NA
ATOM     21  C   UNL     1      21.580  25.751   1.193  0.00  0.00    +0.066 C 
ATOM     22  C   UNL     1      21.078  26.717   0.070  0.00  0.00    -0.064 C 
ATOM     23  N   UNL     1      21.304  28.165   0.509  0.00  0.00    +0.379 N 
ATOM     24  C   UNL     1      20.886  29.074  -0.568  0.00  0.00    -0.096 C 
ATOM     25  H   UNL     1      22.399  28.304   0.665  0.00  0.00    -0.082 HD
ATOM     26  C   UNL     1      20.610  28.450   1.833  0.00  0.00    -0.064 C 
ATOM     27  C   UNL     1      21.094  27.465   2.935  0.00  0.00    +0.066 C 
ENDBRANCH  19  20
ENDBRANCH  18  19
ENDBRANCH  14  15
ENDBRANCH  12  13
TORSDOF 6
ENDMDL
MODEL 4
REMARK VINA RESULT:      -7.9     10.492     16.956
REMARK  Name = C:\Users\Docking\Desktop\test protocol\1iep_ligandH.pdb
REMARK  8 active torsions:
REMARK  status: ('A' for Active; 'I' for Inactive)
REMARK    1  A    between atoms: _5  and  _11
REMARK    2  A    between atoms: _19  and  _21
REMARK    3  A    between atoms: _22  and  _66
REMARK    4  A    between atoms: _27  and  _30
REMARK    5  A    between atoms: _32  and  _33
REMARK    6  A    between atoms: _38  and  _43
REMARK    7  A    between atoms: _43  and  _46
REMARK    8  A    between atoms: _53  and  _55
REMARK                            x       y       z     vdW  Elec       q    Type
REMARK                         _______ _______ _______ _____ _____    ______ ____
ROOT
ATOM     10  C   UNL     1       3.411  28.497   7.289  0.00  0.00    +0.038 A 
ATOM     11  C   UNL     1       4.463  27.759   7.889  0.00  0.00    +0.047 A 
ATOM     12  C   UNL     1       5.538  27.194   7.089  0.00  0.00    +0.035 A 
ATOM     32  C   UNL     1       5.512  27.401   5.679  0.00  0.00    +0.024 A 
ATOM     33  C   UNL     1       4.450  28.148   5.052  0.00  0.00    +0.007 A 
ATOM     34  C   UNL     1       3.385  28.706   5.836  0.00  0.00    -0.029 A 
ATOM     35  C   UNL     1       2.269  29.492   5.109  0.00  0.00    +0.045 C 
ENDROOT
BRANCH  10   9
ATOM      4  C   UNL     1      -0.906  28.241   9.370  0.00  0.00    +0.077 A 
ATOM      5  C   UNL     1      -1.191  26.975   8.759  0.00  0.00    +0.048 A 
ATOM      6  C   UNL     1      -0.203  26.427   7.910  0.00  0.00    +0.116 A 
ATOM      7  N   UNL     1       0.978  27.104   7.696  0.00  0.00    -0.223 NA
ATOM      8  C   UNL     1       1.220  28.324   8.300  0.00  0.00    +0.220 A 
ATOM      9  N   UNL     1       2.405  29.018   8.105  0.00  0.00    -0.283 N 
ATOM     36  H   UNL     1       2.542  29.919   8.563  0.00  0.00    +0.155 HD
ATOM     37  N   UNL     1       0.292  28.869   9.114  0.00  0.00    -0.214 NA
BRANCH   4   3
ATOM      1  C   UNL     1      -2.367  30.250  12.392  0.00  0.00    +0.020 A 
ATOM      2  C   UNL     1      -1.416  29.581  11.534  0.00  0.00    +0.013 A 
ATOM      3  C   UNL     1      -1.848  28.947  10.295  0.00  0.00    +0.019 A 
ATOM     38  C   UNL     1      -3.261  29.009   9.950  0.00  0.00    +0.120 A 
ATOM     39  N   UNL     1      -4.153  29.659  10.796  0.00  0.00    -0.263 NA
ATOM     40  C   UNL     1      -3.749  30.271  11.992  0.00  0.00    +0.111 A 
ENDBRANCH   4   3
ENDBRANCH  10   9
BRANCH  12  13
ATOM     13  N   UNL     1       6.628  26.428   7.642  0.00  0.00    -0.281 N 
ATOM     14  C   UNL     1       7.804  26.902   8.200  0.00  0.00    +0.248 C 
ATOM     30  O   UNL     1       8.194  28.057   8.113  0.00  0.00    -0.270 OA
ATOM     31  H   UNL     1       6.519  25.414   7.620  0.00  0.00    +0.155 HD
BRANCH  14  15
ATOM     15  C   UNL     1       8.681  25.952   8.950  0.00  0.00    +0.037 A 
ATOM     16  C   UNL     1       8.236  24.591   9.261  0.00  0.00    +0.013 A 
ATOM     17  C   UNL     1       9.096  23.701  10.001  0.00  0.00    +0.005 A 
ATOM     18  C   UNL     1      10.410  24.169  10.433  0.00  0.00    -0.033 A 
ATOM     28  C   UNL     1      10.828  25.523  10.107  0.00  0.00    +0.005 A 
ATOM     29  C   UNL     1       9.988  26.398   9.383  0.00  0.00    +0.013 A 
BRANCH  18  19
ATOM     19  C   UNL     1      11.384  23.295  11.245  0.00  0.00    +0.119 C 
BRANCH  19  20
ATOM     20  N   UNL     1      11.633  21.908  10.750  0.00  0.00    -0.302 NA
ATOM     21  C   UNL     1      10.960  20.854  11.633  0.00  0.00    +0.066 C 
ATOM     22  C   UNL     1      11.213  19.410  11.087  0.00  0.00    -0.064 C 
ATOM     23  N   UNL     1      12.719  19.159  10.995  0.00  0.00    +0.379 N 
ATOM     24  C   UNL     1      12.959  17.782  10.538  0.00  0.00    -0.096 C 
ATOM     25  H   UNL     1      13.140  19.252  12.023  0.00  0.00    -0.082 HD
ATOM     26  C   UNL     1      13.396  20.205  10.121  0.00  0.00    -0.064 C 
ATOM     27  C   UNL     1      13.115  21.637  10.655  0.00  0.00    +0.066 C 
ENDBRANCH  19  20
ENDBRANCH  18  19
ENDBRANCH  14  15
ENDBRANCH  12  13
TORSDOF 6
ENDMDL
MODEL 5
REMARK VINA RESULT:      -7.8      9.474     14.247
REMARK  Name = C:\Users\Docking\Desktop\test protocol\1iep_ligandH.pdb
REMARK  8 active torsions:
REMARK  status: ('A' for Active; 'I' for Inactive)
REMARK    1  A    between atoms: _5  and  _11
REMARK    2  A    between atoms: _19  and  _21
REMARK    3  A    between atoms: _22  and  _66
REMARK    4  A    between atoms: _27  and  _30
REMARK    5  A    between atoms: _32  and  _33
REMARK    6  A    between atoms: _38  and  _43
REMARK    7  A    between atoms: _43  and  _46
REMARK    8  A    between atoms: _53  and  _55
REMARK                            x       y       z     vdW  Elec       q    Type
REMARK                         _______ _______ _______ _____ _____    ______ ____
ROOT
ATOM     10  C   UNL     1       9.505  25.259   8.387  0.00  0.00    +0.038 A 
ATOM     11  C   UNL     1       8.127  25.593   8.389  0.00  0.00    +0.047 A 
ATOM     12  C   UNL     1       7.688  26.977   8.298  0.00  0.00    +0.035 A 
ATOM     32  C   UNL     1       8.681  27.996   8.204  0.00  0.00    +0.024 A 
ATOM     33  C   UNL     1      10.086  27.674   8.201  0.00  0.00    +0.007 A 
ATOM     34  C   UNL     1      10.525  26.311   8.293  0.00  0.00    -0.029 A 
ATOM     35  C   UNL     1      12.045  26.025   8.292  0.00  0.00    +0.045 C 
ENDROOT
BRANCH  10   9
ATOM      4  C   UNL     1      11.106  21.462  10.848  0.00  0.00    +0.077 A 
ATOM      5  C   UNL     1      11.253  22.230  12.051  0.00  0.00    +0.048 A 
ATOM      6  C   UNL     1      10.913  23.600  11.992  0.00  0.00    +0.116 A 
ATOM      7  N   UNL     1      10.460  24.150  10.813  0.00  0.00    -0.223 NA
ATOM      8  C   UNL     1      10.331  23.383   9.670  0.00  0.00    +0.220 A 
ATOM      9  N   UNL     1       9.870  23.914   8.476  0.00  0.00    -0.283 N 
ATOM     36  H   UNL     1       9.797  23.316   7.653  0.00  0.00    +0.155 HD
ATOM     37  N   UNL     1      10.651  22.072   9.700  0.00  0.00    -0.214 NA
BRANCH   4   3
ATOM      1  C   UNL     1      13.021  18.076  10.434  0.00  0.00    +0.020 A 
ATOM      2  C   UNL     1      12.769  19.496  10.519  0.00  0.00    +0.013 A 
ATOM      3  C   UNL     1      11.422  20.002  10.751  0.00  0.00    +0.019 A 
ATOM     38  C   UNL     1      10.343  19.036  10.896  0.00  0.00    +0.120 A 
ATOM     39  N   UNL     1      10.615  17.674  10.808  0.00  0.00    -0.263 NA
ATOM     40  C   UNL     1      11.907  17.176  10.583  0.00  0.00    +0.111 A 
ENDBRANCH   4   3
ENDBRANCH  10   9
BRANCH  12  13
ATOM     13  N   UNL     1       6.303  27.378   8.304  0.00  0.00    -0.281 N 
ATOM     14  C   UNL     1       5.378  27.261   7.279  0.00  0.00    +0.248 C 
ATOM     30  O   UNL     1       5.661  26.988   6.121  0.00  0.00    -0.270 OA
ATOM     31  H   UNL     1       5.962  27.798   9.169  0.00  0.00    +0.155 HD
BRANCH  14  15
ATOM     15  C   UNL     1       3.933  27.496   7.579  0.00  0.00    +0.037 A 
ATOM     16  C   UNL     1       2.929  26.457   7.339  0.00  0.00    +0.013 A 
ATOM     17  C   UNL     1       1.539  26.716   7.622  0.00  0.00    +0.005 A 
ATOM     18  C   UNL     1       1.146  28.020   8.150  0.00  0.00    -0.033 A 
ATOM     28  C   UNL     1       2.165  29.031   8.384  0.00  0.00    +0.005 A 
ATOM     29  C   UNL     1       3.527  28.781   8.107  0.00  0.00    +0.013 A 
BRANCH  18  19
ATOM     19  C   UNL     1      -0.316  28.391   8.461  0.00  0.00    +0.119 C 
BRANCH  19  20
ATOM     20  N   UNL     1      -0.696  28.529   9.899  0.00  0.00    -0.302 NA
ATOM     21  C   UNL     1      -1.671  27.435  10.343  0.00  0.00    +0.066 C 
ATOM     22  C   UNL     1      -2.040  27.582  11.855  0.00  0.00    -0.064 C 
ATOM     23  N   UNL     1      -2.635  28.969  12.100  0.00  0.00    +0.379 N 
ATOM     24  C   UNL     1      -3.036  29.089  13.509  0.00  0.00    -0.096 C 
ATOM     25  H   UNL     1      -3.555  29.057  11.477  0.00  0.00    -0.082 HD
ATOM     26  C   UNL     1      -1.673  30.063  11.658  0.00  0.00    -0.064 C 
ATOM     27  C   UNL     1      -1.290  29.891  10.162  0.00  0.00    +0.066 C 
ENDBRANCH  19  20
ENDBRANCH  18  19
ENDBRANCH  14  15
ENDBRANCH  12  13
TORSDOF 6
ENDMDL
