MODEL 1
REMARK VINA RESULT:      -8.4      0.000      0.000
REMARK  Name = C:\Users\Docking\Desktop\test protocol\1iep_ligandH.pdb
REMARK  8 active torsions:
REMARK  status: ('A' for Active; 'I' for Inactive)
REMARK    1  A    between atoms: _5  and  _11
REMARK    2  A    between atoms: _19  and  _21
REMARK    3  A    between atoms: _22  and  _66
REMARK    4  A    between atoms: _27  and  _30
REMARK    5  A    between atoms: _32  and  _33
REMARK    6  A    between atoms: _38  and  _43
REMARK    7  A    between atoms: _43  and  _46
REMARK    8  A    between atoms: _53  and  _55
REMARK                            x       y       z     vdW  Elec       q    Type
REMARK                         _______ _______ _______ _____ _____    ______ ____
ROOT
ATOM     10  C   UNL     1      20.205  25.603   4.047  0.00  0.00    +0.038 A 
ATOM     11  C   UNL     1      18.898  25.402   4.559  0.00  0.00    +0.047 A 
ATOM     12  C   UNL     1      18.284  24.083   4.558  0.00  0.00    +0.035 A 
ATOM     32  C   UNL     1      19.032  22.991   4.030  0.00  0.00    +0.024 A 
ATOM     33  C   UNL     1      20.361  23.177   3.504  0.00  0.00    +0.007 A 
ATOM     34  C   UNL     1      20.971  24.477   3.500  0.00  0.00    -0.029 A 
ATOM     35  C   UNL     1      22.397  24.619   2.918  0.00  0.00    +0.045 C 
ENDROOT
BRANCH  10   9
ATOM      4  C   UNL     1      21.344  29.759   1.932  0.00  0.00    +0.077 A 
ATOM      5  C   UNL     1      20.843  29.318   0.662  0.00  0.00    +0.048 A 
ATOM      6  C   UNL     1      20.308  28.012   0.594  0.00  0.00    +0.116 A 
ATOM      7  N   UNL     1      20.279  27.216   1.718  0.00  0.00    -0.223 NA
ATOM      8  C   UNL     1      20.772  27.672   2.927  0.00  0.00    +0.220 A 
ATOM      9  N   UNL     1      20.746  26.891   4.073  0.00  0.00    -0.283 N 
ATOM     36  H   UNL     1      21.126  27.261   4.944  0.00  0.00    +0.155 HD
ATOM     37  N   UNL     1      21.290  28.914   3.018  0.00  0.00    -0.214 NA
BRANCH   4   3
ATOM      1  C   UNL     1      23.477  33.015   1.552  0.00  0.00    +0.020 A 
ATOM      2  C   UNL     1      22.936  31.703   1.283  0.00  0.00    +0.013 A 
ATOM      3  C   UNL     1      21.937  31.114   2.165  0.00  0.00    +0.019 A 
ATOM     38  C   UNL     1      21.503  31.885   3.320  0.00  0.00    +0.120 A 
ATOM     39  N   UNL     1      22.042  33.145   3.555  0.00  0.00    -0.263 NA
ATOM     40  C   UNL     1      23.006  33.722   2.714  0.00  0.00    +0.111 A 
ENDBRANCH   4   3
ENDBRANCH  10   9
BRANCH  12  13
ATOM     13  N   UNL     1      16.958  23.819   5.058  0.00  0.00    -0.281 N 
ATOM     14  C   UNL     1      16.588  22.963   6.081  0.00  0.00    +0.248 C 
ATOM     30  O   UNL     1      17.325  22.127   6.584  0.00  0.00    -0.270 OA
ATOM     31  H   UNL     1      16.199  24.326   4.601  0.00  0.00    +0.155 HD
BRANCH  14  15
ATOM     15  C   UNL     1      15.193  23.034   6.614  0.00  0.00    +0.037 A 
ATOM     16  C   UNL     1      14.077  23.464   5.767  0.00  0.00    +0.013 A 
ATOM     17  C   UNL     1      12.744  23.540   6.311  0.00  0.00    +0.005 A 
ATOM     18  C   UNL     1      12.520  23.184   7.710  0.00  0.00    -0.033 A 
ATOM     28  C   UNL     1      13.644  22.755   8.526  0.00  0.00    +0.005 A 
ATOM     29  C   UNL     1      14.952  22.680   7.997  0.00  0.00    +0.013 A 
BRANCH  18  19
ATOM     19  C   UNL     1      11.135  23.256   8.380  0.00  0.00    +0.119 C 
BRANCH  19  20
ATOM     20  N   UNL     1      10.386  24.542   8.265  0.00  0.00    -0.302 NA
ATOM     21  C   UNL     1      11.173  25.719   8.849  0.00  0.00    +0.066 C 
ATOM     22  C   UNL     1      10.384  27.061   8.700  0.00  0.00    -0.064 C 
ATOM     23  N   UNL     1       9.022  26.928   9.383  0.00  0.00    +0.379 N 
ATOM     24  C   UNL     1       8.302  28.206   9.295  0.00  0.00    -0.096 C 
ATOM     25  H   UNL     1       9.205  26.716  10.463  0.00  0.00    -0.082 HD
ATOM     26  C   UNL     1       8.235  25.758   8.811  0.00  0.00    -0.064 C 
ATOM     27  C   UNL     1       9.040  24.434   8.937  0.00  0.00    +0.066 C 
ENDBRANCH  19  20
ENDBRANCH  18  19
ENDBRANCH  14  15
ENDBRANCH  12  13
TORSDOF 6
ENDMDL
MODEL 2
REMARK VINA RESULT:      -8.1      2.210     11.891
REMARK  Name = C:\Users\Docking\Desktop\test protocol\1iep_ligandH.pdb
REMARK  8 active torsions:
REMARK  status: ('A' for Active; 'I' for Inactive)
REMARK    1  A    between atoms: _5  and  _11
REMARK    2  A    between atoms: _19  and  _21
REMARK    3  A    between atoms: _22  and  _66
REMARK    4  A    between atoms: _27  and  _30
REMARK    5  A    between atoms: _32  and  _33
REMARK    6  A    between atoms: _38  and  _43
REMARK    7  A    between atoms: _43  and  _46
REMARK    8  A    between atoms: _53  and  _55
REMARK                            x       y       z     vdW  Elec       q    Type
REMARK                         _______ _______ _______ _____ _____    ______ ____
ROOT
ATOM     10  C   UNL     1      12.144  23.051   8.459  0.00  0.00    +0.038 A 
ATOM     11  C   UNL     1      13.374  23.334   7.812  0.00  0.00    +0.047 A 
ATOM     12  C   UNL     1      14.630  22.804   8.320  0.00  0.00    +0.035 A 
ATOM     32  C   UNL     1      14.597  21.988   9.488  0.00  0.00    +0.024 A 
ATOM     33  C   UNL     1      13.355  21.692  10.159  0.00  0.00    +0.007 A 
ATOM     34  C   UNL     1      12.113  22.214   9.664  0.00  0.00    -0.029 A 
ATOM     35  C   UNL     1      10.813  21.869  10.427  0.00  0.00    +0.045 C 
ENDROOT
BRANCH  10   9
ATOM      4  C   UNL     1       9.001  26.634   7.894  0.00  0.00    +0.077 A 
ATOM      5  C   UNL     1       9.751  27.507   8.751  0.00  0.00    +0.048 A 
ATOM      6  C   UNL     1      10.937  26.993   9.322  0.00  0.00    +0.116 A 
ATOM      7  N   UNL     1      11.333  25.701   9.051  0.00  0.00    -0.223 NA
ATOM      8  C   UNL     1      10.585  24.885   8.222  0.00  0.00    +0.220 A 
ATOM      9  N   UNL     1      10.968  23.586   7.928  0.00  0.00    -0.283 N 
ATOM     36  H   UNL     1      10.385  23.014   7.318  0.00  0.00    +0.155 HD
ATOM     37  N   UNL     1       9.448  25.352   7.664  0.00  0.00    -0.214 NA
BRANCH   4   3
ATOM      1  C   UNL     1       5.312  27.756   7.236  0.00  0.00    +0.020 A 
ATOM      2  C   UNL     1       6.514  27.377   7.942  0.00  0.00    +0.013 A 
ATOM      3  C   UNL     1       7.728  27.033   7.213  0.00  0.00    +0.019 A 
ATOM     38  C   UNL     1       7.693  27.083   5.759  0.00  0.00    +0.120 A 
ATOM     39  N   UNL     1       6.520  27.450   5.107  0.00  0.00    -0.263 NA
ATOM     40  C   UNL     1       5.345  27.782   5.797  0.00  0.00    +0.111 A 
ENDBRANCH   4   3
ENDBRANCH  10   9
BRANCH  12  13
ATOM     13  N   UNL     1      15.911  23.064   7.710  0.00  0.00    -0.281 N 
ATOM     14  C   UNL     1      16.583  22.289   6.779  0.00  0.00    +0.248 C 
ATOM     30  O   UNL     1      16.280  21.142   6.486  0.00  0.00    -0.270 OA
ATOM     31  H   UNL     1      16.379  23.922   8.000  0.00  0.00    +0.155 HD
BRANCH  14  15
ATOM     15  C   UNL     1      17.772  22.868   6.082  0.00  0.00    +0.037 A 
ATOM     16  C   UNL     1      19.088  22.229   6.166  0.00  0.00    +0.013 A 
ATOM     17  C   UNL     1      20.221  22.817   5.498  0.00  0.00    +0.005 A 
ATOM     18  C   UNL     1      20.043  24.052   4.738  0.00  0.00    -0.033 A 
ATOM     28  C   UNL     1      18.726  24.662   4.667  0.00  0.00    +0.005 A 
ATOM     29  C   UNL     1      17.613  24.089   5.321  0.00  0.00    +0.013 A 
BRANCH  18  19
ATOM     19  C   UNL     1      21.201  24.761   4.011  0.00  0.00    +0.119 C 
BRANCH  19  20
ATOM     20  N   UNL     1      20.840  25.764   2.965  0.00  0.00    -0.302 NA
ATOM     21  C   UNL     1      21.906  25.861   1.870  0.00  0.00    +0.066 C 
ATOM     22  C   UNL     1      21.502  26.898   0.772  0.00  0.00    -0.064 C 
ATOM     23  N   UNL     1      21.270  28.262   1.424  0.00  0.00    +0.379 N 
ATOM     24  C   UNL     1      20.946  29.253   0.387  0.00  0.00    -0.096 C 
ATOM     25  H   UNL     1      22.226  28.574   1.903  0.00  0.00    -0.082 HD
ATOM     26  C   UNL     1      20.213  28.174   2.516  0.00  0.00    -0.064 C 
ATOM     27  C   UNL     1      20.611  27.120   3.586  0.00  0.00    +0.066 C 
ENDBRANCH  19  20
ENDBRANCH  18  19
ENDBRANCH  14  15
ENDBRANCH  12  13
TORSDOF 6
ENDMDL
MODEL 3
REMARK VINA RESULT:      -8.1      4.024     12.481
REMARK  Name = C:\Users\Docking\Desktop\test protocol\1iep_ligandH.pdb
REMARK  8 active torsions:
REMARK  status: ('A' for Active; 'I' for Inactive)
REMARK    1  A    between atoms: _5  and  _11
REMARK    2  A    between atoms: _19  and  _21
REMARK    3  A    between atoms: _22  and  _66
REMARK    4  A    between atoms: _27  and  _30
REMARK    5  A    between atoms: _32  and  _33
REMARK    6  A    between atoms: _38  and  _43
REMARK    7  A    between atoms: _43  and  _46
REMARK    8  A    between atoms: _53  and  _55
REMARK                            x       y       z     vdW  Elec       q    Type
REMARK                         _______ _______ _______ _____ _____    ______ ____
ROOT
ATOM     10  C   UNL     1      12.445  23.300   8.160  0.00  0.00    +0.038 A 
ATOM     11  C   UNL     1      13.649  23.605   7.477  0.00  0.00    +0.047 A 
ATOM     12  C   UNL     1      14.931  23.106   7.952  0.00  0.00    +0.035 A 
ATOM     32  C   UNL     1      14.948  22.296   9.124  0.00  0.00    +0.024 A 
ATOM     33  C   UNL     1      13.733  21.976   9.831  0.00  0.00    +0.007 A 
ATOM     34  C   UNL     1      12.466  22.468   9.370  0.00  0.00    -0.029 A 
ATOM     35  C   UNL     1      11.196  22.099  10.171  0.00  0.00    +0.045 C 
ENDROOT
BRANCH  10   9
ATOM      4  C   UNL     1       9.095  26.724   7.854  0.00  0.00    +0.077 A 
ATOM      5  C   UNL     1       9.785  27.565   8.790  0.00  0.00    +0.048 A 
ATOM      6  C   UNL     1      10.995  27.077   9.332  0.00  0.00    +0.116 A 
ATOM      7  N   UNL     1      11.470  25.838   8.959  0.00  0.00    -0.223 NA
ATOM      8  C   UNL     1      10.779  25.051   8.056  0.00  0.00    +0.220 A 
ATOM      9  N   UNL     1      11.242  23.806   7.661  0.00  0.00    -0.283 N 
ATOM     36  H   UNL     1      10.700  23.253   6.998  0.00  0.00    +0.155 HD
ATOM     37  N   UNL     1       9.621  25.495   7.525  0.00  0.00    -0.214 NA
BRANCH   4   3
ATOM      1  C   UNL     1       5.394  27.837   7.252  0.00  0.00    +0.020 A 
ATOM      2  C   UNL     1       6.613  27.480   7.940  0.00  0.00    +0.013 A 
ATOM      3  C   UNL     1       7.806  27.102   7.193  0.00  0.00    +0.019 A 
ATOM     38  C   UNL     1       7.732  27.096   5.739  0.00  0.00    +0.120 A 
ATOM     39  N   UNL     1       6.543  27.443   5.105  0.00  0.00    -0.263 NA
ATOM     40  C   UNL     1       5.388  27.807   5.813  0.00  0.00    +0.111 A 
ENDBRANCH   4   3
ENDBRANCH  10   9
BRANCH  12  13
ATOM     13  N   UNL     1      16.187  23.390   7.304  0.00  0.00    -0.281 N 
ATOM     14  C   UNL     1      16.921  22.563   6.469  0.00  0.00    +0.248 C 
ATOM     30  O   UNL     1      16.712  21.368   6.322  0.00  0.00    -0.270 OA
ATOM     31  H   UNL     1      16.584  24.312   7.483  0.00  0.00    +0.155 HD
BRANCH  14  15
ATOM     15  C   UNL     1      18.061  23.144   5.697  0.00  0.00    +0.037 A 
ATOM     16  C   UNL     1      17.895  24.360   4.896  0.00  0.00    +0.013 A 
ATOM     17  C   UNL     1      19.006  24.890   4.147  0.00  0.00    +0.005 A 
ATOM     18  C   UNL     1      20.296  24.205   4.197  0.00  0.00    -0.033 A 
ATOM     28  C   UNL     1      20.434  23.004   5.004  0.00  0.00    +0.005 A 
ATOM     29  C   UNL     1      19.347  22.481   5.738  0.00  0.00    +0.013 A 
BRANCH  18  19
ATOM     19  C   UNL     1      21.530  24.688   3.413  0.00  0.00    +0.119 C 
BRANCH  19  20
ATOM     20  N   UNL     1      22.497  23.647   2.952  0.00  0.00    -0.302 NA
ATOM     21  C   UNL     1      23.927  23.950   3.407  0.00  0.00    +0.066 C 
ATOM     22  C   UNL     1      24.922  22.840   2.935  0.00  0.00    -0.064 C 
ATOM     23  N   UNL     1      24.854  22.712   1.412  0.00  0.00    +0.379 N 
ATOM     24  C   UNL     1      25.829  21.710   0.959  0.00  0.00    -0.096 C 
ATOM     25  H   UNL     1      25.151  23.695   0.977  0.00  0.00    -0.082 HD
ATOM     26  C   UNL     1      23.434  22.414   0.950  0.00  0.00    -0.064 C 
ATOM     27  C   UNL     1      22.449  23.508   1.450  0.00  0.00    +0.066 C 
ENDBRANCH  19  20
ENDBRANCH  18  19
ENDBRANCH  14  15
ENDBRANCH  12  13
TORSDOF 6
ENDMDL
MODEL 4
REMARK VINA RESULT:      -8.0      4.772     12.986
REMARK  Name = C:\Users\Docking\Desktop\test protocol\1iep_ligandH.pdb
REMARK  8 active torsions:
REMARK  status: ('A' for Active; 'I' for Inactive)
REMARK    1  A    between atoms: _5  and  _11
REMARK    2  A    between atoms: _19  and  _21
REMARK    3  A    between atoms: _22  and  _66
REMARK    4  A    between atoms: _27  and  _30
REMARK    5  A    between atoms: _32  and  _33
REMARK    6  A    between atoms: _38  and  _43
REMARK    7  A    between atoms: _43  and  _46
REMARK    8  A    between atoms: _53  and  _55
REMARK                            x       y       z     vdW  Elec       q    Type
REMARK                         _______ _______ _______ _____ _____    ______ ____
ROOT
ATOM     10  C   UNL     1      19.496  27.362   1.396  0.00  0.00    +0.038 A 
ATOM     11  C   UNL     1      20.141  28.556   1.809  0.00  0.00    +0.047 A 
ATOM     12  C   UNL     1      20.765  29.447   0.843  0.00  0.00    +0.035 A 
ATOM     32  C   UNL     1      20.712  29.093  -0.536  0.00  0.00    +0.024 A 
ATOM     33  C   UNL     1      20.062  27.882  -0.974  0.00  0.00    +0.007 A 
ATOM     34  C   UNL     1      19.447  26.998  -0.026  0.00  0.00    -0.029 A 
ATOM     35  C   UNL     1      18.770  25.710  -0.551  0.00  0.00    +0.045 C 
ENDROOT
BRANCH  10   9
ATOM      4  C   UNL     1      19.727  23.877   4.687  0.00  0.00    +0.077 A 
ATOM      5  C   UNL     1      21.121  23.650   4.435  0.00  0.00    +0.048 A 
ATOM      6  C   UNL     1      21.740  24.446   3.445  0.00  0.00    +0.116 A 
ATOM      7  N   UNL     1      21.009  25.396   2.765  0.00  0.00    -0.223 NA
ATOM      8  C   UNL     1      19.666  25.588   3.032  0.00  0.00    +0.220 A 
ATOM      9  N   UNL     1      18.913  26.543   2.365  0.00  0.00    -0.283 N 
ATOM     36  H   UNL     1      17.923  26.649   2.585  0.00  0.00    +0.155 HD
ATOM     37  N   UNL     1      19.052  24.839   3.971  0.00  0.00    -0.214 NA
BRANCH   4   3
ATOM      1  C   UNL     1      16.830  22.676   7.025  0.00  0.00    +0.020 A 
ATOM      2  C   UNL     1      17.552  23.441   6.035  0.00  0.00    +0.013 A 
ATOM      3  C   UNL     1      18.934  23.117   5.705  0.00  0.00    +0.019 A 
ATOM     38  C   UNL     1      19.561  22.004   6.400  0.00  0.00    +0.120 A 
ATOM     39  N   UNL     1      18.842  21.286   7.351  0.00  0.00    -0.263 NA
ATOM     40  C   UNL     1      17.512  21.589   7.677  0.00  0.00    +0.111 A 
ENDBRANCH   4   3
ENDBRANCH  10   9
BRANCH  12  13
ATOM     13  N   UNL     1      21.440  30.669   1.205  0.00  0.00    -0.281 N 
ATOM     14  C   UNL     1      22.188  30.924   2.343  0.00  0.00    +0.248 C 
ATOM     30  O   UNL     1      22.212  30.204   3.330  0.00  0.00    -0.270 OA
ATOM     31  H   UNL     1      21.357  31.439   0.541  0.00  0.00    +0.155 HD
BRANCH  14  15
ATOM     15  C   UNL     1      23.018  32.166   2.398  0.00  0.00    +0.037 A 
ATOM     16  C   UNL     1      23.761  32.636   1.226  0.00  0.00    +0.013 A 
ATOM     17  C   UNL     1      24.567  33.828   1.311  0.00  0.00    +0.005 A 
ATOM     18  C   UNL     1      24.634  34.559   2.574  0.00  0.00    -0.033 A 
ATOM     28  C   UNL     1      23.882  34.073   3.720  0.00  0.00    +0.005 A 
ATOM     29  C   UNL     1      23.092  32.905   3.640  0.00  0.00    +0.013 A 
BRANCH  18  19
ATOM     19  C   UNL     1      25.486  35.828   2.762  0.00  0.00    +0.119 C 
BRANCH  19  20
ATOM     20  N   UNL     1      24.803  37.032   3.323  0.00  0.00    -0.302 NA
ATOM     21  C   UNL     1      24.868  38.227   2.367  0.00  0.00    +0.066 C 
ATOM     22  C   UNL     1      24.130  39.471   2.960  0.00  0.00    -0.064 C 
ATOM     23  N   UNL     1      24.745  39.828   4.314  0.00  0.00    +0.379 N 
ATOM     24  C   UNL     1      24.092  41.032   4.847  0.00  0.00    -0.096 C 
ATOM     25  H   UNL     1      25.819  40.072   4.143  0.00  0.00    -0.082 HD
ATOM     26  C   UNL     1      24.688  38.645   5.270  0.00  0.00    -0.064 C 
ATOM     27  C   UNL     1      25.398  37.405   4.659  0.00  0.00    +0.066 C 
ENDBRANCH  19  20
ENDBRANCH  18  19
ENDBRANCH  14  15
ENDBRANCH  12  13
TORSDOF 6
ENDMDL
MODEL 5
REMARK VINA RESULT:      -7.9      2.048      2.769
REMARK  Name = C:\Users\Docking\Desktop\test protocol\1iep_ligandH.pdb
REMARK  8 active torsions:
REMARK  status: ('A' for Active; 'I' for Inactive)
REMARK    1  A    between atoms: _5  and  _11
REMARK    2  A    between atoms: _19  and  _21
REMARK    3  A    between atoms: _22  and  _66
REMARK    4  A    between atoms: _27  and  _30
REMARK    5  A    between atoms: _32  and  _33
REMARK    6  A    between atoms: _38  and  _43
REMARK    7  A    between atoms: _43  and  _46
REMARK    8  A    between atoms: _53  and  _55
REMARK                            x       y       z     vdW  Elec       q    Type
REMARK                         _______ _______ _______ _____ _____    ______ ____
ROOT
ATOM     10  C   UNL     1      20.304  25.783   4.163  0.00  0.00    +0.038 A 
ATOM     11  C   UNL     1      18.967  25.681   4.625  0.00  0.00    +0.047 A 
ATOM     12  C   UNL     1      18.302  24.391   4.729  0.00  0.00    +0.035 A 
ATOM     32  C   UNL     1      19.031  23.224   4.356  0.00  0.00    +0.024 A 
ATOM     33  C   UNL     1      20.390  23.309   3.883  0.00  0.00    +0.007 A 
ATOM     34  C   UNL     1      21.050  24.579   3.776  0.00  0.00    -0.029 A 
ATOM     35  C   UNL     1      22.506  24.612   3.257  0.00  0.00    +0.045 C 
ENDROOT
BRANCH  10   9
ATOM      4  C   UNL     1      21.417  29.790   1.769  0.00  0.00    +0.077 A 
ATOM      5  C   UNL     1      20.797  29.315   0.566  0.00  0.00    +0.048 A 
ATOM      6  C   UNL     1      20.209  28.030   0.603  0.00  0.00    +0.116 A 
ATOM      7  N   UNL     1      20.244  27.286   1.763  0.00  0.00    -0.223 NA
ATOM      8  C   UNL     1      20.852  27.774   2.905  0.00  0.00    +0.220 A 
ATOM      9  N   UNL     1      20.893  27.047   4.084  0.00  0.00    -0.283 N 
ATOM     36  H   UNL     1      21.357  27.439   4.903  0.00  0.00    +0.155 HD
ATOM     37  N   UNL     1      21.422  28.997   2.894  0.00  0.00    -0.214 NA
BRANCH   4   3
ATOM      1  C   UNL     1      23.673  32.913   1.091  0.00  0.00    +0.020 A 
ATOM      2  C   UNL     1      23.065  31.613   0.930  0.00  0.00    +0.013 A 
ATOM      3  C   UNL     1      22.079  31.128   1.888  0.00  0.00    +0.019 A 
ATOM     38  C   UNL     1      21.727  31.991   3.006  0.00  0.00    +0.120 A 
ATOM     39  N   UNL     1      22.331  33.238   3.135  0.00  0.00    -0.263 NA
ATOM     40  C   UNL     1      23.282  33.714   2.221  0.00  0.00    +0.111 A 
ENDBRANCH   4   3
ENDBRANCH  10   9
BRANCH  12  13
ATOM     13  N   UNL     1      16.944  24.226   5.183  0.00  0.00    -0.281 N 
ATOM     14  C   UNL     1      15.872  23.692   4.488  0.00  0.00    +0.248 C 
ATOM     30  O   UNL     1      15.870  23.469   3.286  0.00  0.00    -0.270 OA
ATOM     31  H   UNL     1      16.749  24.542   6.133  0.00  0.00    +0.155 HD
BRANCH  14  15
ATOM     15  C   UNL     1      14.615  23.373   5.231  0.00  0.00    +0.037 A 
ATOM     16  C   UNL     1      13.315  23.363   4.557  0.00  0.00    +0.013 A 
ATOM     17  C   UNL     1      12.116  23.068   5.301  0.00  0.00    +0.005 A 
ATOM     18  C   UNL     1      12.213  22.780   6.730  0.00  0.00    -0.033 A 
ATOM     28  C   UNL     1      13.517  22.791   7.373  0.00  0.00    +0.005 A 
ATOM     29  C   UNL     1      14.694  23.080   6.647  0.00  0.00    +0.013 A 
BRANCH  18  19
ATOM     19  C   UNL     1      10.984  22.476   7.607  0.00  0.00    +0.119 C 
BRANCH  19  20
ATOM     20  N   UNL     1      11.237  21.909   8.965  0.00  0.00    -0.302 NA
ATOM     21  C   UNL     1      10.730  20.469   9.091  0.00  0.00    +0.066 C 
ATOM     22  C   UNL     1      11.023  19.884  10.510  0.00  0.00    -0.064 C 
ATOM     23  N   UNL     1      10.380  20.779  11.571  0.00  0.00    +0.379 N 
ATOM     24  C   UNL     1      10.604  20.200  12.903  0.00  0.00    -0.096 C 
ATOM     25  H   UNL     1       9.280  20.785  11.385  0.00  0.00    -0.082 HD
ATOM     26  C   UNL     1      10.876  22.213  11.452  0.00  0.00    -0.064 C 
ATOM     27  C   UNL     1      10.607  22.775  10.028  0.00  0.00    +0.066 C 
ENDBRANCH  19  20
ENDBRANCH  18  19
ENDBRANCH  14  15
ENDBRANCH  12  13
TORSDOF 6
ENDMDL
