MODEL 1
REMARK VINA RESULT:      -7.9      0.000      0.000
REMARK  Name = C:\Users\Docking\Desktop\test protocol\1iep_ligandH.pdb
REMARK  8 active torsions:
REMARK  status: ('A' for Active; 'I' for Inactive)
REMARK    1  A    between atoms: _5  and  _11
REMARK    2  A    between atoms: _19  and  _21
REMARK    3  A    between atoms: _22  and  _66
REMARK    4  A    between atoms: _27  and  _30
REMARK    5  A    between atoms: _32  and  _33
REMARK    6  A    between atoms: _38  and  _43
REMARK    7  A    between atoms: _43  and  _46
REMARK    8  A    between atoms: _53  and  _55
REMARK                            x       y       z     vdW  Elec       q    Type
REMARK                         _______ _______ _______ _____ _____    ______ ____
ROOT
ATOM     10  C   UNL     1      12.272  23.140   7.944  0.00  0.00    +0.038 A 
ATOM     11  C   UNL     1      13.470  23.503   7.277  0.00  0.00    +0.047 A 
ATOM     12  C   UNL     1      14.757  22.976   7.702  0.00  0.00    +0.035 A 
ATOM     32  C   UNL     1      14.788  22.080   8.810  0.00  0.00    +0.024 A 
ATOM     33  C   UNL     1      13.580  21.701   9.500  0.00  0.00    +0.007 A 
ATOM     34  C   UNL     1      12.308  22.219   9.087  0.00  0.00    -0.029 A 
ATOM     35  C   UNL     1      11.046  21.783   9.868  0.00  0.00    +0.045 C 
ENDROOT
BRANCH  10   9
ATOM      4  C   UNL     1       9.077  26.708   7.635  0.00  0.00    +0.077 A 
ATOM      5  C   UNL     1       9.871  27.570   8.463  0.00  0.00    +0.048 A 
ATOM      6  C   UNL     1      11.091  27.054   8.955  0.00  0.00    +0.116 A 
ATOM      7  N   UNL     1      11.479  25.771   8.635  0.00  0.00    -0.223 NA
ATOM      8  C   UNL     1      10.689  24.966   7.835  0.00  0.00    +0.220 A 
ATOM      9  N   UNL     1      11.063  23.675   7.494  0.00  0.00    -0.283 N 
ATOM     36  H   UNL     1      10.449  23.110   6.907  0.00  0.00    +0.155 HD
ATOM     37  N   UNL     1       9.519  25.434   7.354  0.00  0.00    -0.214 NA
BRANCH   4   3
ATOM      1  C   UNL     1       5.316  27.694   7.206  0.00  0.00    +0.020 A 
ATOM      2  C   UNL     1       6.558  27.305   7.832  0.00  0.00    +0.013 A 
ATOM      3  C   UNL     1       7.765  27.110   7.037  0.00  0.00    +0.019 A 
ATOM     38  C   UNL     1       7.679  27.320   5.600  0.00  0.00    +0.120 A 
ATOM     39  N   UNL     1       6.469  27.693   5.024  0.00  0.00    -0.263 NA
ATOM     40  C   UNL     1       5.301  27.881   5.779  0.00  0.00    +0.111 A 
ENDBRANCH   4   3
ENDBRANCH  10   9
BRANCH  12  13
ATOM     13  N   UNL     1      16.007  23.315   7.069  0.00  0.00    -0.281 N 
ATOM     14  C   UNL     1      16.842  22.488   6.336  0.00  0.00    +0.248 C 
ATOM     30  O   UNL     1      16.746  21.271   6.293  0.00  0.00    -0.270 OA
ATOM     31  H   UNL     1      16.314  24.283   7.174  0.00  0.00    +0.155 HD
BRANCH  14  15
ATOM     15  C   UNL     1      17.954  23.101   5.547  0.00  0.00    +0.037 A 
ATOM     16  C   UNL     1      19.289  22.497   5.520  0.00  0.00    +0.013 A 
ATOM     17  C   UNL     1      20.348  23.118   4.764  0.00  0.00    +0.005 A 
ATOM     18  C   UNL     1      20.076  24.350   4.028  0.00  0.00    -0.033 A 
ATOM     28  C   UNL     1      18.741  24.924   4.068  0.00  0.00    +0.005 A 
ATOM     29  C   UNL     1      17.701  24.319   4.808  0.00  0.00    +0.013 A 
BRANCH  18  19
ATOM     19  C   UNL     1      21.151  25.092   3.213  0.00  0.00    +0.119 C 
BRANCH  19  20
ATOM     20  N   UNL     1      20.680  26.100   2.217  0.00  0.00    -0.302 NA
ATOM     21  C   UNL     1      20.569  25.508   0.809  0.00  0.00    +0.066 C 
ATOM     22  C   UNL     1      20.053  26.569  -0.216  0.00  0.00    -0.064 C 
ATOM     23  N   UNL     1      20.990  27.778  -0.209  0.00  0.00    +0.379 N 
ATOM     24  C   UNL     1      20.541  28.753  -1.214  0.00  0.00    -0.096 C 
ATOM     25  H   UNL     1      22.003  27.423  -0.512  0.00  0.00    -0.082 HD
ATOM     26  C   UNL     1      21.108  28.372   1.187  0.00  0.00    -0.064 C 
ATOM     27  C   UNL     1      21.593  27.301   2.204  0.00  0.00    +0.066 C 
ENDBRANCH  19  20
ENDBRANCH  18  19
ENDBRANCH  14  15
ENDBRANCH  12  13
TORSDOF 6
ENDMDL
MODEL 2
REMARK VINA RESULT:      -7.8      1.566      2.132
REMARK  Name = C:\Users\Docking\Desktop\test protocol\1iep_ligandH.pdb
REMARK  8 active torsions:
REMARK  status: ('A' for Active; 'I' for Inactive)
REMARK    1  A    between atoms: _5  and  _11
REMARK    2  A    between atoms: _19  and  _21
REMARK    3  A    between atoms: _22  and  _66
REMARK    4  A    between atoms: _27  and  _30
REMARK    5  A    between atoms: _32  and  _33
REMARK    6  A    between atoms: _38  and  _43
REMARK    7  A    between atoms: _43  and  _46
REMARK    8  A    between atoms: _53  and  _55
REMARK                            x       y       z     vdW  Elec       q    Type
REMARK                         _______ _______ _______ _____ _____    ______ ____
ROOT
ATOM     10  C   UNL     1      12.503  23.179   7.656  0.00  0.00    +0.038 A 
ATOM     11  C   UNL     1      13.707  23.576   7.019  0.00  0.00    +0.047 A 
ATOM     12  C   UNL     1      14.994  23.057   7.453  0.00  0.00    +0.035 A 
ATOM     32  C   UNL     1      15.020  22.134   8.539  0.00  0.00    +0.024 A 
ATOM     33  C   UNL     1      13.806  21.721   9.199  0.00  0.00    +0.007 A 
ATOM     34  C   UNL     1      12.533  22.231   8.776  0.00  0.00    -0.029 A 
ATOM     35  C   UNL     1      11.265  21.758   9.525  0.00  0.00    +0.045 C 
ENDROOT
BRANCH  10   9
ATOM      4  C   UNL     1       9.190  26.649   7.502  0.00  0.00    +0.077 A 
ATOM      5  C   UNL     1       9.915  27.464   8.432  0.00  0.00    +0.048 A 
ATOM      6  C   UNL     1      11.133  26.952   8.933  0.00  0.00    +0.116 A 
ATOM      7  N   UNL     1      11.583  25.714   8.526  0.00  0.00    -0.223 NA
ATOM      8  C   UNL     1      10.858  24.952   7.628  0.00  0.00    +0.220 A 
ATOM      9  N   UNL     1      11.295  23.709   7.198  0.00  0.00    -0.283 N 
ATOM     36  H   UNL     1      10.727  23.174   6.541  0.00  0.00    +0.155 HD
ATOM     37  N   UNL     1       9.691  25.419   7.136  0.00  0.00    -0.214 NA
BRANCH   4   3
ATOM      1  C   UNL     1       5.443  27.657   7.010  0.00  0.00    +0.020 A 
ATOM      2  C   UNL     1       6.674  27.266   7.658  0.00  0.00    +0.013 A 
ATOM      3  C   UNL     1       7.889  27.054   6.882  0.00  0.00    +0.019 A 
ATOM     38  C   UNL     1       7.825  27.249   5.441  0.00  0.00    +0.120 A 
ATOM     39  N   UNL     1       6.625  27.624   4.845  0.00  0.00    -0.263 NA
ATOM     40  C   UNL     1       5.449  27.829   5.581  0.00  0.00    +0.111 A 
ENDBRANCH   4   3
ENDBRANCH  10   9
BRANCH  12  13
ATOM     13  N   UNL     1      16.250  23.430   6.850  0.00  0.00    -0.281 N 
ATOM     14  C   UNL     1      16.945  22.767   5.852  0.00  0.00    +0.248 C 
ATOM     30  O   UNL     1      16.696  21.632   5.474  0.00  0.00    -0.270 OA
ATOM     31  H   UNL     1      16.678  24.287   7.201  0.00  0.00    +0.155 HD
BRANCH  14  15
ATOM     15  C   UNL     1      18.091  23.459   5.188  0.00  0.00    +0.037 A 
ATOM     16  C   UNL     1      17.885  24.661   4.375  0.00  0.00    +0.013 A 
ATOM     17  C   UNL     1      19.006  25.300   3.732  0.00  0.00    +0.005 A 
ATOM     18  C   UNL     1      20.344  24.737   3.900  0.00  0.00    -0.033 A 
ATOM     28  C   UNL     1      20.520  23.547   4.716  0.00  0.00    +0.005 A 
ATOM     29  C   UNL     1      19.424  22.918   5.347  0.00  0.00    +0.013 A 
BRANCH  18  19
ATOM     19  C   UNL     1      21.594  25.341   3.233  0.00  0.00    +0.119 C 
BRANCH  19  20
ATOM     20  N   UNL     1      22.122  24.649   2.019  0.00  0.00    -0.302 NA
ATOM     21  C   UNL     1      23.362  23.807   2.331  0.00  0.00    +0.066 C 
ATOM     22  C   UNL     1      23.888  23.073   1.054  0.00  0.00    -0.064 C 
ATOM     23  N   UNL     1      24.193  24.104  -0.034  0.00  0.00    +0.379 N 
ATOM     24  C   UNL     1      24.742  23.423  -1.215  0.00  0.00    -0.096 C 
ATOM     25  H   UNL     1      24.981  24.788   0.360  0.00  0.00    -0.082 HD
ATOM     26  C   UNL     1      22.966  24.948  -0.348  0.00  0.00    -0.064 C 
ATOM     27  C   UNL     1      22.434  25.649   0.933  0.00  0.00    +0.066 C 
ENDBRANCH  19  20
ENDBRANCH  18  19
ENDBRANCH  14  15
ENDBRANCH  12  13
TORSDOF 6
ENDMDL
MODEL 3
REMARK VINA RESULT:      -7.8      2.424     11.887
REMARK  Name = C:\Users\Docking\Desktop\test protocol\1iep_ligandH.pdb
REMARK  8 active torsions:
REMARK  status: ('A' for Active; 'I' for Inactive)
REMARK    1  A    between atoms: _5  and  _11
REMARK    2  A    between atoms: _19  and  _21
REMARK    3  A    between atoms: _22  and  _66
REMARK    4  A    between atoms: _27  and  _30
REMARK    5  A    between atoms: _32  and  _33
REMARK    6  A    between atoms: _38  and  _43
REMARK    7  A    between atoms: _43  and  _46
REMARK    8  A    between atoms: _53  and  _55
REMARK                            x       y       z     vdW  Elec       q    Type
REMARK                         _______ _______ _______ _____ _____    ______ ____
ROOT
ATOM     10  C   UNL     1      20.333  25.421   3.247  0.00  0.00    +0.038 A 
ATOM     11  C   UNL     1      19.059  25.135   3.801  0.00  0.00    +0.047 A 
ATOM     12  C   UNL     1      18.460  23.816   3.669  0.00  0.00    +0.035 A 
ATOM     32  C   UNL     1      19.189  22.810   2.970  0.00  0.00    +0.024 A 
ATOM     33  C   UNL     1      20.485  23.084   2.400  0.00  0.00    +0.007 A 
ATOM     34  C   UNL     1      21.079  24.384   2.524  0.00  0.00    -0.029 A 
ATOM     35  C   UNL     1      22.468  24.623   1.887  0.00  0.00    +0.045 C 
ENDROOT
BRANCH  10   9
ATOM      4  C   UNL     1      21.325  29.818   1.598  0.00  0.00    +0.077 A 
ATOM      5  C   UNL     1      20.771  29.524   0.308  0.00  0.00    +0.048 A 
ATOM      6  C   UNL     1      20.247  28.227   0.107  0.00  0.00    +0.116 A 
ATOM      7  N   UNL     1      20.280  27.302   1.128  0.00  0.00    -0.223 NA
ATOM      8  C   UNL     1      20.823  27.618   2.360  0.00  0.00    +0.220 A 
ATOM      9  N   UNL     1      20.860  26.705   3.403  0.00  0.00    -0.283 N 
ATOM     36  H   UNL     1      21.276  26.975   4.294  0.00  0.00    +0.155 HD
ATOM     37  N   UNL     1      21.331  28.849   2.576  0.00  0.00    -0.214 NA
BRANCH   4   3
ATOM      1  C   UNL     1      22.155  33.139   3.491  0.00  0.00    +0.020 A 
ATOM      2  C   UNL     1      21.556  31.861   3.183  0.00  0.00    +0.013 A 
ATOM      3  C   UNL     1      21.914  31.145   1.965  0.00  0.00    +0.019 A 
ATOM     38  C   UNL     1      22.888  31.755   1.073  0.00  0.00    +0.120 A 
ATOM     39  N   UNL     1      23.447  32.988   1.395  0.00  0.00    -0.263 NA
ATOM     40  C   UNL     1      23.109  33.687   2.563  0.00  0.00    +0.111 A 
ENDBRANCH   4   3
ENDBRANCH  10   9
BRANCH  12  13
ATOM     13  N   UNL     1      17.167  23.469   4.204  0.00  0.00    -0.281 N 
ATOM     14  C   UNL     1      16.877  22.907   5.436  0.00  0.00    +0.248 C 
ATOM     30  O   UNL     1      17.710  22.419   6.186  0.00  0.00    -0.270 OA
ATOM     31  H   UNL     1      16.367  23.661   3.600  0.00  0.00    +0.155 HD
BRANCH  14  15
ATOM     15  C   UNL     1      15.456  22.871   5.897  0.00  0.00    +0.037 A 
ATOM     16  C   UNL     1      14.357  22.645   4.955  0.00  0.00    +0.013 A 
ATOM     17  C   UNL     1      12.994  22.631   5.423  0.00  0.00    +0.005 A 
ATOM     18  C   UNL     1      12.722  22.843   6.843  0.00  0.00    -0.033 A 
ATOM     28  C   UNL     1      13.832  23.059   7.757  0.00  0.00    +0.005 A 
ATOM     29  C   UNL     1      15.169  23.075   7.301  0.00  0.00    +0.013 A 
BRANCH  18  19
ATOM     19  C   UNL     1      11.297  22.866   7.428  0.00  0.00    +0.119 C 
BRANCH  19  20
ATOM     20  N   UNL     1      10.713  24.201   7.753  0.00  0.00    -0.302 NA
ATOM     21  C   UNL     1       9.553  24.093   8.746  0.00  0.00    +0.066 C 
ATOM     22  C   UNL     1       8.968  25.501   9.093  0.00  0.00    -0.064 C 
ATOM     23  N   UNL     1       8.517  26.194   7.806  0.00  0.00    +0.379 N 
ATOM     24  C   UNL     1       7.914  27.494   8.134  0.00  0.00    -0.096 C 
ATOM     25  H   UNL     1       7.726  25.562   7.341  0.00  0.00    -0.082 HD
ATOM     26  C   UNL     1       9.665  26.303   6.812  0.00  0.00    -0.064 C 
ATOM     27  C   UNL     1      10.258  24.901   6.497  0.00  0.00    +0.066 C 
ENDBRANCH  19  20
ENDBRANCH  18  19
ENDBRANCH  14  15
ENDBRANCH  12  13
TORSDOF 6
ENDMDL
MODEL 4
REMARK VINA RESULT:      -7.7      7.229     15.056
REMARK  Name = C:\Users\Docking\Desktop\test protocol\1iep_ligandH.pdb
REMARK  8 active torsions:
REMARK  status: ('A' for Active; 'I' for Inactive)
REMARK    1  A    between atoms: _5  and  _11
REMARK    2  A    between atoms: _19  and  _21
REMARK    3  A    between atoms: _22  and  _66
REMARK    4  A    between atoms: _27  and  _30
REMARK    5  A    between atoms: _32  and  _33
REMARK    6  A    between atoms: _38  and  _43
REMARK    7  A    between atoms: _43  and  _46
REMARK    8  A    between atoms: _53  and  _55
REMARK                            x       y       z     vdW  Elec       q    Type
REMARK                         _______ _______ _______ _____ _____    ______ ____
ROOT
ATOM     10  C   UNL     1       9.326  25.477   8.136  0.00  0.00    +0.038 A 
ATOM     11  C   UNL     1       7.961  25.864   8.148  0.00  0.00    +0.047 A 
ATOM     12  C   UNL     1       7.574  27.261   8.033  0.00  0.00    +0.035 A 
ATOM     32  C   UNL     1       8.603  28.239   7.904  0.00  0.00    +0.024 A 
ATOM     33  C   UNL     1       9.995  27.864   7.891  0.00  0.00    +0.007 A 
ATOM     34  C   UNL     1      10.383  26.487   8.007  0.00  0.00    -0.029 A 
ATOM     35  C   UNL     1      11.891  26.143   7.994  0.00  0.00    +0.045 C 
ENDROOT
BRANCH  10   9
ATOM      4  C   UNL     1      10.782  21.668  10.667  0.00  0.00    +0.077 A 
ATOM      5  C   UNL     1      10.956  22.451  11.857  0.00  0.00    +0.048 A 
ATOM      6  C   UNL     1      10.666  23.831  11.773  0.00  0.00    +0.116 A 
ATOM      7  N   UNL     1      10.236  24.377  10.584  0.00  0.00    -0.223 NA
ATOM      8  C   UNL     1      10.080  23.595   9.454  0.00  0.00    +0.220 A 
ATOM      9  N   UNL     1       9.641  24.121   8.250  0.00  0.00    -0.283 N 
ATOM     36  H   UNL     1       9.546  23.512   7.438  0.00  0.00    +0.155 HD
ATOM     37  N   UNL     1      10.351  22.274   9.508  0.00  0.00    -0.214 NA
BRANCH   4   3
ATOM      1  C   UNL     1      10.401  17.789  10.996  0.00  0.00    +0.020 A 
ATOM      2  C   UNL     1      10.100  19.199  11.088  0.00  0.00    +0.013 A 
ATOM      3  C   UNL     1      11.044  20.196  10.597  0.00  0.00    +0.019 A 
ATOM     38  C   UNL     1      12.292  19.729  10.014  0.00  0.00    +0.120 A 
ATOM     39  N   UNL     1      12.556  18.364   9.940  0.00  0.00    -0.263 NA
ATOM     40  C   UNL     1      11.656  17.396  10.411  0.00  0.00    +0.111 A 
ENDBRANCH   4   3
ENDBRANCH  10   9
BRANCH  12  13
ATOM     13  N   UNL     1       6.205  27.715   8.047  0.00  0.00    -0.281 N 
ATOM     14  C   UNL     1       5.300  27.722   6.998  0.00  0.00    +0.248 C 
ATOM     30  O   UNL     1       5.597  27.537   5.828  0.00  0.00    -0.270 OA
ATOM     31  H   UNL     1       5.862  28.073   8.938  0.00  0.00    +0.155 HD
BRANCH  14  15
ATOM     15  C   UNL     1       3.859  27.988   7.291  0.00  0.00    +0.037 A 
ATOM     16  C   UNL     1       3.341  29.356   7.379  0.00  0.00    +0.013 A 
ATOM     17  C   UNL     1       1.950  29.584   7.679  0.00  0.00    +0.005 A 
ATOM     18  C   UNL     1       1.066  28.441   7.893  0.00  0.00    -0.033 A 
ATOM     28  C   UNL     1       1.605  27.095   7.795  0.00  0.00    +0.005 A 
ATOM     29  C   UNL     1       2.968  26.867   7.501  0.00  0.00    +0.013 A 
BRANCH  18  19
ATOM     19  C   UNL     1      -0.428  28.591   8.239  0.00  0.00    +0.119 C 
BRANCH  19  20
ATOM     20  N   UNL     1      -0.783  28.748   9.681  0.00  0.00    -0.302 NA
ATOM     21  C   UNL     1      -1.813  27.710  10.135  0.00  0.00    +0.066 C 
ATOM     22  C   UNL     1      -2.156  27.874  11.651  0.00  0.00    -0.064 C 
ATOM     23  N   UNL     1      -2.670  29.293  11.904  0.00  0.00    +0.379 N 
ATOM     24  C   UNL     1      -3.048  29.433  13.318  0.00  0.00    -0.096 C 
ATOM     25  H   UNL     1      -3.590  29.433  11.292  0.00  0.00    -0.082 HD
ATOM     26  C   UNL     1      -1.653  30.331  11.453  0.00  0.00    -0.064 C 
ATOM     27  C   UNL     1      -1.296  30.141   9.952  0.00  0.00    +0.066 C 
ENDBRANCH  19  20
ENDBRANCH  18  19
ENDBRANCH  14  15
ENDBRANCH  12  13
TORSDOF 6
ENDMDL
MODEL 5
REMARK VINA RESULT:      -7.5      2.287     12.357
REMARK  Name = C:\Users\Docking\Desktop\test protocol\1iep_ligandH.pdb
REMARK  8 active torsions:
REMARK  status: ('A' for Active; 'I' for Inactive)
REMARK    1  A    between atoms: _5  and  _11
REMARK    2  A    between atoms: _19  and  _21
REMARK    3  A    between atoms: _22  and  _66
REMARK    4  A    between atoms: _27  and  _30
REMARK    5  A    between atoms: _32  and  _33
REMARK    6  A    between atoms: _38  and  _43
REMARK    7  A    between atoms: _43  and  _46
REMARK    8  A    between atoms: _53  and  _55
REMARK                            x       y       z     vdW  Elec       q    Type
REMARK                         _______ _______ _______ _____ _____    ______ ____
ROOT
ATOM     10  C   UNL     1      14.542  23.073   7.664  0.00  0.00    +0.038 A 
ATOM     11  C   UNL     1      13.395  23.882   7.462  0.00  0.00    +0.047 A 
ATOM     12  C   UNL     1      12.090  23.475   7.961  0.00  0.00    +0.035 A 
ATOM     32  C   UNL     1      11.990  22.239   8.663  0.00  0.00    +0.024 A 
ATOM     33  C   UNL     1      13.146  21.404   8.877  0.00  0.00    +0.007 A 
ATOM     34  C   UNL     1      14.435  21.798   8.385  0.00  0.00    -0.029 A 
ATOM     35  C   UNL     1      15.638  20.860   8.637  0.00  0.00    +0.045 C 
ENDROOT
BRANCH  10   9
ATOM      4  C   UNL     1      17.919  23.211   4.256  0.00  0.00    +0.077 A 
ATOM      5  C   UNL     1      17.187  22.311   3.412  0.00  0.00    +0.048 A 
ATOM      6  C   UNL     1      15.950  21.830   3.894  0.00  0.00    +0.116 A 
ATOM      7  N   UNL     1      15.488  22.226   5.131  0.00  0.00    -0.223 NA
ATOM      8  C   UNL     1      16.219  23.094   5.921  0.00  0.00    +0.220 A 
ATOM      9  N   UNL     1      15.770  23.512   7.164  0.00  0.00    -0.283 N 
ATOM     36  H   UNL     1      16.342  24.147   7.720  0.00  0.00    +0.155 HD
ATOM     37  N   UNL     1      17.405  23.566   5.483  0.00  0.00    -0.214 NA
BRANCH   4   3
ATOM      1  C   UNL     1      21.672  24.309   4.332  0.00  0.00    +0.020 A 
ATOM      2  C   UNL     1      20.419  23.716   4.738  0.00  0.00    +0.013 A 
ATOM      3  C   UNL     1      19.241  23.807   3.885  0.00  0.00    +0.019 A 
ATOM     38  C   UNL     1      19.366  24.510   2.617  0.00  0.00    +0.120 A 
ATOM     39  N   UNL     1      20.585  25.073   2.253  0.00  0.00    -0.263 NA
ATOM     40  C   UNL     1      21.725  24.993   3.067  0.00  0.00    +0.111 A 
ENDBRANCH   4   3
ENDBRANCH  10   9
BRANCH  12  13
ATOM     13  N   UNL     1      10.888  24.252   7.779  0.00  0.00    -0.281 N 
ATOM     14  C   UNL     1      10.671  25.577   8.120  0.00  0.00    +0.248 C 
ATOM     30  O   UNL     1      11.412  26.238   8.832  0.00  0.00    -0.270 OA
ATOM     31  H   UNL     1      10.103  23.765   7.346  0.00  0.00    +0.155 HD
BRANCH  14  15
ATOM     15  C   UNL     1       9.445  26.262   7.607  0.00  0.00    +0.037 A 
ATOM     16  C   UNL     1       9.315  26.631   6.196  0.00  0.00    +0.013 A 
ATOM     17  C   UNL     1       8.129  27.306   5.731  0.00  0.00    +0.005 A 
ATOM     18  C   UNL     1       7.063  27.616   6.681  0.00  0.00    -0.033 A 
ATOM     28  C   UNL     1       7.216  27.234   8.075  0.00  0.00    +0.005 A 
ATOM     29  C   UNL     1       8.377  26.573   8.534  0.00  0.00    +0.013 A 
BRANCH  18  19
ATOM     19  C   UNL     1       5.772  28.354   6.278  0.00  0.00    +0.119 C 
BRANCH  19  20
ATOM     20  N   UNL     1       4.497  27.890   6.900  0.00  0.00    -0.302 NA
ATOM     21  C   UNL     1       3.817  26.797   6.071  0.00  0.00    +0.066 C 
ATOM     22  C   UNL     1       2.496  26.307   6.748  0.00  0.00    -0.064 C 
ATOM     23  N   UNL     1       1.557  27.498   6.949  0.00  0.00    +0.379 N 
ATOM     24  C   UNL     1       0.291  27.032   7.533  0.00  0.00    -0.096 C 
ATOM     25  H   UNL     1       1.330  27.923   5.943  0.00  0.00    -0.082 HD
ATOM     26  C   UNL     1       2.226  28.591   7.771  0.00  0.00    -0.064 C 
ATOM     27  C   UNL     1       3.553  29.050   7.104  0.00  0.00    +0.066 C 
ENDBRANCH  19  20
ENDBRANCH  18  19
ENDBRANCH  14  15
ENDBRANCH  12  13
TORSDOF 6
ENDMDL
