MODEL 1
REMARK VINA RESULT:      -8.5      0.000      0.000
REMARK  Name = C:\Users\Docking\Desktop\test protocol\1iep_ligandH.pdb
REMARK  8 active torsions:
REMARK  status: ('A' for Active; 'I' for Inactive)
REMARK    1  A    between atoms: _5  and  _11
REMARK    2  A    between atoms: _19  and  _21
REMARK    3  A    between atoms: _22  and  _66
REMARK    4  A    between atoms: _27  and  _30
REMARK    5  A    between atoms: _32  and  _33
REMARK    6  A    between atoms: _38  and  _43
REMARK    7  A    between atoms: _43  and  _46
REMARK    8  A    between atoms: _53  and  _55
REMARK                            x       y       z     vdW  Elec       q    Type
REMARK                         _______ _______ _______ _____ _____    ______ ____
ROOT
ATOM     10  C   UNL     1      20.350  25.859   3.964  0.00  0.00    +0.038 A 
ATOM     11  C   UNL     1      19.100  25.639   4.596  0.00  0.00    +0.047 A 
ATOM     12  C   UNL     1      18.490  24.318   4.618  0.00  0.00    +0.035 A 
ATOM     32  C   UNL     1      19.182  23.244   3.988  0.00  0.00    +0.024 A 
ATOM     33  C   UNL     1      20.453  23.450   3.340  0.00  0.00    +0.007 A 
ATOM     34  C   UNL     1      21.059  24.750   3.313  0.00  0.00    -0.029 A 
ATOM     35  C   UNL     1      22.420  24.915   2.598  0.00  0.00    +0.045 C 
ENDROOT
BRANCH  10   9
ATOM      4  C   UNL     1      21.389  30.028   1.825  0.00  0.00    +0.077 A 
ATOM      5  C   UNL     1      20.834  29.593   0.575  0.00  0.00    +0.048 A 
ATOM      6  C   UNL     1      20.298  28.287   0.523  0.00  0.00    +0.116 A 
ATOM      7  N   UNL     1      20.320  27.484   1.643  0.00  0.00    -0.223 NA
ATOM      8  C   UNL     1      20.864  27.934   2.832  0.00  0.00    +0.220 A 
ATOM      9  N   UNL     1      20.890  27.147   3.973  0.00  0.00    -0.283 N 
ATOM     36  H   UNL     1      21.307  27.513   4.829  0.00  0.00    +0.155 HD
ATOM     37  N   UNL     1      21.384  29.177   2.907  0.00  0.00    -0.214 NA
BRANCH   4   3
ATOM      1  C   UNL     1      22.371  33.470   3.403  0.00  0.00    +0.020 A 
ATOM      2  C   UNL     1      21.766  32.167   3.246  0.00  0.00    +0.013 A 
ATOM      3  C   UNL     1      21.991  31.382   2.039  0.00  0.00    +0.019 A 
ATOM     38  C   UNL     1      22.841  31.948   1.002  0.00  0.00    +0.120 A 
ATOM     39  N   UNL     1      23.409  33.205   1.181  0.00  0.00    -0.263 NA
ATOM     40  C   UNL     1      23.198  33.971   2.337  0.00  0.00    +0.111 A 
ENDBRANCH   4   3
ENDBRANCH  10   9
BRANCH  12  13
ATOM     13  N   UNL     1      17.218  24.036   5.237  0.00  0.00    -0.281 N 
ATOM     14  C   UNL     1      16.968  23.238   6.342  0.00  0.00    +0.248 C 
ATOM     30  O   UNL     1      17.779  22.471   6.839  0.00  0.00    -0.270 OA
ATOM     31  H   UNL     1      16.405  24.478   4.810  0.00  0.00    +0.155 HD
BRANCH  14  15
ATOM     15  C   UNL     1      15.616  23.290   6.978  0.00  0.00    +0.037 A 
ATOM     16  C   UNL     1      14.399  23.400   6.169  0.00  0.00    +0.013 A 
ATOM     17  C   UNL     1      13.109  23.465   6.808  0.00  0.00    +0.005 A 
ATOM     18  C   UNL     1      13.029  23.418   8.266  0.00  0.00    -0.033 A 
ATOM     28  C   UNL     1      14.252  23.303   9.044  0.00  0.00    +0.005 A 
ATOM     29  C   UNL     1      15.518  23.240   8.421  0.00  0.00    +0.013 A 
BRANCH  18  19
ATOM     19  C   UNL     1      11.697  23.502   9.034  0.00  0.00    +0.119 C 
BRANCH  19  20
ATOM     20  N   UNL     1      10.801  24.656   8.725  0.00  0.00    -0.302 NA
ATOM     21  C   UNL     1      11.418  25.992   9.148  0.00  0.00    +0.066 C 
ATOM     22  C   UNL     1      10.478  27.190   8.797  0.00  0.00    -0.064 C 
ATOM     23  N   UNL     1       9.120  26.984   9.469  0.00  0.00    +0.379 N 
ATOM     24  C   UNL     1       8.252  28.137   9.188  0.00  0.00    -0.096 C 
ATOM     25  H   UNL     1       9.290  26.949  10.570  0.00  0.00    -0.082 HD
ATOM     26  C   UNL     1       8.500  25.656   9.055  0.00  0.00    -0.064 C 
ATOM     27  C   UNL     1       9.455  24.475   9.382  0.00  0.00    +0.066 C 
ENDBRANCH  19  20
ENDBRANCH  18  19
ENDBRANCH  14  15
ENDBRANCH  12  13
TORSDOF 6
ENDMDL
MODEL 2
REMARK VINA RESULT:      -8.4      2.098     11.977
REMARK  Name = C:\Users\Docking\Desktop\test protocol\1iep_ligandH.pdb
REMARK  8 active torsions:
REMARK  status: ('A' for Active; 'I' for Inactive)
REMARK    1  A    between atoms: _5  and  _11
REMARK    2  A    between atoms: _19  and  _21
REMARK    3  A    between atoms: _22  and  _66
REMARK    4  A    between atoms: _27  and  _30
REMARK    5  A    between atoms: _32  and  _33
REMARK    6  A    between atoms: _38  and  _43
REMARK    7  A    between atoms: _43  and  _46
REMARK    8  A    between atoms: _53  and  _55
REMARK                            x       y       z     vdW  Elec       q    Type
REMARK                         _______ _______ _______ _____ _____    ______ ____
ROOT
ATOM     10  C   UNL     1      12.264  23.902   8.514  0.00  0.00    +0.038 A 
ATOM     11  C   UNL     1      13.447  24.046   7.745  0.00  0.00    +0.047 A 
ATOM     12  C   UNL     1      14.737  23.614   8.260  0.00  0.00    +0.035 A 
ATOM     32  C   UNL     1      14.785  23.037   9.563  0.00  0.00    +0.024 A 
ATOM     33  C   UNL     1      13.592  22.883  10.358  0.00  0.00    +0.007 A 
ATOM     34  C   UNL     1      12.318  23.310   9.856  0.00  0.00    -0.029 A 
ATOM     35  C   UNL     1      11.073  23.127  10.755  0.00  0.00    +0.045 C 
ENDROOT
BRANCH  10   9
ATOM      4  C   UNL     1       8.830  27.201   7.914  0.00  0.00    +0.077 A 
ATOM      5  C   UNL     1       9.492  28.134   8.779  0.00  0.00    +0.048 A 
ATOM      6  C   UNL     1      10.711  27.723   9.365  0.00  0.00    +0.116 A 
ATOM      7  N   UNL     1      11.220  26.470   9.097  0.00  0.00    -0.223 NA
ATOM      8  C   UNL     1      10.555  25.595   8.259  0.00  0.00    +0.220 A 
ATOM      9  N   UNL     1      11.052  24.333   7.969  0.00  0.00    -0.283 N 
ATOM     36  H   UNL     1      10.528  23.714   7.352  0.00  0.00    +0.155 HD
ATOM     37  N   UNL     1       9.389  25.963   7.689  0.00  0.00    -0.214 NA
BRANCH   4   3
ATOM      1  C   UNL     1       5.064  27.994   7.213  0.00  0.00    +0.020 A 
ATOM      2  C   UNL     1       6.286  27.719   7.932  0.00  0.00    +0.013 A 
ATOM      3  C   UNL     1       7.536  27.489   7.218  0.00  0.00    +0.019 A 
ATOM     38  C   UNL     1       7.515  27.547   5.764  0.00  0.00    +0.120 A 
ATOM     39  N   UNL     1       6.323  27.813   5.098  0.00  0.00    -0.263 NA
ATOM     40  C   UNL     1       5.114  28.033   5.775  0.00  0.00    +0.111 A 
ENDBRANCH   4   3
ENDBRANCH  10   9
BRANCH  12  13
ATOM     13  N   UNL     1      15.973  23.743   7.529  0.00  0.00    -0.281 N 
ATOM     14  C   UNL     1      16.563  22.816   6.685  0.00  0.00    +0.248 C 
ATOM     30  O   UNL     1      16.223  21.646   6.597  0.00  0.00    -0.270 OA
ATOM     31  H   UNL     1      16.473  24.623   7.648  0.00  0.00    +0.155 HD
BRANCH  14  15
ATOM     15  C   UNL     1      17.706  23.249   5.824  0.00  0.00    +0.037 A 
ATOM     16  C   UNL     1      19.047  22.687   6.002  0.00  0.00    +0.013 A 
ATOM     17  C   UNL     1      20.135  23.134   5.170  0.00  0.00    +0.005 A 
ATOM     18  C   UNL     1      19.886  24.149   4.149  0.00  0.00    -0.033 A 
ATOM     28  C   UNL     1      18.544  24.686   3.990  0.00  0.00    +0.005 A 
ATOM     29  C   UNL     1      17.476  24.251   4.805  0.00  0.00    +0.013 A 
BRANCH  18  19
ATOM     19  C   UNL     1      20.992  24.701   3.230  0.00  0.00    +0.119 C 
BRANCH  19  20
ATOM     20  N   UNL     1      20.682  25.939   2.455  0.00  0.00    -0.302 NA
ATOM     21  C   UNL     1      21.510  26.034   1.170  0.00  0.00    +0.066 C 
ATOM     22  C   UNL     1      21.157  27.324   0.360  0.00  0.00    -0.064 C 
ATOM     23  N   UNL     1      21.382  28.554   1.241  0.00  0.00    +0.379 N 
ATOM     24  C   UNL     1      21.106  29.771   0.464  0.00  0.00    -0.096 C 
ATOM     25  H   UNL     1      22.459  28.572   1.528  0.00  0.00    -0.082 HD
ATOM     26  C   UNL     1      20.564  28.466   2.522  0.00  0.00    -0.064 C 
ATOM     27  C   UNL     1      20.901  27.166   3.305  0.00  0.00    +0.066 C 
ENDBRANCH  19  20
ENDBRANCH  18  19
ENDBRANCH  14  15
ENDBRANCH  12  13
TORSDOF 6
ENDMDL
MODEL 3
REMARK VINA RESULT:      -8.3      3.971     12.456
REMARK  Name = C:\Users\Docking\Desktop\test protocol\1iep_ligandH.pdb
REMARK  8 active torsions:
REMARK  status: ('A' for Active; 'I' for Inactive)
REMARK    1  A    between atoms: _5  and  _11
REMARK    2  A    between atoms: _19  and  _21
REMARK    3  A    between atoms: _22  and  _66
REMARK    4  A    between atoms: _27  and  _30
REMARK    5  A    between atoms: _32  and  _33
REMARK    6  A    between atoms: _38  and  _43
REMARK    7  A    between atoms: _43  and  _46
REMARK    8  A    between atoms: _53  and  _55
REMARK                            x       y       z     vdW  Elec       q    Type
REMARK                         _______ _______ _______ _____ _____    ______ ____
ROOT
ATOM     10  C   UNL     1      12.799  23.706   8.252  0.00  0.00    +0.038 A 
ATOM     11  C   UNL     1      13.974  23.923   7.487  0.00  0.00    +0.047 A 
ATOM     12  C   UNL     1      15.271  23.458   7.952  0.00  0.00    +0.035 A 
ATOM     32  C   UNL     1      15.336  22.773   9.201  0.00  0.00    +0.024 A 
ATOM     33  C   UNL     1      14.152  22.546   9.992  0.00  0.00    +0.007 A 
ATOM     34  C   UNL     1      12.870  23.004   9.539  0.00  0.00    -0.029 A 
ATOM     35  C   UNL     1      11.635  22.738  10.432  0.00  0.00    +0.045 C 
ENDROOT
BRANCH  10   9
ATOM      4  C   UNL     1       9.340  27.021   7.964  0.00  0.00    +0.077 A 
ATOM      5  C   UNL     1      10.006  27.883   8.898  0.00  0.00    +0.048 A 
ATOM      6  C   UNL     1      11.233  27.432   9.435  0.00  0.00    +0.116 A 
ATOM      7  N   UNL     1      11.746  26.210   9.059  0.00  0.00    -0.223 NA
ATOM      8  C   UNL     1      11.078  25.403   8.156  0.00  0.00    +0.220 A 
ATOM      9  N   UNL     1      11.580  24.174   7.758  0.00  0.00    -0.283 N 
ATOM     36  H   UNL     1      11.053  23.605   7.096  0.00  0.00    +0.155 HD
ATOM     37  N   UNL     1       9.904  25.810   7.630  0.00  0.00    -0.214 NA
BRANCH   4   3
ATOM      1  C   UNL     1       5.565  27.858   7.369  0.00  0.00    +0.020 A 
ATOM      2  C   UNL     1       6.796  27.532   8.051  0.00  0.00    +0.013 A 
ATOM      3  C   UNL     1       8.037  27.358   7.307  0.00  0.00    +0.019 A 
ATOM     38  C   UNL     1       7.999  27.524   5.862  0.00  0.00    +0.120 A 
ATOM     39  N   UNL     1       6.798  27.836   5.232  0.00  0.00    -0.263 NA
ATOM     40  C   UNL     1       5.597  28.004   5.938  0.00  0.00    +0.111 A 
ENDBRANCH   4   3
ENDBRANCH  10   9
BRANCH  12  13
ATOM     13  N   UNL     1      16.499  23.656   7.223  0.00  0.00    -0.281 N 
ATOM     14  C   UNL     1      16.879  23.078   6.022  0.00  0.00    +0.248 C 
ATOM     30  O   UNL     1      16.306  22.134   5.498  0.00  0.00    -0.270 OA
ATOM     31  H   UNL     1      17.169  24.300   7.642  0.00  0.00    +0.155 HD
BRANCH  14  15
ATOM     15  C   UNL     1      18.076  23.618   5.308  0.00  0.00    +0.037 A 
ATOM     16  C   UNL     1      18.005  24.864   4.541  0.00  0.00    +0.013 A 
ATOM     17  C   UNL     1      19.170  25.353   3.847  0.00  0.00    +0.005 A 
ATOM     18  C   UNL     1      20.417  24.596   3.919  0.00  0.00    -0.033 A 
ATOM     28  C   UNL     1      20.460  23.365   4.691  0.00  0.00    +0.005 A 
ATOM     29  C   UNL     1      19.320  22.882   5.372  0.00  0.00    +0.013 A 
BRANCH  18  19
ATOM     19  C   UNL     1      21.703  25.032   3.193  0.00  0.00    +0.119 C 
BRANCH  19  20
ATOM     20  N   UNL     1      22.653  23.956   2.780  0.00  0.00    -0.302 NA
ATOM     21  C   UNL     1      24.027  24.120   3.436  0.00  0.00    +0.066 C 
ATOM     22  C   UNL     1      25.001  22.973   3.010  0.00  0.00    -0.064 C 
ATOM     23  N   UNL     1      25.128  22.956   1.485  0.00  0.00    +0.379 N 
ATOM     24  C   UNL     1      26.088  21.917   1.085  0.00  0.00    -0.096 C 
ATOM     25  H   UNL     1      25.544  23.941   1.169  0.00  0.00    -0.082 HD
ATOM     26  C   UNL     1      23.766  22.796   0.825  0.00  0.00    -0.064 C 
ATOM     27  C   UNL     1      22.797  23.924   1.278  0.00  0.00    +0.066 C 
ENDBRANCH  19  20
ENDBRANCH  18  19
ENDBRANCH  14  15
ENDBRANCH  12  13
TORSDOF 6
ENDMDL
MODEL 4
REMARK VINA RESULT:      -8.2      4.001      7.819
REMARK  Name = C:\Users\Docking\Desktop\test protocol\1iep_ligandH.pdb
REMARK  8 active torsions:
REMARK  status: ('A' for Active; 'I' for Inactive)
REMARK    1  A    between atoms: _5  and  _11
REMARK    2  A    between atoms: _19  and  _21
REMARK    3  A    between atoms: _22  and  _66
REMARK    4  A    between atoms: _27  and  _30
REMARK    5  A    between atoms: _32  and  _33
REMARK    6  A    between atoms: _38  and  _43
REMARK    7  A    between atoms: _43  and  _46
REMARK    8  A    between atoms: _53  and  _55
REMARK                            x       y       z     vdW  Elec       q    Type
REMARK                         _______ _______ _______ _____ _____    ______ ____
ROOT
ATOM     10  C   UNL     1      15.002  23.374   8.332  0.00  0.00    +0.038 A 
ATOM     11  C   UNL     1      13.850  24.183   8.159  0.00  0.00    +0.047 A 
ATOM     12  C   UNL     1      12.574  23.812   8.752  0.00  0.00    +0.035 A 
ATOM     32  C   UNL     1      12.509  22.612   9.518  0.00  0.00    +0.024 A 
ATOM     33  C   UNL     1      13.670  21.777   9.703  0.00  0.00    +0.007 A 
ATOM     34  C   UNL     1      14.930  22.136   9.118  0.00  0.00    -0.029 A 
ATOM     35  C   UNL     1      16.140  21.200   9.344  0.00  0.00    +0.045 C 
ENDROOT
BRANCH  10   9
ATOM      4  C   UNL     1      18.138  23.374   4.699  0.00  0.00    +0.077 A 
ATOM      5  C   UNL     1      17.333  22.473   3.926  0.00  0.00    +0.048 A 
ATOM      6  C   UNL     1      16.123  22.027   4.502  0.00  0.00    +0.116 A 
ATOM      7  N   UNL     1      15.754  22.457   5.758  0.00  0.00    -0.223 NA
ATOM      8  C   UNL     1      16.555  23.325   6.478  0.00  0.00    +0.220 A 
ATOM      9  N   UNL     1      16.201  23.777   7.740  0.00  0.00    -0.283 N 
ATOM     36  H   UNL     1      16.822  24.411   8.241  0.00  0.00    +0.155 HD
ATOM     37  N   UNL     1      17.717  23.764   5.950  0.00  0.00    -0.214 NA
BRANCH   4   3
ATOM      1  C   UNL     1      21.899  24.434   4.513  0.00  0.00    +0.020 A 
ATOM      2  C   UNL     1      20.665  23.877   5.017  0.00  0.00    +0.013 A 
ATOM      3  C   UNL     1      19.443  23.936   4.225  0.00  0.00    +0.019 A 
ATOM     38  C   UNL     1      19.504  24.569   2.917  0.00  0.00    +0.120 A 
ATOM     39  N   UNL     1      20.707  25.098   2.458  0.00  0.00    -0.263 NA
ATOM     40  C   UNL     1      21.888  25.049   3.212  0.00  0.00    +0.111 A 
ENDBRANCH   4   3
ENDBRANCH  10   9
BRANCH  12  13
ATOM     13  N   UNL     1      11.369  24.590   8.605  0.00  0.00    -0.281 N 
ATOM     14  C   UNL     1      11.211  25.956   8.769  0.00  0.00    +0.248 C 
ATOM     30  O   UNL     1      12.043  26.691   9.280  0.00  0.00    -0.270 OA
ATOM     31  H   UNL     1      10.530  24.070   8.347  0.00  0.00    +0.155 HD
BRANCH  14  15
ATOM     15  C   UNL     1       9.940  26.597   8.314  0.00  0.00    +0.037 A 
ATOM     16  C   UNL     1       9.042  27.261   9.261  0.00  0.00    +0.013 A 
ATOM     17  C   UNL     1       7.813  27.856   8.798  0.00  0.00    +0.005 A 
ATOM     18  C   UNL     1       7.477  27.790   7.378  0.00  0.00    -0.033 A 
ATOM     28  C   UNL     1       8.389  27.129   6.458  0.00  0.00    +0.005 A 
ATOM     29  C   UNL     1       9.593  26.544   6.909  0.00  0.00    +0.013 A 
BRANCH  18  19
ATOM     19  C   UNL     1       6.177  28.379   6.798  0.00  0.00    +0.119 C 
BRANCH  19  20
ATOM     20  N   UNL     1       4.894  27.727   7.195  0.00  0.00    -0.302 NA
ATOM     21  C   UNL     1       4.217  27.025   6.015  0.00  0.00    +0.066 C 
ATOM     22  C   UNL     1       2.887  26.329   6.453  0.00  0.00    -0.064 C 
ATOM     23  N   UNL     1       1.952  27.367   7.075  0.00  0.00    +0.379 N 
ATOM     24  C   UNL     1       0.678  26.727   7.435  0.00  0.00    -0.096 C 
ATOM     25  H   UNL     1       1.736  28.136   6.297  0.00  0.00    -0.082 HD
ATOM     26  C   UNL     1       2.619  28.072   8.248  0.00  0.00    -0.064 C 
ATOM     27  C   UNL     1       3.954  28.735   7.808  0.00  0.00    +0.066 C 
ENDBRANCH  19  20
ENDBRANCH  18  19
ENDBRANCH  14  15
ENDBRANCH  12  13
TORSDOF 6
ENDMDL
MODEL 5
REMARK VINA RESULT:      -8.2      4.162     13.947
REMARK  Name = C:\Users\Docking\Desktop\test protocol\1iep_ligandH.pdb
REMARK  8 active torsions:
REMARK  status: ('A' for Active; 'I' for Inactive)
REMARK    1  A    between atoms: _5  and  _11
REMARK    2  A    between atoms: _19  and  _21
REMARK    3  A    between atoms: _22  and  _66
REMARK    4  A    between atoms: _27  and  _30
REMARK    5  A    between atoms: _32  and  _33
REMARK    6  A    between atoms: _38  and  _43
REMARK    7  A    between atoms: _43  and  _46
REMARK    8  A    between atoms: _53  and  _55
REMARK                            x       y       z     vdW  Elec       q    Type
REMARK                         _______ _______ _______ _____ _____    ______ ____
ROOT
ATOM     10  C   UNL     1      12.466  23.072  10.301  0.00  0.00    +0.038 A 
ATOM     11  C   UNL     1      13.551  22.967   9.394  0.00  0.00    +0.047 A 
ATOM     12  C   UNL     1      13.863  24.042   8.466  0.00  0.00    +0.035 A 
ATOM     32  C   UNL     1      13.050  25.213   8.490  0.00  0.00    +0.024 A 
ATOM     33  C   UNL     1      11.942  25.336   9.405  0.00  0.00    +0.007 A 
ATOM     34  C   UNL     1      11.628  24.277  10.321  0.00  0.00    -0.029 A 
ATOM     35  C   UNL     1      10.425  24.461  11.275  0.00  0.00    +0.045 C 
ENDROOT
BRANCH  10   9
ATOM      4  C   UNL     1      10.042  19.129  11.570  0.00  0.00    +0.077 A 
ATOM      5  C   UNL     1       9.192  19.209  10.417  0.00  0.00    +0.048 A 
ATOM      6  C   UNL     1       9.407  20.284   9.526  0.00  0.00    +0.116 A 
ATOM      7  N   UNL     1      10.400  21.204   9.778  0.00  0.00    -0.223 NA
ATOM      8  C   UNL     1      11.201  21.099  10.901  0.00  0.00    +0.220 A 
ATOM      9  N   UNL     1      12.212  22.009  11.171  0.00  0.00    -0.283 N 
ATOM     36  H   UNL     1      12.776  21.901  12.013  0.00  0.00    +0.155 HD
ATOM     37  N   UNL     1      11.015  20.082  11.768  0.00  0.00    -0.214 NA
BRANCH   4   3
ATOM      1  C   UNL     1      10.503  17.040  14.844  0.00  0.00    +0.020 A 
ATOM      2  C   UNL     1      10.635  18.109  13.882  0.00  0.00    +0.013 A 
ATOM      3  C   UNL     1       9.940  18.049  12.602  0.00  0.00    +0.019 A 
ATOM     38  C   UNL     1       9.112  16.885  12.326  0.00  0.00    +0.120 A 
ATOM     39  N   UNL     1       9.005  15.870  13.271  0.00  0.00    -0.263 NA
ATOM     40  C   UNL     1       9.671  15.915  14.505  0.00  0.00    +0.111 A 
ENDBRANCH   4   3
ENDBRANCH  10   9
BRANCH  12  13
ATOM     13  N   UNL     1      14.947  23.989   7.517  0.00  0.00    -0.281 N 
ATOM     14  C   UNL     1      14.980  23.332   6.298  0.00  0.00    +0.248 C 
ATOM     30  O   UNL     1      14.153  22.509   5.934  0.00  0.00    -0.270 OA
ATOM     31  H   UNL     1      15.793  24.497   7.775  0.00  0.00    +0.155 HD
BRANCH  14  15
ATOM     15  C   UNL     1      16.101  23.619   5.352  0.00  0.00    +0.037 A 
ATOM     16  C   UNL     1      15.846  23.938   3.945  0.00  0.00    +0.013 A 
ATOM     17  C   UNL     1      16.947  24.195   3.050  0.00  0.00    +0.005 A 
ATOM     18  C   UNL     1      18.314  24.135   3.562  0.00  0.00    -0.033 A 
ATOM     28  C   UNL     1      18.539  23.822   4.963  0.00  0.00    +0.005 A 
ATOM     29  C   UNL     1      17.462  23.569   5.843  0.00  0.00    +0.013 A 
BRANCH  18  19
ATOM     19  C   UNL     1      19.550  24.374   2.674  0.00  0.00    +0.119 C 
BRANCH  19  20
ATOM     20  N   UNL     1      19.852  25.785   2.289  0.00  0.00    -0.302 NA
ATOM     21  C   UNL     1      21.355  26.078   2.313  0.00  0.00    +0.066 C 
ATOM     22  C   UNL     1      21.655  27.552   1.885  0.00  0.00    -0.064 C 
ATOM     23  N   UNL     1      20.901  28.511   2.808  0.00  0.00    +0.379 N 
ATOM     24  C   UNL     1      21.227  29.898   2.445  0.00  0.00    -0.096 C 
ATOM     25  H   UNL     1      21.268  28.338   3.846  0.00  0.00    -0.082 HD
ATOM     26  C   UNL     1      19.406  28.225   2.792  0.00  0.00    -0.064 C 
ATOM     27  C   UNL     1      19.122  26.750   3.190  0.00  0.00    +0.066 C 
ENDBRANCH  19  20
ENDBRANCH  18  19
ENDBRANCH  14  15
ENDBRANCH  12  13
TORSDOF 6
ENDMDL
