MODEL 1
REMARK VINA RESULT:      -8.2      0.000      0.000
REMARK  Name = C:\Users\Docking\Desktop\test protocol\1iep_ligandH.pdb
REMARK  8 active torsions:
REMARK  status: ('A' for Active; 'I' for Inactive)
REMARK    1  A    between atoms: _5  and  _11
REMARK    2  A    between atoms: _19  and  _21
REMARK    3  A    between atoms: _22  and  _66
REMARK    4  A    between atoms: _27  and  _30
REMARK    5  A    between atoms: _32  and  _33
REMARK    6  A    between atoms: _38  and  _43
REMARK    7  A    between atoms: _43  and  _46
REMARK    8  A    between atoms: _53  and  _55
REMARK                            x       y       z     vdW  Elec       q    Type
REMARK                         _______ _______ _______ _____ _____    ______ ____
ROOT
ATOM     10  C   UNL     1      15.079  22.168   7.196  0.00  0.00    +0.038 A 
ATOM     11  C   UNL     1      16.178  22.177   8.093  0.00  0.00    +0.047 A 
ATOM     12  C   UNL     1      17.173  21.116   8.074  0.00  0.00    +0.035 A 
ATOM     32  C   UNL     1      17.019  20.061   7.128  0.00  0.00    +0.024 A 
ATOM     33  C   UNL     1      15.907  20.036   6.210  0.00  0.00    +0.007 A 
ATOM     34  C   UNL     1      14.921  21.079   6.225  0.00  0.00    -0.029 A 
ATOM     35  C   UNL     1      13.746  20.996   5.223  0.00  0.00    +0.045 C 
ENDROOT
BRANCH  10   9
ATOM      4  C   UNL     1      11.127  24.222   8.985  0.00  0.00    +0.077 A 
ATOM      5  C   UNL     1      10.869  23.108   9.852  0.00  0.00    +0.048 A 
ATOM      6  C   UNL     1      11.773  22.024   9.802  0.00  0.00    +0.116 A 
ATOM      7  N   UNL     1      12.852  22.061   8.945  0.00  0.00    -0.223 NA
ATOM      8  C   UNL     1      13.071  23.150   8.121  0.00  0.00    +0.220 A 
ATOM      9  N   UNL     1      14.154  23.212   7.258  0.00  0.00    -0.283 N 
ATOM     36  H   UNL     1      14.276  24.030   6.661  0.00  0.00    +0.155 HD
ATOM     37  N   UNL     1      12.221  24.198   8.149  0.00  0.00    -0.214 NA
BRANCH   4   3
ATOM      1  C   UNL     1       8.022  26.596   8.824  0.00  0.00    +0.020 A 
ATOM      2  C   UNL     1       8.809  25.385   8.880  0.00  0.00    +0.013 A 
ATOM      3  C   UNL     1      10.265  25.444   8.926  0.00  0.00    +0.019 A 
ATOM     38  C   UNL     1      10.898  26.754   8.913  0.00  0.00    +0.120 A 
ATOM     39  N   UNL     1      10.115  27.903   8.857  0.00  0.00    -0.263 NA
ATOM     40  C   UNL     1       8.713  27.858   8.811  0.00  0.00    +0.111 A 
ENDBRANCH   4   3
ENDBRANCH  10   9
BRANCH  12  13
ATOM     13  N   UNL     1      18.306  21.067   8.965  0.00  0.00    -0.281 N 
ATOM     14  C   UNL     1      19.611  21.450   8.704  0.00  0.00    +0.248 C 
ATOM     30  O   UNL     1      20.051  21.693   7.590  0.00  0.00    -0.270 OA
ATOM     31  H   UNL     1      18.123  20.707   9.902  0.00  0.00    +0.155 HD
BRANCH  14  15
ATOM     15  C   UNL     1      20.572  21.564   9.844  0.00  0.00    +0.037 A 
ATOM     16  C   UNL     1      21.537  22.663   9.917  0.00  0.00    +0.013 A 
ATOM     17  C   UNL     1      22.464  22.741  11.018  0.00  0.00    +0.005 A 
ATOM     18  C   UNL     1      22.428  21.714  12.058  0.00  0.00    -0.033 A 
ATOM     28  C   UNL     1      21.456  20.637  11.963  0.00  0.00    +0.005 A 
ATOM     29  C   UNL     1      20.547  20.558  10.884  0.00  0.00    +0.013 A 
BRANCH  18  19
ATOM     19  C   UNL     1      23.393  21.705  13.258  0.00  0.00    +0.119 C 
BRANCH  19  20
ATOM     20  N   UNL     1      22.904  22.311  14.533  0.00  0.00    -0.302 NA
ATOM     21  C   UNL     1      22.795  23.835  14.439  0.00  0.00    +0.066 C 
ATOM     22  C   UNL     1      22.261  24.450  15.774  0.00  0.00    -0.064 C 
ATOM     23  N   UNL     1      23.183  24.043  16.925  0.00  0.00    +0.379 N 
ATOM     24  C   UNL     1      22.716  24.667  18.172  0.00  0.00    -0.096 C 
ATOM     25  H   UNL     1      24.198  24.447  16.703  0.00  0.00    -0.082 HD
ATOM     26  C   UNL     1      23.299  22.528  17.023  0.00  0.00    -0.064 C 
ATOM     27  C   UNL     1      23.803  21.925  15.682  0.00  0.00    +0.066 C 
ENDBRANCH  19  20
ENDBRANCH  18  19
ENDBRANCH  14  15
ENDBRANCH  12  13
TORSDOF 6
ENDMDL
MODEL 2
REMARK VINA RESULT:      -8.0      7.623     11.969
REMARK  Name = C:\Users\Docking\Desktop\test protocol\1iep_ligandH.pdb
REMARK  8 active torsions:
REMARK  status: ('A' for Active; 'I' for Inactive)
REMARK    1  A    between atoms: _5  and  _11
REMARK    2  A    between atoms: _19  and  _21
REMARK    3  A    between atoms: _22  and  _66
REMARK    4  A    between atoms: _27  and  _30
REMARK    5  A    between atoms: _32  and  _33
REMARK    6  A    between atoms: _38  and  _43
REMARK    7  A    between atoms: _43  and  _46
REMARK    8  A    between atoms: _53  and  _55
REMARK                            x       y       z     vdW  Elec       q    Type
REMARK                         _______ _______ _______ _____ _____    ______ ____
ROOT
ATOM     10  C   UNL     1      20.428  25.918   3.857  0.00  0.00    +0.038 A 
ATOM     11  C   UNL     1      19.108  25.858   4.372  0.00  0.00    +0.047 A 
ATOM     12  C   UNL     1      18.356  24.613   4.373  0.00  0.00    +0.035 A 
ATOM     32  C   UNL     1      18.980  23.447   3.844  0.00  0.00    +0.024 A 
ATOM     33  C   UNL     1      20.321  23.489   3.315  0.00  0.00    +0.007 A 
ATOM     34  C   UNL     1      21.067  24.715   3.309  0.00  0.00    -0.029 A 
ATOM     35  C   UNL     1      22.498  24.703   2.724  0.00  0.00    +0.045 C 
ENDROOT
BRANCH  10   9
ATOM      4  C   UNL     1      21.808  30.033   1.808  0.00  0.00    +0.077 A 
ATOM      5  C   UNL     1      21.148  29.710   0.576  0.00  0.00    +0.048 A 
ATOM      6  C   UNL     1      20.470  28.471   0.508  0.00  0.00    +0.116 A 
ATOM      7  N   UNL     1      20.460  27.628   1.598  0.00  0.00    -0.223 NA
ATOM      8  C   UNL     1      21.108  27.969   2.771  0.00  0.00    +0.220 A 
ATOM      9  N   UNL     1      21.104  27.140   3.881  0.00  0.00    -0.283 N 
ATOM     36  H   UNL     1      21.600  27.424   4.725  0.00  0.00    +0.155 HD
ATOM     37  N   UNL     1      21.763  29.145   2.860  0.00  0.00    -0.214 NA
BRANCH   4   3
ATOM      1  C   UNL     1      23.271  33.260   3.465  0.00  0.00    +0.020 A 
ATOM      2  C   UNL     1      22.523  32.036   3.297  0.00  0.00    +0.013 A 
ATOM      3  C   UNL     1      22.562  31.306   2.036  0.00  0.00    +0.019 A 
ATOM     38  C   UNL     1      23.375  31.846   0.957  0.00  0.00    +0.120 A 
ATOM     39  N   UNL     1      24.084  33.028   1.147  0.00  0.00    -0.263 NA
ATOM     40  C   UNL     1      24.053  33.740   2.356  0.00  0.00    +0.111 A 
ENDBRANCH   4   3
ENDBRANCH  10   9
BRANCH  12  13
ATOM     13  N   UNL     1      17.009  24.494   4.875  0.00  0.00    -0.281 N 
ATOM     14  C   UNL     1      15.875  24.099   4.185  0.00  0.00    +0.248 C 
ATOM     30  O   UNL     1      15.807  23.992   2.970  0.00  0.00    -0.270 OA
ATOM     31  H   UNL     1      16.876  24.730   5.859  0.00  0.00    +0.155 HD
BRANCH  14  15
ATOM     15  C   UNL     1      14.632  23.792   4.956  0.00  0.00    +0.037 A 
ATOM     16  C   UNL     1      13.564  24.784   5.102  0.00  0.00    +0.013 A 
ATOM     17  C   UNL     1      12.382  24.468   5.865  0.00  0.00    +0.005 A 
ATOM     18  C   UNL     1      12.262  23.152   6.487  0.00  0.00    -0.033 A 
ATOM     28  C   UNL     1      13.335  22.184   6.322  0.00  0.00    +0.005 A 
ATOM     29  C   UNL     1      14.494  22.491   5.576  0.00  0.00    +0.013 A 
BRANCH  18  19
ATOM     19  C   UNL     1      11.047  22.735   7.336  0.00  0.00    +0.119 C 
BRANCH  19  20
ATOM     20  N   UNL     1      11.322  22.067   8.643  0.00  0.00    -0.302 NA
ATOM     21  C   UNL     1      10.503  20.786   8.817  0.00  0.00    +0.066 C 
ATOM     22  C   UNL     1      10.820  20.088  10.180  0.00  0.00    -0.064 C 
ATOM     23  N   UNL     1      10.547  21.064  11.325  0.00  0.00    +0.379 N 
ATOM     24  C   UNL     1      10.789  20.392  12.610  0.00  0.00    -0.096 C 
ATOM     25  H   UNL     1       9.468  21.339  11.285  0.00  0.00    -0.082 HD
ATOM     26  C   UNL     1      11.356  22.343  11.159  0.00  0.00    -0.064 C 
ATOM     27  C   UNL     1      11.055  23.013   9.789  0.00  0.00    +0.066 C 
ENDBRANCH  19  20
ENDBRANCH  18  19
ENDBRANCH  14  15
ENDBRANCH  12  13
TORSDOF 6
ENDMDL
MODEL 3
REMARK VINA RESULT:      -8.0      7.244     12.215
REMARK  Name = C:\Users\Docking\Desktop\test protocol\1iep_ligandH.pdb
REMARK  8 active torsions:
REMARK  status: ('A' for Active; 'I' for Inactive)
REMARK    1  A    between atoms: _5  and  _11
REMARK    2  A    between atoms: _19  and  _21
REMARK    3  A    between atoms: _22  and  _66
REMARK    4  A    between atoms: _27  and  _30
REMARK    5  A    between atoms: _32  and  _33
REMARK    6  A    between atoms: _38  and  _43
REMARK    7  A    between atoms: _43  and  _46
REMARK    8  A    between atoms: _53  and  _55
REMARK                            x       y       z     vdW  Elec       q    Type
REMARK                         _______ _______ _______ _____ _____    ______ ____
ROOT
ATOM     10  C   UNL     1      20.560  25.484   4.116  0.00  0.00    +0.038 A 
ATOM     11  C   UNL     1      19.230  25.248   4.549  0.00  0.00    +0.047 A 
ATOM     12  C   UNL     1      18.675  23.904   4.575  0.00  0.00    +0.035 A 
ATOM     32  C   UNL     1      19.504  22.822   4.156  0.00  0.00    +0.024 A 
ATOM     33  C   UNL     1      20.858  23.045   3.712  0.00  0.00    +0.007 A 
ATOM     34  C   UNL     1      21.410  24.369   3.682  0.00  0.00    -0.029 A 
ATOM     35  C   UNL     1      22.865  24.549   3.191  0.00  0.00    +0.045 C 
ENDROOT
BRANCH  10   9
ATOM      4  C   UNL     1      21.517  29.634   1.902  0.00  0.00    +0.077 A 
ATOM      5  C   UNL     1      21.042  29.140   0.642  0.00  0.00    +0.048 A 
ATOM      6  C   UNL     1      20.566  27.810   0.605  0.00  0.00    +0.116 A 
ATOM      7  N   UNL     1      20.569  27.041   1.749  0.00  0.00    -0.223 NA
ATOM      8  C   UNL     1      21.036  27.548   2.947  0.00  0.00    +0.220 A 
ATOM      9  N   UNL     1      21.042  26.795   4.112  0.00  0.00    -0.283 N 
ATOM     36  H   UNL     1      21.402  27.203   4.974  0.00  0.00    +0.155 HD
ATOM     37  N   UNL     1      21.497  28.815   3.009  0.00  0.00    -0.214 NA
BRANCH   4   3
ATOM      1  C   UNL     1      22.204  33.191   3.377  0.00  0.00    +0.020 A 
ATOM      2  C   UNL     1      21.662  31.860   3.229  0.00  0.00    +0.013 A 
ATOM      3  C   UNL     1      22.048  31.020   2.103  0.00  0.00    +0.019 A 
ATOM     38  C   UNL     1      22.992  31.560   1.137  0.00  0.00    +0.120 A 
ATOM     39  N   UNL     1      23.497  32.845   1.304  0.00  0.00    -0.263 NA
ATOM     40  C   UNL     1      23.132  33.664   2.383  0.00  0.00    +0.111 A 
ENDBRANCH   4   3
ENDBRANCH  10   9
BRANCH  12  13
ATOM     13  N   UNL     1      17.330  23.603   4.997  0.00  0.00    -0.281 N 
ATOM     14  C   UNL     1      16.915  23.076   6.209  0.00  0.00    +0.248 C 
ATOM     30  O   UNL     1      17.662  22.580   7.039  0.00  0.00    -0.270 OA
ATOM     31  H   UNL     1      16.594  23.804   4.320  0.00  0.00    +0.155 HD
BRANCH  14  15
ATOM     15  C   UNL     1      15.457  23.088   6.540  0.00  0.00    +0.037 A 
ATOM     16  C   UNL     1      14.977  22.697   7.868  0.00  0.00    +0.013 A 
ATOM     17  C   UNL     1      13.564  22.701   8.156  0.00  0.00    +0.005 A 
ATOM     18  C   UNL     1      12.622  23.099   7.113  0.00  0.00    -0.033 A 
ATOM     28  C   UNL     1      13.126  23.487   5.806  0.00  0.00    +0.005 A 
ATOM     29  C   UNL     1      14.510  23.483   5.520  0.00  0.00    +0.013 A 
BRANCH  18  19
ATOM     19  C   UNL     1      11.096  23.113   7.325  0.00  0.00    +0.119 C 
BRANCH  19  20
ATOM     20  N   UNL     1      10.461  24.427   7.639  0.00  0.00    -0.302 NA
ATOM     21  C   UNL     1       9.388  24.302   8.724  0.00  0.00    +0.066 C 
ATOM     22  C   UNL     1       8.750  25.691   9.056  0.00  0.00    -0.064 C 
ATOM     23  N   UNL     1       8.162  26.297   7.780  0.00  0.00    +0.379 N 
ATOM     24  C   UNL     1       7.511  27.575   8.099  0.00  0.00    -0.096 C 
ATOM     25  H   UNL     1       7.376  25.600   7.406  0.00  0.00    -0.082 HD
ATOM     26  C   UNL     1       9.222  26.422   6.695  0.00  0.00    -0.064 C 
ATOM     27  C   UNL     1       9.871  25.042   6.393  0.00  0.00    +0.066 C 
ENDBRANCH  19  20
ENDBRANCH  18  19
ENDBRANCH  14  15
ENDBRANCH  12  13
TORSDOF 6
ENDMDL
MODEL 4
REMARK VINA RESULT:      -7.8      1.253      1.616
REMARK  Name = C:\Users\Docking\Desktop\test protocol\1iep_ligandH.pdb
REMARK  8 active torsions:
REMARK  status: ('A' for Active; 'I' for Inactive)
REMARK    1  A    between atoms: _5  and  _11
REMARK    2  A    between atoms: _19  and  _21
REMARK    3  A    between atoms: _22  and  _66
REMARK    4  A    between atoms: _27  and  _30
REMARK    5  A    between atoms: _32  and  _33
REMARK    6  A    between atoms: _38  and  _43
REMARK    7  A    between atoms: _43  and  _46
REMARK    8  A    between atoms: _53  and  _55
REMARK                            x       y       z     vdW  Elec       q    Type
REMARK                         _______ _______ _______ _____ _____    ______ ____
ROOT
ATOM     10  C   UNL     1      14.735  21.096   8.252  0.00  0.00    +0.038 A 
ATOM     11  C   UNL     1      15.973  21.317   8.908  0.00  0.00    +0.047 A 
ATOM     12  C   UNL     1      16.910  20.228   9.133  0.00  0.00    +0.035 A 
ATOM     32  C   UNL     1      16.555  18.925   8.674  0.00  0.00    +0.024 A 
ATOM     33  C   UNL     1      15.301  18.683   8.007  0.00  0.00    +0.007 A 
ATOM     34  C   UNL     1      14.371  19.753   7.784  0.00  0.00    -0.029 A 
ATOM     35  C   UNL     1      13.038  19.433   7.069  0.00  0.00    +0.045 C 
ENDROOT
BRANCH  10   9
ATOM      4  C   UNL     1      11.144  23.946   9.673  0.00  0.00    +0.077 A 
ATOM      5  C   UNL     1      10.952  23.201  10.883  0.00  0.00    +0.048 A 
ATOM      6  C   UNL     1      11.793  22.086  11.099  0.00  0.00    +0.116 A 
ATOM      7  N   UNL     1      12.752  21.752  10.167  0.00  0.00    -0.223 NA
ATOM      8  C   UNL     1      12.910  22.491   9.009  0.00  0.00    +0.220 A 
ATOM      9  N   UNL     1      13.872  22.178   8.062  0.00  0.00    -0.283 N 
ATOM     36  H   UNL     1      13.952  22.744   7.218  0.00  0.00    +0.155 HD
ATOM     37  N   UNL     1      12.118  23.559   8.779  0.00  0.00    -0.214 NA
BRANCH   4   3
ATOM      1  C   UNL     1      10.101  27.598   8.737  0.00  0.00    +0.020 A 
ATOM      2  C   UNL     1      10.926  26.467   9.093  0.00  0.00    +0.013 A 
ATOM      3  C   UNL     1      10.336  25.151   9.304  0.00  0.00    +0.019 A 
ATOM     38  C   UNL     1       8.896  25.013   9.145  0.00  0.00    +0.120 A 
ATOM     39  N   UNL     1       8.126  26.121   8.804  0.00  0.00    -0.263 NA
ATOM     40  C   UNL     1       8.683  27.392   8.600  0.00  0.00    +0.111 A 
ENDBRANCH   4   3
ENDBRANCH  10   9
BRANCH  12  13
ATOM     13  N   UNL     1      18.178  20.390   9.800  0.00  0.00    -0.281 N 
ATOM     14  C   UNL     1      19.340  20.952   9.296  0.00  0.00    +0.248 C 
ATOM     30  O   UNL     1      19.528  21.209   8.116  0.00  0.00    -0.270 OA
ATOM     31  H   UNL     1      18.225  20.050  10.760  0.00  0.00    +0.155 HD
BRANCH  14  15
ATOM     15  C   UNL     1      20.459  21.261  10.236  0.00  0.00    +0.037 A 
ATOM     16  C   UNL     1      21.321  22.429  10.035  0.00  0.00    +0.013 A 
ATOM     17  C   UNL     1      22.405  22.694  10.947  0.00  0.00    +0.005 A 
ATOM     18  C   UNL     1      22.632  21.789  12.072  0.00  0.00    -0.033 A 
ATOM     28  C   UNL     1      21.759  20.641  12.251  0.00  0.00    +0.005 A 
ATOM     29  C   UNL     1      20.696  20.377  11.358  0.00  0.00    +0.013 A 
BRANCH  18  19
ATOM     19  C   UNL     1      23.778  21.982  13.083  0.00  0.00    +0.119 C 
BRANCH  19  20
ATOM     20  N   UNL     1      23.419  22.524  14.427  0.00  0.00    -0.302 NA
ATOM     21  C   UNL     1      22.576  21.536  15.239  0.00  0.00    +0.066 C 
ATOM     22  C   UNL     1      22.228  22.110  16.651  0.00  0.00    -0.064 C 
ATOM     23  N   UNL     1      21.495  23.443  16.491  0.00  0.00    +0.379 N 
ATOM     24  C   UNL     1      21.116  23.956  17.815  0.00  0.00    -0.096 C 
ATOM     25  H   UNL     1      20.557  23.246  15.922  0.00  0.00    -0.082 HD
ATOM     26  C   UNL     1      22.325  24.430  15.683  0.00  0.00    -0.064 C 
ATOM     27  C   UNL     1      22.690  23.839  14.293  0.00  0.00    +0.066 C 
ENDBRANCH  19  20
ENDBRANCH  18  19
ENDBRANCH  14  15
ENDBRANCH  12  13
TORSDOF 6
ENDMDL
MODEL 5
REMARK VINA RESULT:      -7.8      5.712      8.181
REMARK  Name = C:\Users\Docking\Desktop\test protocol\1iep_ligandH.pdb
REMARK  8 active torsions:
REMARK  status: ('A' for Active; 'I' for Inactive)
REMARK    1  A    between atoms: _5  and  _11
REMARK    2  A    between atoms: _19  and  _21
REMARK    3  A    between atoms: _22  and  _66
REMARK    4  A    between atoms: _27  and  _30
REMARK    5  A    between atoms: _32  and  _33
REMARK    6  A    between atoms: _38  and  _43
REMARK    7  A    between atoms: _43  and  _46
REMARK    8  A    between atoms: _53  and  _55
REMARK                            x       y       z     vdW  Elec       q    Type
REMARK                         _______ _______ _______ _____ _____    ______ ____
ROOT
ATOM     10  C   UNL     1      12.365  23.151   8.192  0.00  0.00    +0.038 A 
ATOM     11  C   UNL     1      13.571  23.469   7.516  0.00  0.00    +0.047 A 
ATOM     12  C   UNL     1      14.853  22.975   7.993  0.00  0.00    +0.035 A 
ATOM     32  C   UNL     1      14.870  22.157   9.160  0.00  0.00    +0.024 A 
ATOM     33  C   UNL     1      13.654  21.825   9.860  0.00  0.00    +0.007 A 
ATOM     34  C   UNL     1      12.387  22.311   9.396  0.00  0.00    -0.029 A 
ATOM     35  C   UNL     1      11.116  21.929  10.190  0.00  0.00    +0.045 C 
ENDROOT
BRANCH  10   9
ATOM      4  C   UNL     1       9.108  26.644   7.710  0.00  0.00    +0.077 A 
ATOM      5  C   UNL     1       9.854  27.536   8.550  0.00  0.00    +0.048 A 
ATOM      6  C   UNL     1      11.067  27.055   9.092  0.00  0.00    +0.116 A 
ATOM      7  N   UNL     1      11.493  25.776   8.808  0.00  0.00    -0.223 NA
ATOM      8  C   UNL     1      10.749  24.940   7.996  0.00  0.00    +0.220 A 
ATOM      9  N   UNL     1      11.162  23.653   7.691  0.00  0.00    -0.283 N 
ATOM     36  H   UNL     1      10.581  23.065   7.093  0.00  0.00    +0.155 HD
ATOM     37  N   UNL     1       9.586  25.376   7.467  0.00  0.00    -0.214 NA
BRANCH   4   3
ATOM      1  C   UNL     1       5.355  27.583   7.138  0.00  0.00    +0.020 A 
ATOM      2  C   UNL     1       6.583  27.234   7.814  0.00  0.00    +0.013 A 
ATOM      3  C   UNL     1       7.809  27.007   7.060  0.00  0.00    +0.019 A 
ATOM     38  C   UNL     1       7.759  27.144   5.612  0.00  0.00    +0.120 A 
ATOM     39  N   UNL     1       6.562  27.480   4.989  0.00  0.00    -0.263 NA
ATOM     40  C   UNL     1       5.375  27.699   5.704  0.00  0.00    +0.111 A 
ENDBRANCH   4   3
ENDBRANCH  10   9
BRANCH  12  13
ATOM     13  N   UNL     1      16.111  23.271   7.353  0.00  0.00    -0.281 N 
ATOM     14  C   UNL     1      16.822  22.480   6.466  0.00  0.00    +0.248 C 
ATOM     30  O   UNL     1      16.589  21.299   6.252  0.00  0.00    -0.270 OA
ATOM     31  H   UNL     1      16.527  24.174   7.582  0.00  0.00    +0.155 HD
BRANCH  14  15
ATOM     15  C   UNL     1      17.968  23.083   5.720  0.00  0.00    +0.037 A 
ATOM     16  C   UNL     1      19.332  22.573   5.881  0.00  0.00    +0.013 A 
ATOM     17  C   UNL     1      20.422  23.184   5.162  0.00  0.00    +0.005 A 
ATOM     18  C   UNL     1      20.151  24.311   4.273  0.00  0.00    -0.033 A 
ATOM     28  C   UNL     1      18.787  24.793   4.128  0.00  0.00    +0.005 A 
ATOM     29  C   UNL     1      17.717  24.198   4.832  0.00  0.00    +0.013 A 
BRANCH  18  19
ATOM     19  C   UNL     1      21.256  25.038   3.483  0.00  0.00    +0.119 C 
BRANCH  19  20
ATOM     20  N   UNL     1      20.827  26.113   2.539  0.00  0.00    -0.302 NA
ATOM     21  C   UNL     1      21.455  25.945   1.153  0.00  0.00    +0.066 C 
ATOM     22  C   UNL     1      20.978  27.065   0.172  0.00  0.00    -0.064 C 
ATOM     23  N   UNL     1      21.322  28.434   0.760  0.00  0.00    +0.379 N 
ATOM     24  C   UNL     1      20.927  29.488  -0.186  0.00  0.00    -0.096 C 
ATOM     25  H   UNL     1      22.430  28.483   0.878  0.00  0.00    -0.082 HD
ATOM     26  C   UNL     1      20.703  28.609   2.140  0.00  0.00    -0.064 C 
ATOM     27  C   UNL     1      21.161  27.474   3.098  0.00  0.00    +0.066 C 
ENDBRANCH  19  20
ENDBRANCH  18  19
ENDBRANCH  14  15
ENDBRANCH  12  13
TORSDOF 6
ENDMDL
