MODEL 1
REMARK VINA RESULT:     -11.2      0.000      0.000
REMARK  Name = C:\Users\Docking\Desktop\test protocol\1iep_ligandH.pdb
REMARK  8 active torsions:
REMARK  status: ('A' for Active; 'I' for Inactive)
REMARK    1  A    between atoms: _5  and  _11
REMARK    2  A    between atoms: _19  and  _21
REMARK    3  A    between atoms: _22  and  _66
REMARK    4  A    between atoms: _27  and  _30
REMARK    5  A    between atoms: _32  and  _33
REMARK    6  A    between atoms: _38  and  _43
REMARK    7  A    between atoms: _43  and  _46
REMARK    8  A    between atoms: _53  and  _55
REMARK                            x       y       z     vdW  Elec       q    Type
REMARK                         _______ _______ _______ _____ _____    ______ ____
ROOT
ATOM     10  C   UNL     1      11.918   6.892  34.884  0.00  0.00    +0.038 A 
ATOM     11  C   UNL     1      12.667   6.548  36.038  0.00  0.00    +0.047 A 
ATOM     12  C   UNL     1      14.065   6.157  35.939  0.00  0.00    +0.035 A 
ATOM     32  C   UNL     1      14.668   6.129  34.648  0.00  0.00    +0.024 A 
ATOM     33  C   UNL     1      13.921   6.474  33.464  0.00  0.00    +0.007 A 
ATOM     34  C   UNL     1      12.541   6.858  33.556  0.00  0.00    -0.029 A 
ATOM     35  C   UNL     1      11.787   7.211  32.253  0.00  0.00    +0.045 C 
ENDROOT
BRANCH  10   9
ATOM      4  C   UNL     1       8.496  10.137  35.779  0.00  0.00    +0.077 A 
ATOM      5  C   UNL     1       9.458  11.181  35.984  0.00  0.00    +0.048 A 
ATOM      6  C   UNL     1      10.823  10.840  35.857  0.00  0.00    +0.116 A 
ATOM      7  N   UNL     1      11.188   9.548  35.547  0.00  0.00    -0.223 NA
ATOM      8  C   UNL     1      10.235   8.564  35.357  0.00  0.00    +0.220 A 
ATOM      9  N   UNL     1      10.579   7.260  35.038  0.00  0.00    -0.283 N 
ATOM     36  H   UNL     1       9.847   6.561  34.913  0.00  0.00    +0.155 HD
ATOM     37  N   UNL     1       8.925   8.864  35.474  0.00  0.00    -0.214 NA
BRANCH   4   3
ATOM      1  C   UNL     1       4.669  10.150  34.970  0.00  0.00    +0.020 A 
ATOM      2  C   UNL     1       6.090   9.930  34.827  0.00  0.00    +0.013 A 
ATOM      3  C   UNL     1       7.016  10.341  35.875  0.00  0.00    +0.019 A 
ATOM     38  C   UNL     1       6.468  10.977  37.064  0.00  0.00    +0.120 A 
ATOM     39  N   UNL     1       5.096  11.177  37.172  0.00  0.00    -0.263 NA
ATOM     40  C   UNL     1       4.195  10.787  36.170  0.00  0.00    +0.111 A 
ENDBRANCH   4   3
ENDBRANCH  10   9
BRANCH  12  13
ATOM     13  N   UNL     1      14.874   5.790  37.075  0.00  0.00    -0.281 N 
ATOM     14  C   UNL     1      15.803   6.569  37.746  0.00  0.00    +0.248 C 
ATOM     30  O   UNL     1      16.235   7.636  37.336  0.00  0.00    -0.270 OA
ATOM     31  H   UNL     1      14.747   4.841  37.426  0.00  0.00    +0.155 HD
BRANCH  14  15
ATOM     15  C   UNL     1      16.339   6.086  39.054  0.00  0.00    +0.037 A 
ATOM     16  C   UNL     1      15.642   5.054  39.827  0.00  0.00    +0.013 A 
ATOM     17  C   UNL     1      16.172   4.619  41.095  0.00  0.00    +0.005 A 
ATOM     18  C   UNL     1      17.408   5.214  41.597  0.00  0.00    -0.033 A 
ATOM     28  C   UNL     1      18.082   6.231  40.808  0.00  0.00    +0.005 A 
ATOM     29  C   UNL     1      17.565   6.662  39.565  0.00  0.00    +0.013 A 
BRANCH  18  19
ATOM     19  C   UNL     1      18.034   4.825  42.949  0.00  0.00    +0.119 C 
BRANCH  19  20
ATOM     20  N   UNL     1      17.344   3.764  43.743  0.00  0.00    -0.302 NA
ATOM     21  C   UNL     1      17.245   4.130  45.226  0.00  0.00    +0.066 C 
ATOM     22  C   UNL     1      16.500   3.020  46.038  0.00  0.00    -0.064 C 
ATOM     23  N   UNL     1      17.226   1.686  45.856  0.00  0.00    +0.379 N 
ATOM     24  C   UNL     1      16.562   0.653  46.664  0.00  0.00    -0.096 C 
ATOM     25  H   UNL     1      18.262   1.810  46.249  0.00  0.00    -0.082 HD
ATOM     26  C   UNL     1      17.332   1.316  44.384  0.00  0.00    -0.064 C 
ATOM     27  C   UNL     1      18.047   2.439  43.582  0.00  0.00    +0.066 C 
ENDBRANCH  19  20
ENDBRANCH  18  19
ENDBRANCH  14  15
ENDBRANCH  12  13
TORSDOF 6
ENDMDL
MODEL 2
REMARK VINA RESULT:     -10.7      6.855     15.733
REMARK  Name = C:\Users\Docking\Desktop\test protocol\1iep_ligandH.pdb
REMARK  8 active torsions:
REMARK  status: ('A' for Active; 'I' for Inactive)
REMARK    1  A    between atoms: _5  and  _11
REMARK    2  A    between atoms: _19  and  _21
REMARK    3  A    between atoms: _22  and  _66
REMARK    4  A    between atoms: _27  and  _30
REMARK    5  A    between atoms: _32  and  _33
REMARK    6  A    between atoms: _38  and  _43
REMARK    7  A    between atoms: _43  and  _46
REMARK    8  A    between atoms: _53  and  _55
REMARK                            x       y       z     vdW  Elec       q    Type
REMARK                         _______ _______ _______ _____ _____    ______ ____
ROOT
ATOM     10  C   UNL     1       7.927   9.834  31.579  0.00  0.00    +0.038 A 
ATOM     11  C   UNL     1       6.630   9.290  31.763  0.00  0.00    +0.047 A 
ATOM     12  C   UNL     1       5.538   9.628  30.863  0.00  0.00    +0.035 A 
ATOM     32  C   UNL     1       5.803  10.521  29.784  0.00  0.00    +0.024 A 
ATOM     33  C   UNL     1       7.116  11.083  29.583  0.00  0.00    +0.007 A 
ATOM     34  C   UNL     1       8.196  10.756  30.469  0.00  0.00    -0.029 A 
ATOM     35  C   UNL     1       9.581  11.394  30.210  0.00  0.00    +0.045 C 
ENDROOT
BRANCH  10   9
ATOM      4  C   UNL     1      11.588   7.039  32.929  0.00  0.00    +0.077 A 
ATOM      5  C   UNL     1      11.458   6.207  31.768  0.00  0.00    +0.048 A 
ATOM      6  C   UNL     1      10.432   6.528  30.851  0.00  0.00    +0.116 A 
ATOM      7  N   UNL     1       9.603   7.603  31.088  0.00  0.00    -0.223 NA
ATOM      8  C   UNL     1       9.755   8.384  32.219  0.00  0.00    +0.220 A 
ATOM      9  N   UNL     1       8.938   9.475  32.474  0.00  0.00    -0.283 N 
ATOM     36  H   UNL     1       9.077  10.022  33.323  0.00  0.00    +0.155 HD
ATOM     37  N   UNL     1      10.727   8.098  33.110  0.00  0.00    -0.214 NA
BRANCH   4   3
ATOM      1  C   UNL     1      13.464   6.996  36.361  0.00  0.00    +0.020 A 
ATOM      2  C   UNL     1      12.429   7.220  35.378  0.00  0.00    +0.013 A 
ATOM      3  C   UNL     1      12.626   6.830  33.988  0.00  0.00    +0.019 A 
ATOM     38  C   UNL     1      13.891   6.210  33.622  0.00  0.00    +0.120 A 
ATOM     39  N   UNL     1      14.870   6.008  34.590  0.00  0.00    -0.263 NA
ATOM     40  C   UNL     1      14.692   6.381  35.931  0.00  0.00    +0.111 A 
ENDBRANCH   4   3
ENDBRANCH  10   9
BRANCH  12  13
ATOM     13  N   UNL     1       4.198   9.113  31.004  0.00  0.00    -0.281 N 
ATOM     14  C   UNL     1       3.592   8.104  30.274  0.00  0.00    +0.248 C 
ATOM     30  O   UNL     1       4.042   7.634  29.240  0.00  0.00    -0.270 OA
ATOM     31  H   UNL     1       3.628   9.546  31.731  0.00  0.00    +0.155 HD
BRANCH  14  15
ATOM     15  C   UNL     1       2.291   7.547  30.754  0.00  0.00    +0.037 A 
ATOM     16  C   UNL     1       1.681   6.380  30.112  0.00  0.00    +0.013 A 
ATOM     17  C   UNL     1       0.416   5.874  30.584  0.00  0.00    +0.005 A 
ATOM     18  C   UNL     1      -0.246   6.534  31.707  0.00  0.00    -0.033 A 
ATOM     28  C   UNL     1       0.384   7.687  32.328  0.00  0.00    +0.005 A 
ATOM     29  C   UNL     1       1.623   8.187  31.868  0.00  0.00    +0.013 A 
BRANCH  18  19
ATOM     19  C   UNL     1      -1.607   6.075  32.263  0.00  0.00    +0.119 C 
BRANCH  19  20
ATOM     20  N   UNL     1      -2.614   5.577  31.279  0.00  0.00    -0.302 NA
ATOM     21  C   UNL     1      -2.940   6.624  30.210  0.00  0.00    +0.066 C 
ATOM     22  C   UNL     1      -3.978   6.078  29.177  0.00  0.00    -0.064 C 
ATOM     23  N   UNL     1      -5.247   5.644  29.913  0.00  0.00    +0.379 N 
ATOM     24  C   UNL     1      -6.247   5.185  28.939  0.00  0.00    -0.096 C 
ATOM     25  H   UNL     1      -5.663   6.541  30.428  0.00  0.00    -0.082 HD
ATOM     26  C   UNL     1      -4.932   4.605  30.980  0.00  0.00    -0.064 C 
ATOM     27  C   UNL     1      -3.877   5.147  31.985  0.00  0.00    +0.066 C 
ENDBRANCH  19  20
ENDBRANCH  18  19
ENDBRANCH  14  15
ENDBRANCH  12  13
TORSDOF 6
ENDMDL
MODEL 3
REMARK VINA RESULT:     -10.7      3.453      5.505
REMARK  Name = C:\Users\Docking\Desktop\test protocol\1iep_ligandH.pdb
REMARK  8 active torsions:
REMARK  status: ('A' for Active; 'I' for Inactive)
REMARK    1  A    between atoms: _5  and  _11
REMARK    2  A    between atoms: _19  and  _21
REMARK    3  A    between atoms: _22  and  _66
REMARK    4  A    between atoms: _27  and  _30
REMARK    5  A    between atoms: _32  and  _33
REMARK    6  A    between atoms: _38  and  _43
REMARK    7  A    between atoms: _43  and  _46
REMARK    8  A    between atoms: _53  and  _55
REMARK                            x       y       z     vdW  Elec       q    Type
REMARK                         _______ _______ _______ _____ _____    ______ ____
ROOT
ATOM     10  C   UNL     1       8.696  10.494  33.711  0.00  0.00    +0.038 A 
ATOM     11  C   UNL     1       9.558   9.657  34.465  0.00  0.00    +0.047 A 
ATOM     12  C   UNL     1      10.916  10.068  34.786  0.00  0.00    +0.035 A 
ATOM     32  C   UNL     1      11.363  11.341  34.324  0.00  0.00    +0.024 A 
ATOM     33  C   UNL     1      10.501  12.204  33.556  0.00  0.00    +0.007 A 
ATOM     34  C   UNL     1       9.161  11.802  33.234  0.00  0.00    -0.029 A 
ATOM     35  C   UNL     1       8.283  12.765  32.401  0.00  0.00    +0.045 C 
ENDROOT
BRANCH  10   9
ATOM      4  C   UNL     1       5.518   8.180  30.958  0.00  0.00    +0.077 A 
ATOM      5  C   UNL     1       6.514   7.852  29.980  0.00  0.00    +0.048 A 
ATOM      6  C   UNL     1       7.831   8.305  30.219  0.00  0.00    +0.116 A 
ATOM      7  N   UNL     1       8.119   9.029  31.355  0.00  0.00    -0.223 NA
ATOM      8  C   UNL     1       7.134   9.329  32.278  0.00  0.00    +0.220 A 
ATOM      9  N   UNL     1       7.402  10.049  33.432  0.00  0.00    -0.283 N 
ATOM     36  H   UNL     1       6.646  10.256  34.084  0.00  0.00    +0.155 HD
ATOM     37  N   UNL     1       5.868   8.909  32.072  0.00  0.00    -0.214 NA
BRANCH   4   3
ATOM      1  C   UNL     1       2.204   6.463  29.786  0.00  0.00    +0.020 A 
ATOM      2  C   UNL     1       3.601   6.825  29.849  0.00  0.00    +0.013 A 
ATOM      3  C   UNL     1       4.082   7.770  30.849  0.00  0.00    +0.019 A 
ATOM     38  C   UNL     1       3.115   8.334  31.779  0.00  0.00    +0.120 A 
ATOM     39  N   UNL     1       1.776   7.967  31.694  0.00  0.00    -0.263 NA
ATOM     40  C   UNL     1       1.301   7.060  30.734  0.00  0.00    +0.111 A 
ENDBRANCH   4   3
ENDBRANCH  10   9
BRANCH  12  13
ATOM     13  N   UNL     1      11.838   9.257  35.541  0.00  0.00    -0.281 N 
ATOM     14  C   UNL     1      12.201   7.941  35.310  0.00  0.00    +0.248 C 
ATOM     30  O   UNL     1      11.622   7.189  34.540  0.00  0.00    -0.270 OA
ATOM     31  H   UNL     1      12.277   9.709  36.344  0.00  0.00    +0.155 HD
BRANCH  14  15
ATOM     15  C   UNL     1      13.367   7.372  36.053  0.00  0.00    +0.037 A 
ATOM     16  C   UNL     1      14.416   8.238  36.598  0.00  0.00    +0.013 A 
ATOM     17  C   UNL     1      15.539   7.662  37.295  0.00  0.00    +0.005 A 
ATOM     18  C   UNL     1      15.617   6.212  37.453  0.00  0.00    -0.033 A 
ATOM     28  C   UNL     1      14.559   5.377  36.907  0.00  0.00    +0.005 A 
ATOM     29  C   UNL     1      13.458   5.938  36.222  0.00  0.00    +0.013 A 
BRANCH  18  19
ATOM     19  C   UNL     1      16.789   5.509  38.164  0.00  0.00    +0.119 C 
BRANCH  19  20
ATOM     20  N   UNL     1      16.624   5.207  39.617  0.00  0.00    -0.302 NA
ATOM     21  C   UNL     1      17.734   5.835  40.464  0.00  0.00    +0.066 C 
ATOM     22  C   UNL     1      17.534   5.528  41.984  0.00  0.00    -0.064 C 
ATOM     23  N   UNL     1      17.485   4.013  42.193  0.00  0.00    +0.379 N 
ATOM     24  C   UNL     1      17.355   3.719  43.627  0.00  0.00    -0.096 C 
ATOM     25  H   UNL     1      18.458   3.593  41.848  0.00  0.00    -0.082 HD
ATOM     26  C   UNL     1      16.386   3.379  41.352  0.00  0.00    -0.064 C 
ATOM     27  C   UNL     1      16.578   3.716  39.847  0.00  0.00    +0.066 C 
ENDBRANCH  19  20
ENDBRANCH  18  19
ENDBRANCH  14  15
ENDBRANCH  12  13
TORSDOF 6
ENDMDL
MODEL 4
REMARK VINA RESULT:     -10.7      3.788      6.447
REMARK  Name = C:\Users\Docking\Desktop\test protocol\1iep_ligandH.pdb
REMARK  8 active torsions:
REMARK  status: ('A' for Active; 'I' for Inactive)
REMARK    1  A    between atoms: _5  and  _11
REMARK    2  A    between atoms: _19  and  _21
REMARK    3  A    between atoms: _22  and  _66
REMARK    4  A    between atoms: _27  and  _30
REMARK    5  A    between atoms: _32  and  _33
REMARK    6  A    between atoms: _38  and  _43
REMARK    7  A    between atoms: _43  and  _46
REMARK    8  A    between atoms: _53  and  _55
REMARK                            x       y       z     vdW  Elec       q    Type
REMARK                         _______ _______ _______ _____ _____    ______ ____
ROOT
ATOM     10  C   UNL     1       7.640   9.384  31.686  0.00  0.00    +0.038 A 
ATOM     11  C   UNL     1       8.662   8.777  32.460  0.00  0.00    +0.047 A 
ATOM     12  C   UNL     1       9.931   9.450  32.692  0.00  0.00    +0.035 A 
ATOM     32  C   UNL     1      10.123  10.743  32.124  0.00  0.00    +0.024 A 
ATOM     33  C   UNL     1       9.095  11.375  31.335  0.00  0.00    +0.007 A 
ATOM     34  C   UNL     1       7.843  10.714  31.100  0.00  0.00    -0.029 A 
ATOM     35  C   UNL     1       6.780  11.436  30.240  0.00  0.00    +0.045 C 
ENDROOT
BRANCH  10   9
ATOM      4  C   UNL     1       3.033   8.531  32.727  0.00  0.00    +0.077 A 
ATOM      5  C   UNL     1       3.019   9.529  33.757  0.00  0.00    +0.048 A 
ATOM      6  C   UNL     1       4.220  10.235  33.993  0.00  0.00    +0.116 A 
ATOM      7  N   UNL     1       5.345   9.955  33.247  0.00  0.00    -0.223 NA
ATOM      8  C   UNL     1       5.325   8.985  32.262  0.00  0.00    +0.220 A 
ATOM      9  N   UNL     1       6.442   8.693  31.495  0.00  0.00    -0.283 N 
ATOM     36  H   UNL     1       6.388   7.965  30.783  0.00  0.00    +0.155 HD
ATOM     37  N   UNL     1       4.190   8.296  32.019  0.00  0.00    -0.214 NA
BRANCH   4   3
ATOM      1  C   UNL     1       0.491   6.330  30.728  0.00  0.00    +0.020 A 
ATOM      2  C   UNL     1       1.660   7.122  31.033  0.00  0.00    +0.013 A 
ATOM      3  C   UNL     1       1.841   7.703  32.357  0.00  0.00    +0.019 A 
ATOM     38  C   UNL     1       0.813   7.462  33.358  0.00  0.00    +0.120 A 
ATOM     39  N   UNL     1      -0.303   6.697  33.035  0.00  0.00    -0.263 NA
ATOM     40  C   UNL     1      -0.489   6.134  31.764  0.00  0.00    +0.111 A 
ENDBRANCH   4   3
ENDBRANCH  10   9
BRANCH  12  13
ATOM     13  N   UNL     1      11.008   8.880  33.462  0.00  0.00    -0.281 N 
ATOM     14  C   UNL     1      11.349   9.148  34.778  0.00  0.00    +0.248 C 
ATOM     30  O   UNL     1      10.908  10.082  35.430  0.00  0.00    -0.270 OA
ATOM     31  H   UNL     1      11.590   8.196  32.979  0.00  0.00    +0.155 HD
BRANCH  14  15
ATOM     15  C   UNL     1      12.335   8.257  35.464  0.00  0.00    +0.037 A 
ATOM     16  C   UNL     1      13.489   8.809  36.177  0.00  0.00    +0.013 A 
ATOM     17  C   UNL     1      14.434   7.927  36.815  0.00  0.00    +0.005 A 
ATOM     18  C   UNL     1      14.226   6.483  36.744  0.00  0.00    -0.033 A 
ATOM     28  C   UNL     1      13.069   5.962  36.035  0.00  0.00    +0.005 A 
ATOM     29  C   UNL     1      12.142   6.824  35.407  0.00  0.00    +0.013 A 
BRANCH  18  19
ATOM     19  C   UNL     1      15.194   5.466  37.378  0.00  0.00    +0.119 C 
BRANCH  19  20
ATOM     20  N   UNL     1      15.725   5.783  38.738  0.00  0.00    -0.302 NA
ATOM     21  C   UNL     1      17.227   6.080  38.713  0.00  0.00    +0.066 C 
ATOM     22  C   UNL     1      17.762   6.432  40.140  0.00  0.00    -0.064 C 
ATOM     23  N   UNL     1      17.452   5.278  41.096  0.00  0.00    +0.379 N 
ATOM     24  C   UNL     1      18.005   5.581  42.424  0.00  0.00    -0.096 C 
ATOM     25  H   UNL     1      17.974   4.371  40.711  0.00  0.00    -0.082 HD
ATOM     26  C   UNL     1      15.961   4.975  41.124  0.00  0.00    -0.064 C 
ATOM     27  C   UNL     1      15.435   4.656  39.697  0.00  0.00    +0.066 C 
ENDBRANCH  19  20
ENDBRANCH  18  19
ENDBRANCH  14  15
ENDBRANCH  12  13
TORSDOF 6
ENDMDL
MODEL 5
REMARK VINA RESULT:     -10.3      2.273      2.879
REMARK  Name = C:\Users\Docking\Desktop\test protocol\1iep_ligandH.pdb
REMARK  8 active torsions:
REMARK  status: ('A' for Active; 'I' for Inactive)
REMARK    1  A    between atoms: _5  and  _11
REMARK    2  A    between atoms: _19  and  _21
REMARK    3  A    between atoms: _22  and  _66
REMARK    4  A    between atoms: _27  and  _30
REMARK    5  A    between atoms: _32  and  _33
REMARK    6  A    between atoms: _38  and  _43
REMARK    7  A    between atoms: _43  and  _46
REMARK    8  A    between atoms: _53  and  _55
REMARK                            x       y       z     vdW  Elec       q    Type
REMARK                         _______ _______ _______ _____ _____    ______ ____
ROOT
ATOM     10  C   UNL     1      12.464   9.385  35.200  0.00  0.00    +0.038 A 
ATOM     11  C   UNL     1      13.186   8.807  36.275  0.00  0.00    +0.047 A 
ATOM     12  C   UNL     1      13.694   7.446  36.194  0.00  0.00    +0.035 A 
ATOM     32  C   UNL     1      13.451   6.704  35.001  0.00  0.00    +0.024 A 
ATOM     33  C   UNL     1      12.719   7.276  33.899  0.00  0.00    +0.007 A 
ATOM     34  C   UNL     1      12.213   8.617  33.974  0.00  0.00    -0.029 A 
ATOM     35  C   UNL     1      11.428   9.177  32.765  0.00  0.00    +0.045 C 
ENDROOT
BRANCH  10   9
ATOM      4  C   UNL     1       9.135  12.583  36.514  0.00  0.00    +0.077 A 
ATOM      5  C   UNL     1       8.235  11.555  36.951  0.00  0.00    +0.048 A 
ATOM      6  C   UNL     1       8.664  10.216  36.814  0.00  0.00    +0.116 A 
ATOM      7  N   UNL     1       9.903   9.937  36.278  0.00  0.00    -0.223 NA
ATOM      8  C   UNL     1      10.746  10.953  35.865  0.00  0.00    +0.220 A 
ATOM      9  N   UNL     1      11.999  10.696  35.331  0.00  0.00    -0.283 N 
ATOM     36  H   UNL     1      12.588  11.472  35.031  0.00  0.00    +0.155 HD
ATOM     37  N   UNL     1      10.359  12.240  35.984  0.00  0.00    -0.214 NA
BRANCH   4   3
ATOM      1  C   UNL     1       7.376  15.990  37.291  0.00  0.00    +0.020 A 
ATOM      2  C   UNL     1       7.626  14.568  37.238  0.00  0.00    +0.013 A 
ATOM      3  C   UNL     1       8.827  14.046  36.597  0.00  0.00    +0.019 A 
ATOM     38  C   UNL     1       9.761  14.998  36.015  0.00  0.00    +0.120 A 
ATOM     39  N   UNL     1       9.493  16.361  36.080  0.00  0.00    -0.263 NA
ATOM     40  C   UNL     1       8.340  16.875  36.693  0.00  0.00    +0.111 A 
ENDBRANCH   4   3
ENDBRANCH  10   9
BRANCH  12  13
ATOM     13  N   UNL     1      14.426   6.803  37.256  0.00  0.00    -0.281 N 
ATOM     14  C   UNL     1      15.798   6.656  37.378  0.00  0.00    +0.248 C 
ATOM     30  O   UNL     1      16.598   6.871  36.479  0.00  0.00    -0.270 OA
ATOM     31  H   UNL     1      13.865   6.408  38.011  0.00  0.00    +0.155 HD
BRANCH  14  15
ATOM     15  C   UNL     1      16.363   6.191  38.681  0.00  0.00    +0.037 A 
ATOM     16  C   UNL     1      15.711   5.132  39.457  0.00  0.00    +0.013 A 
ATOM     17  C   UNL     1      16.266   4.714  40.719  0.00  0.00    +0.005 A 
ATOM     18  C   UNL     1      17.483   5.354  41.213  0.00  0.00    -0.033 A 
ATOM     28  C   UNL     1      18.112   6.398  40.421  0.00  0.00    +0.005 A 
ATOM     29  C   UNL     1      17.570   6.812  39.184  0.00  0.00    +0.013 A 
BRANCH  18  19
ATOM     19  C   UNL     1      18.134   4.986  42.560  0.00  0.00    +0.119 C 
BRANCH  19  20
ATOM     20  N   UNL     1      17.440   3.964  43.398  0.00  0.00    -0.302 NA
ATOM     21  C   UNL     1      17.388   4.370  44.874  0.00  0.00    +0.066 C 
ATOM     22  C   UNL     1      16.639   3.300  45.733  0.00  0.00    -0.064 C 
ATOM     23  N   UNL     1      17.327   1.944  45.567  0.00  0.00    +0.379 N 
ATOM     24  C   UNL     1      16.660   0.948  46.419  0.00  0.00    -0.096 C 
ATOM     25  H   UNL     1      18.376   2.051  45.930  0.00  0.00    -0.082 HD
ATOM     26  C   UNL     1      17.385   1.534  44.103  0.00  0.00    -0.064 C 
ATOM     27  C   UNL     1      18.106   2.618  43.253  0.00  0.00    +0.066 C 
ENDBRANCH  19  20
ENDBRANCH  18  19
ENDBRANCH  14  15
ENDBRANCH  12  13
TORSDOF 6
ENDMDL
