MODEL 1
REMARK VINA RESULT:     -10.4      0.000      0.000
REMARK  Name = C:\Users\Docking\Desktop\test protocol\1iep_ligandH.pdb
REMARK  8 active torsions:
REMARK  status: ('A' for Active; 'I' for Inactive)
REMARK    1  A    between atoms: _5  and  _11
REMARK    2  A    between atoms: _19  and  _21
REMARK    3  A    between atoms: _22  and  _66
REMARK    4  A    between atoms: _27  and  _30
REMARK    5  A    between atoms: _32  and  _33
REMARK    6  A    between atoms: _38  and  _43
REMARK    7  A    between atoms: _43  and  _46
REMARK    8  A    between atoms: _53  and  _55
REMARK                            x       y       z     vdW  Elec       q    Type
REMARK                         _______ _______ _______ _____ _____    ______ ____
ROOT
ATOM     10  C   UNL     1      15.143   5.157  37.448  0.00  0.00    +0.038 A 
ATOM     11  C   UNL     1      14.215   6.188  37.151  0.00  0.00    +0.047 A 
ATOM     12  C   UNL     1      13.981   6.618  35.781  0.00  0.00    +0.035 A 
ATOM     32  C   UNL     1      14.708   5.975  34.737  0.00  0.00    +0.024 A 
ATOM     33  C   UNL     1      15.656   4.926  35.022  0.00  0.00    +0.007 A 
ATOM     34  C   UNL     1      15.892   4.499  36.371  0.00  0.00    -0.029 A 
ATOM     35  C   UNL     1      16.925   3.375  36.618  0.00  0.00    +0.045 C 
ENDROOT
BRANCH  10   9
ATOM      4  C   UNL     1      17.407   5.505  41.665  0.00  0.00    +0.077 A 
ATOM      5  C   UNL     1      18.316   6.495  41.163  0.00  0.00    +0.048 A 
ATOM      6  C   UNL     1      18.171   6.882  39.812  0.00  0.00    +0.116 A 
ATOM      7  N   UNL     1      17.188   6.315  39.031  0.00  0.00    -0.223 NA
ATOM      8  C   UNL     1      16.329   5.362  39.546  0.00  0.00    +0.220 A 
ATOM      9  N   UNL     1      15.328   4.784  38.781  0.00  0.00    -0.283 N 
ATOM     36  H   UNL     1      14.719   4.079  39.196  0.00  0.00    +0.155 HD
ATOM     37  N   UNL     1      16.447   4.974  40.833  0.00  0.00    -0.214 NA
BRANCH   4   3
ATOM      1  C   UNL     1      17.485   5.332  45.572  0.00  0.00    +0.020 A 
ATOM      2  C   UNL     1      17.463   5.876  44.234  0.00  0.00    +0.013 A 
ATOM      3  C   UNL     1      17.431   4.995  43.073  0.00  0.00    +0.019 A 
ATOM     38  C   UNL     1      17.421   3.558  43.302  0.00  0.00    +0.120 A 
ATOM     39  N   UNL     1      17.444   3.064  44.603  0.00  0.00    -0.263 NA
ATOM     40  C   UNL     1      17.476   3.901  45.728  0.00  0.00    +0.111 A 
ENDBRANCH   4   3
ENDBRANCH  10   9
BRANCH  12  13
ATOM     13  N   UNL     1      13.057   7.664  35.419  0.00  0.00    -0.281 N 
ATOM     14  C   UNL     1      13.286   9.030  35.390  0.00  0.00    +0.248 C 
ATOM     30  O   UNL     1      14.263   9.578  35.880  0.00  0.00    -0.270 OA
ATOM     31  H   UNL     1      12.120   7.361  35.152  0.00  0.00    +0.155 HD
BRANCH  14  15
ATOM     15  C   UNL     1      12.277   9.918  34.736  0.00  0.00    +0.037 A 
ATOM     16  C   UNL     1      11.992   9.817  33.303  0.00  0.00    +0.013 A 
ATOM     17  C   UNL     1      11.026  10.697  32.694  0.00  0.00    +0.005 A 
ATOM     18  C   UNL     1      10.338  11.686  33.519  0.00  0.00    -0.033 A 
ATOM     28  C   UNL     1      10.636  11.761  34.940  0.00  0.00    +0.005 A 
ATOM     29  C   UNL     1      11.583  10.901  35.540  0.00  0.00    +0.013 A 
BRANCH  18  19
ATOM     19  C   UNL     1       9.308  12.680  32.950  0.00  0.00    +0.119 C 
BRANCH  19  20
ATOM     20  N   UNL     1       8.149  12.109  32.201  0.00  0.00    -0.302 NA
ATOM     21  C   UNL     1       7.651  10.801  32.822  0.00  0.00    +0.066 C 
ATOM     22  C   UNL     1       6.424  10.230  32.039  0.00  0.00    -0.064 C 
ATOM     23  N   UNL     1       6.810  10.021  30.574  0.00  0.00    +0.379 N 
ATOM     24  C   UNL     1       5.677   9.430  29.847  0.00  0.00    -0.096 C 
ATOM     25  H   UNL     1       7.649   9.287  30.547  0.00  0.00    -0.082 HD
ATOM     26  C   UNL     1       7.310  11.316  29.949  0.00  0.00    -0.064 C 
ATOM     27  C   UNL     1       8.510  11.890  30.752  0.00  0.00    +0.066 C 
ENDBRANCH  19  20
ENDBRANCH  18  19
ENDBRANCH  14  15
ENDBRANCH  12  13
TORSDOF 6
ENDMDL
MODEL 2
REMARK VINA RESULT:     -10.4      2.496     12.786
REMARK  Name = C:\Users\Docking\Desktop\test protocol\1iep_ligandH.pdb
REMARK  8 active torsions:
REMARK  status: ('A' for Active; 'I' for Inactive)
REMARK    1  A    between atoms: _5  and  _11
REMARK    2  A    between atoms: _19  and  _21
REMARK    3  A    between atoms: _22  and  _66
REMARK    4  A    between atoms: _27  and  _30
REMARK    5  A    between atoms: _32  and  _33
REMARK    6  A    between atoms: _38  and  _43
REMARK    7  A    between atoms: _43  and  _46
REMARK    8  A    between atoms: _53  and  _55
REMARK                            x       y       z     vdW  Elec       q    Type
REMARK                         _______ _______ _______ _____ _____    ______ ____
ROOT
ATOM     10  C   UNL     1      13.710   7.905  34.839  0.00  0.00    +0.038 A 
ATOM     11  C   UNL     1      14.143   7.566  36.146  0.00  0.00    +0.047 A 
ATOM     12  C   UNL     1      14.677   6.246  36.443  0.00  0.00    +0.035 A 
ATOM     32  C   UNL     1      14.759   5.297  35.384  0.00  0.00    +0.024 A 
ATOM     33  C   UNL     1      14.322   5.624  34.049  0.00  0.00    +0.007 A 
ATOM     34  C   UNL     1      13.792   6.924  33.751  0.00  0.00    -0.029 A 
ATOM     35  C   UNL     1      13.333   7.217  32.304  0.00  0.00    +0.045 C 
ENDROOT
BRANCH  10   9
ATOM      4  C   UNL     1      10.090  11.048  34.592  0.00  0.00    +0.077 A 
ATOM      5  C   UNL     1       9.119  10.044  34.920  0.00  0.00    +0.048 A 
ATOM      6  C   UNL     1       9.591   8.731  35.138  0.00  0.00    +0.116 A 
ATOM      7  N   UNL     1      10.937   8.452  35.034  0.00  0.00    -0.223 NA
ATOM      8  C   UNL     1      11.847   9.443  34.713  0.00  0.00    +0.220 A 
ATOM      9  N   UNL     1      13.205   9.188  34.610  0.00  0.00    -0.283 N 
ATOM     36  H   UNL     1      13.843   9.944  34.365  0.00  0.00    +0.155 HD
ATOM     37  N   UNL     1      11.421  10.705  34.499  0.00  0.00    -0.214 NA
BRANCH   4   3
ATOM      1  C   UNL     1       9.196  14.411  32.807  0.00  0.00    +0.020 A 
ATOM      2  C   UNL     1       9.525  13.018  32.999  0.00  0.00    +0.013 A 
ATOM      3  C   UNL     1       9.747  12.482  34.336  0.00  0.00    +0.019 A 
ATOM     38  C   UNL     1       9.626  13.391  35.467  0.00  0.00    +0.120 A 
ATOM     39  N   UNL     1       9.309  14.728  35.251  0.00  0.00    -0.263 NA
ATOM     40  C   UNL     1       9.095  15.255  33.968  0.00  0.00    +0.111 A 
ENDBRANCH   4   3
ENDBRANCH  10   9
BRANCH  12  13
ATOM     13  N   UNL     1      15.125   5.842  37.753  0.00  0.00    -0.281 N 
ATOM     14  C   UNL     1      16.424   5.798  38.233  0.00  0.00    +0.248 C 
ATOM     30  O   UNL     1      17.422   5.896  37.535  0.00  0.00    -0.270 OA
ATOM     31  H   UNL     1      14.396   5.554  38.406  0.00  0.00    +0.155 HD
BRANCH  14  15
ATOM     15  C   UNL     1      16.646   5.601  39.698  0.00  0.00    +0.037 A 
ATOM     16  C   UNL     1      17.819   6.164  40.371  0.00  0.00    +0.013 A 
ATOM     17  C   UNL     1      18.019   5.945  41.781  0.00  0.00    +0.005 A 
ATOM     18  C   UNL     1      17.040   5.159  42.529  0.00  0.00    -0.033 A 
ATOM     28  C   UNL     1      15.883   4.617  41.838  0.00  0.00    +0.005 A 
ATOM     29  C   UNL     1      15.685   4.828  40.455  0.00  0.00    +0.013 A 
BRANCH  18  19
ATOM     19  C   UNL     1      17.183   4.857  44.033  0.00  0.00    +0.119 C 
BRANCH  19  20
ATOM     20  N   UNL     1      17.074   3.430  44.457  0.00  0.00    -0.302 NA
ATOM     21  C   UNL     1      17.200   3.270  45.975  0.00  0.00    +0.066 C 
ATOM     22  C   UNL     1      17.062   1.773  46.403  0.00  0.00    -0.064 C 
ATOM     23  N   UNL     1      18.121   0.939  45.681  0.00  0.00    +0.379 N 
ATOM     24  C   UNL     1      18.032  -0.460  46.125  0.00  0.00    -0.096 C 
ATOM     25  H   UNL     1      19.122   1.327  45.985  0.00  0.00    -0.082 HD
ATOM     26  C   UNL     1      18.005   1.094  44.171  0.00  0.00    -0.064 C 
ATOM     27  C   UNL     1      18.115   2.588  43.759  0.00  0.00    +0.066 C 
ENDBRANCH  19  20
ENDBRANCH  18  19
ENDBRANCH  14  15
ENDBRANCH  12  13
TORSDOF 6
ENDMDL
MODEL 3
REMARK VINA RESULT:     -10.1      3.176     12.496
REMARK  Name = C:\Users\Docking\Desktop\test protocol\1iep_ligandH.pdb
REMARK  8 active torsions:
REMARK  status: ('A' for Active; 'I' for Inactive)
REMARK    1  A    between atoms: _5  and  _11
REMARK    2  A    between atoms: _19  and  _21
REMARK    3  A    between atoms: _22  and  _66
REMARK    4  A    between atoms: _27  and  _30
REMARK    5  A    between atoms: _32  and  _33
REMARK    6  A    between atoms: _38  and  _43
REMARK    7  A    between atoms: _43  and  _46
REMARK    8  A    between atoms: _53  and  _55
REMARK                            x       y       z     vdW  Elec       q    Type
REMARK                         _______ _______ _______ _____ _____    ______ ____
ROOT
ATOM     10  C   UNL     1      12.771   8.640  35.249  0.00  0.00    +0.038 A 
ATOM     11  C   UNL     1      13.446   8.149  36.396  0.00  0.00    +0.047 A 
ATOM     12  C   UNL     1      14.255   6.942  36.333  0.00  0.00    +0.035 A 
ATOM     32  C   UNL     1      14.357   6.261  35.085  0.00  0.00    +0.024 A 
ATOM     33  C   UNL     1      13.676   6.746  33.910  0.00  0.00    +0.007 A 
ATOM     34  C   UNL     1      12.874   7.934  33.966  0.00  0.00    -0.029 A 
ATOM     35  C   UNL     1      12.162   8.404  32.677  0.00  0.00    +0.045 C 
ENDROOT
BRANCH  10   9
ATOM      4  C   UNL     1      12.311  13.418  35.260  0.00  0.00    +0.077 A 
ATOM      5  C   UNL     1      13.716  13.612  35.040  0.00  0.00    +0.048 A 
ATOM      6  C   UNL     1      14.523  12.457  34.937  0.00  0.00    +0.116 A 
ATOM      7  N   UNL     1      13.957  11.205  35.047  0.00  0.00    -0.223 NA
ATOM      8  C   UNL     1      12.599  11.053  35.261  0.00  0.00    +0.220 A 
ATOM      9  N   UNL     1      12.007   9.804  35.366  0.00  0.00    -0.283 N 
ATOM     36  H   UNL     1      11.003   9.734  35.531  0.00  0.00    +0.155 HD
ATOM     37  N   UNL     1      11.807  12.141  35.364  0.00  0.00    -0.214 NA
BRANCH   4   3
ATOM      1  C   UNL     1      10.689  16.977  35.265  0.00  0.00    +0.020 A 
ATOM      2  C   UNL     1      11.676  15.931  35.128  0.00  0.00    +0.013 A 
ATOM      3  C   UNL     1      11.328  14.540  35.387  0.00  0.00    +0.019 A 
ATOM     38  C   UNL     1       9.962  14.238  35.786  0.00  0.00    +0.120 A 
ATOM     39  N   UNL     1       9.033  15.266  35.911  0.00  0.00    -0.263 NA
ATOM     40  C   UNL     1       9.356  16.609  35.666  0.00  0.00    +0.111 A 
ENDBRANCH   4   3
ENDBRANCH  10   9
BRANCH  12  13
ATOM     13  N   UNL     1      14.957   6.392  37.466  0.00  0.00    -0.281 N 
ATOM     14  C   UNL     1      16.270   6.617  37.846  0.00  0.00    +0.248 C 
ATOM     30  O   UNL     1      17.109   7.164  37.144  0.00  0.00    -0.270 OA
ATOM     31  H   UNL     1      14.422   5.758  38.059  0.00  0.00    +0.155 HD
BRANCH  14  15
ATOM     15  C   UNL     1      16.721   6.157  39.194  0.00  0.00    +0.037 A 
ATOM     16  C   UNL     1      16.008   5.097  39.913  0.00  0.00    +0.013 A 
ATOM     17  C   UNL     1      16.454   4.684  41.220  0.00  0.00    +0.005 A 
ATOM     18  C   UNL     1      17.621   5.330  41.816  0.00  0.00    -0.033 A 
ATOM     28  C   UNL     1      18.312   6.375  41.079  0.00  0.00    +0.005 A 
ATOM     29  C   UNL     1      17.877   6.784  39.799  0.00  0.00    +0.013 A 
BRANCH  18  19
ATOM     19  C   UNL     1      18.154   4.967  43.215  0.00  0.00    +0.119 C 
BRANCH  19  20
ATOM     20  N   UNL     1      17.471   3.854  43.939  0.00  0.00    -0.302 NA
ATOM     21  C   UNL     1      17.347   4.135  45.440  0.00  0.00    +0.066 C 
ATOM     22  C   UNL     1      16.611   2.971  46.178  0.00  0.00    -0.064 C 
ATOM     23  N   UNL     1      17.361   1.660  45.933  0.00  0.00    +0.379 N 
ATOM     24  C   UNL     1      16.704   0.573  46.673  0.00  0.00    -0.096 C 
ATOM     25  H   UNL     1      18.390   1.777  46.345  0.00  0.00    -0.082 HD
ATOM     26  C   UNL     1      17.490   1.374  44.443  0.00  0.00    -0.064 C 
ATOM     27  C   UNL     1      18.197   2.551  43.714  0.00  0.00    +0.066 C 
ENDBRANCH  19  20
ENDBRANCH  18  19
ENDBRANCH  14  15
ENDBRANCH  12  13
TORSDOF 6
ENDMDL
MODEL 4
REMARK VINA RESULT:     -10.0      2.845     12.520
REMARK  Name = C:\Users\Docking\Desktop\test protocol\1iep_ligandH.pdb
REMARK  8 active torsions:
REMARK  status: ('A' for Active; 'I' for Inactive)
REMARK    1  A    between atoms: _5  and  _11
REMARK    2  A    between atoms: _19  and  _21
REMARK    3  A    between atoms: _22  and  _66
REMARK    4  A    between atoms: _27  and  _30
REMARK    5  A    between atoms: _32  and  _33
REMARK    6  A    between atoms: _38  and  _43
REMARK    7  A    between atoms: _43  and  _46
REMARK    8  A    between atoms: _53  and  _55
REMARK                            x       y       z     vdW  Elec       q    Type
REMARK                         _______ _______ _______ _____ _____    ______ ____
ROOT
ATOM     10  C   UNL     1      11.901   9.582  34.963  0.00  0.00    +0.038 A 
ATOM     11  C   UNL     1      12.674   9.015  36.008  0.00  0.00    +0.047 A 
ATOM     12  C   UNL     1      13.189   7.658  35.911  0.00  0.00    +0.035 A 
ATOM     32  C   UNL     1      12.900   6.907  34.735  0.00  0.00    +0.024 A 
ATOM     33  C   UNL     1      12.114   7.468  33.663  0.00  0.00    +0.007 A 
ATOM     34  C   UNL     1      11.601   8.805  33.754  0.00  0.00    -0.029 A 
ATOM     35  C   UNL     1      10.760   9.352  32.578  0.00  0.00    +0.045 C 
ENDROOT
BRANCH  10   9
ATOM      4  C   UNL     1       8.707  12.777  36.585  0.00  0.00    +0.077 A 
ATOM      5  C   UNL     1       7.891  11.752  37.170  0.00  0.00    +0.048 A 
ATOM      6  C   UNL     1       8.324  10.416  37.024  0.00  0.00    +0.116 A 
ATOM      7  N   UNL     1       9.489  10.136  36.343  0.00  0.00    -0.223 NA
ATOM      8  C   UNL     1      10.252  11.147  35.790  0.00  0.00    +0.220 A 
ATOM      9  N   UNL     1      11.431  10.889  35.108  0.00  0.00    -0.283 N 
ATOM     36  H   UNL     1      11.962  11.663  34.708  0.00  0.00    +0.155 HD
ATOM     37  N   UNL     1       9.859  12.432  35.914  0.00  0.00    -0.214 NA
BRANCH   4   3
ATOM      1  C   UNL     1       7.151  16.209  37.634  0.00  0.00    +0.020 A 
ATOM      2  C   UNL     1       7.426  14.791  37.605  0.00  0.00    +0.013 A 
ATOM      3  C   UNL     1       8.384  14.237  36.657  0.00  0.00    +0.019 A 
ATOM     38  C   UNL     1       9.052  15.153  35.744  0.00  0.00    +0.120 A 
ATOM     39  N   UNL     1       8.766  16.513  35.793  0.00  0.00    -0.263 NA
ATOM     40  C   UNL     1       7.844  17.057  36.701  0.00  0.00    +0.111 A 
ENDBRANCH   4   3
ENDBRANCH  10   9
BRANCH  12  13
ATOM     13  N   UNL     1      13.973   7.026  36.944  0.00  0.00    -0.281 N 
ATOM     14  C   UNL     1      15.268   6.543  36.854  0.00  0.00    +0.248 C 
ATOM     30  O   UNL     1      15.877   6.388  35.806  0.00  0.00    -0.270 OA
ATOM     31  H   UNL     1      13.518   6.922  37.851  0.00  0.00    +0.155 HD
BRANCH  14  15
ATOM     15  C   UNL     1      15.986   6.164  38.109  0.00  0.00    +0.037 A 
ATOM     16  C   UNL     1      15.518   5.057  38.948  0.00  0.00    +0.013 A 
ATOM     17  C   UNL     1      16.219   4.724  40.162  0.00  0.00    +0.005 A 
ATOM     18  C   UNL     1      17.397   5.498  40.545  0.00  0.00    -0.033 A 
ATOM     28  C   UNL     1      17.843   6.587  39.692  0.00  0.00    +0.005 A 
ATOM     29  C   UNL     1      17.158   6.918  38.501  0.00  0.00    +0.013 A 
BRANCH  18  19
ATOM     19  C   UNL     1      18.194   5.226  41.834  0.00  0.00    +0.119 C 
BRANCH  19  20
ATOM     20  N   UNL     1      17.521   4.423  42.898  0.00  0.00    -0.302 NA
ATOM     21  C   UNL     1      17.396   5.199  44.212  0.00  0.00    +0.066 C 
ATOM     22  C   UNL     1      16.669   4.353  45.307  0.00  0.00    -0.064 C 
ATOM     23  N   UNL     1      17.428   3.042  45.522  0.00  0.00    +0.379 N 
ATOM     24  C   UNL     1      16.780   2.270  46.592  0.00  0.00    -0.096 C 
ATOM     25  H   UNL     1      18.456   3.300  45.866  0.00  0.00    -0.082 HD
ATOM     26  C   UNL     1      17.558   2.265  44.220  0.00  0.00    -0.064 C 
ATOM     27  C   UNL     1      18.256   3.126  43.130  0.00  0.00    +0.066 C 
ENDBRANCH  19  20
ENDBRANCH  18  19
ENDBRANCH  14  15
ENDBRANCH  12  13
TORSDOF 6
ENDMDL
MODEL 5
REMARK VINA RESULT:      -9.7      3.132      4.659
REMARK  Name = C:\Users\Docking\Desktop\test protocol\1iep_ligandH.pdb
REMARK  8 active torsions:
REMARK  status: ('A' for Active; 'I' for Inactive)
REMARK    1  A    between atoms: _5  and  _11
REMARK    2  A    between atoms: _19  and  _21
REMARK    3  A    between atoms: _22  and  _66
REMARK    4  A    between atoms: _27  and  _30
REMARK    5  A    between atoms: _32  and  _33
REMARK    6  A    between atoms: _38  and  _43
REMARK    7  A    between atoms: _43  and  _46
REMARK    8  A    between atoms: _53  and  _55
REMARK                            x       y       z     vdW  Elec       q    Type
REMARK                         _______ _______ _______ _____ _____    ______ ____
ROOT
ATOM     10  C   UNL     1      14.064   6.318  35.833  0.00  0.00    +0.038 A 
ATOM     11  C   UNL     1      13.375   7.555  35.917  0.00  0.00    +0.047 A 
ATOM     12  C   UNL     1      12.998   8.288  34.719  0.00  0.00    +0.035 A 
ATOM     32  C   UNL     1      13.336   7.732  33.451  0.00  0.00    +0.024 A 
ATOM     33  C   UNL     1      14.037   6.476  33.348  0.00  0.00    +0.007 A 
ATOM     34  C   UNL     1      14.414   5.749  34.526  0.00  0.00    -0.029 A 
ATOM     35  C   UNL     1      15.171   4.411  34.355  0.00  0.00    +0.045 C 
ENDROOT
BRANCH  10   9
ATOM      4  C   UNL     1      17.103   5.342  39.418  0.00  0.00    +0.077 A 
ATOM      5  C   UNL     1      18.113   6.205  38.876  0.00  0.00    +0.048 A 
ATOM      6  C   UNL     1      17.814   6.875  37.669  0.00  0.00    +0.116 A 
ATOM      7  N   UNL     1      16.592   6.690  37.059  0.00  0.00    -0.223 NA
ATOM      8  C   UNL     1      15.641   5.850  37.608  0.00  0.00    +0.220 A 
ATOM      9  N   UNL     1      14.402   5.656  37.016  0.00  0.00    -0.283 N 
ATOM     36  H   UNL     1      13.730   5.022  37.448  0.00  0.00    +0.155 HD
ATOM     37  N   UNL     1      15.903   5.197  38.759  0.00  0.00    -0.214 NA
BRANCH   4   3
ATOM      1  C   UNL     1      17.324   2.416  42.004  0.00  0.00    +0.020 A 
ATOM      2  C   UNL     1      17.155   3.116  40.752  0.00  0.00    +0.013 A 
ATOM      3  C   UNL     1      17.268   4.568  40.689  0.00  0.00    +0.019 A 
ATOM     38  C   UNL     1      17.556   5.287  41.921  0.00  0.00    +0.120 A 
ATOM     39  N   UNL     1      17.712   4.586  43.112  0.00  0.00    -0.263 NA
ATOM     40  C   UNL     1      17.604   3.189  43.186  0.00  0.00    +0.111 A 
ENDBRANCH   4   3
ENDBRANCH  10   9
BRANCH  12  13
ATOM     13  N   UNL     1      12.304   9.552  34.743  0.00  0.00    -0.281 N 
ATOM     14  C   UNL     1      12.831  10.809  34.993  0.00  0.00    +0.248 C 
ATOM     30  O   UNL     1      13.947  11.012  35.448  0.00  0.00    -0.270 OA
ATOM     31  H   UNL     1      11.303   9.517  34.551  0.00  0.00    +0.155 HD
BRANCH  14  15
ATOM     15  C   UNL     1      11.993  12.013  34.711  0.00  0.00    +0.037 A 
ATOM     16  C   UNL     1      12.597  13.337  34.541  0.00  0.00    +0.013 A 
ATOM     17  C   UNL     1      11.763  14.485  34.286  0.00  0.00    +0.005 A 
ATOM     18  C   UNL     1      10.315  14.314  34.199  0.00  0.00    -0.033 A 
ATOM     28  C   UNL     1       9.743  12.988  34.366  0.00  0.00    +0.005 A 
ATOM     29  C   UNL     1      10.556  11.861  34.617  0.00  0.00    +0.013 A 
BRANCH  18  19
ATOM     19  C   UNL     1       9.348  15.486  33.951  0.00  0.00    +0.119 C 
BRANCH  19  20
ATOM     20  N   UNL     1       9.057  16.388  35.105  0.00  0.00    -0.302 NA
ATOM     21  C   UNL     1      10.313  17.115  35.596  0.00  0.00    +0.066 C 
ATOM     22  C   UNL     1       9.987  18.072  36.788  0.00  0.00    -0.064 C 
ATOM     23  N   UNL     1       9.347  17.269  37.923  0.00  0.00    +0.379 N 
ATOM     24  C   UNL     1       9.093  18.155  39.068  0.00  0.00    -0.096 C 
ATOM     25  H   UNL     1      10.084  16.498  38.248  0.00  0.00    -0.082 HD
ATOM     26  C   UNL     1       8.100  16.541  37.442  0.00  0.00    -0.064 C 
ATOM     27  C   UNL     1       8.429  15.615  36.238  0.00  0.00    +0.066 C 
ENDBRANCH  19  20
ENDBRANCH  18  19
ENDBRANCH  14  15
ENDBRANCH  12  13
TORSDOF 6
ENDMDL
