MODEL 1
REMARK VINA RESULT:     -11.0      0.000      0.000
REMARK  Name = C:\Users\Docking\Desktop\test protocol\1iep_ligandH.pdb
REMARK  8 active torsions:
REMARK  status: ('A' for Active; 'I' for Inactive)
REMARK    1  A    between atoms: _5  and  _11
REMARK    2  A    between atoms: _19  and  _21
REMARK    3  A    between atoms: _22  and  _66
REMARK    4  A    between atoms: _27  and  _30
REMARK    5  A    between atoms: _32  and  _33
REMARK    6  A    between atoms: _38  and  _43
REMARK    7  A    between atoms: _43  and  _46
REMARK    8  A    between atoms: _53  and  _55
REMARK                            x       y       z     vdW  Elec       q    Type
REMARK                         _______ _______ _______ _____ _____    ______ ____
ROOT
ATOM     10  C   UNL     1       6.785  10.051  32.611  0.00  0.00    +0.038 A 
ATOM     11  C   UNL     1       7.888   9.357  33.173  0.00  0.00    +0.047 A 
ATOM     12  C   UNL     1       9.234   9.906  33.109  0.00  0.00    +0.035 A 
ATOM     32  C   UNL     1       9.420  11.165  32.468  0.00  0.00    +0.024 A 
ATOM     33  C   UNL     1       8.311  11.884  31.891  0.00  0.00    +0.007 A 
ATOM     34  C   UNL     1       6.981  11.346  31.949  0.00  0.00    -0.029 A 
ATOM     35  C   UNL     1       5.831  12.157  31.308  0.00  0.00    +0.045 C 
ENDROOT
BRANCH  10   9
ATOM      4  C   UNL     1       3.140   7.529  30.771  0.00  0.00    +0.077 A 
ATOM      5  C   UNL     1       3.812   7.362  29.515  0.00  0.00    +0.048 A 
ATOM      6  C   UNL     1       5.091   7.947  29.381  0.00  0.00    +0.116 A 
ATOM      7  N   UNL     1       5.647   8.644  30.431  0.00  0.00    -0.223 NA
ATOM      8  C   UNL     1       4.971   8.788  31.629  0.00  0.00    +0.220 A 
ATOM      9  N   UNL     1       5.515   9.478  32.701  0.00  0.00    -0.283 N 
ATOM     36  H   UNL     1       4.981   9.568  33.566  0.00  0.00    +0.155 HD
ATOM     37  N   UNL     1       3.748   8.240  31.782  0.00  0.00    -0.214 NA
BRANCH   4   3
ATOM      1  C   UNL     1      -0.174   5.462  30.555  0.00  0.00    +0.020 A 
ATOM      2  C   UNL     1       1.136   5.972  30.223  0.00  0.00    +0.013 A 
ATOM      3  C   UNL     1       1.784   6.968  31.068  0.00  0.00    +0.019 A 
ATOM     38  C   UNL     1       1.073   7.428  32.251  0.00  0.00    +0.120 A 
ATOM     39  N   UNL     1      -0.188   6.920  32.545  0.00  0.00    -0.263 NA
ATOM     40  C   UNL     1      -0.822   5.963  31.738  0.00  0.00    +0.111 A 
ENDBRANCH   4   3
ENDBRANCH  10   9
BRANCH  12  13
ATOM     13  N   UNL     1      10.393   9.244  33.654  0.00  0.00    -0.281 N 
ATOM     14  C   UNL     1      10.915   9.355  34.932  0.00  0.00    +0.248 C 
ATOM     30  O   UNL     1      10.586  10.210  35.741  0.00  0.00    -0.270 OA
ATOM     31  H   UNL     1      10.888   8.616  33.020  0.00  0.00    +0.155 HD
BRANCH  14  15
ATOM     15  C   UNL     1      11.964   8.385  35.370  0.00  0.00    +0.037 A 
ATOM     16  C   UNL     1      11.816   6.947  35.135  0.00  0.00    +0.013 A 
ATOM     17  C   UNL     1      12.835   6.031  35.583  0.00  0.00    +0.005 A 
ATOM     18  C   UNL     1      14.013   6.553  36.271  0.00  0.00    -0.033 A 
ATOM     28  C   UNL     1      14.138   7.985  36.487  0.00  0.00    +0.005 A 
ATOM     29  C   UNL     1      13.140   8.885  36.050  0.00  0.00    +0.013 A 
BRANCH  18  19
ATOM     19  C   UNL     1      15.140   5.648  36.803  0.00  0.00    +0.119 C 
BRANCH  19  20
ATOM     20  N   UNL     1      15.652   5.928  38.177  0.00  0.00    -0.302 NA
ATOM     21  C   UNL     1      17.116   6.377  38.164  0.00  0.00    +0.066 C 
ATOM     22  C   UNL     1      17.629   6.689  39.608  0.00  0.00    -0.064 C 
ATOM     23  N   UNL     1      17.449   5.450  40.488  0.00  0.00    +0.379 N 
ATOM     24  C   UNL     1      17.984   5.721  41.831  0.00  0.00    -0.096 C 
ATOM     25  H   UNL     1      18.056   4.628  40.042  0.00  0.00    -0.082 HD
ATOM     26  C   UNL     1      15.997   4.995  40.504  0.00  0.00    -0.064 C 
ATOM     27  C   UNL     1      15.489   4.717  39.062  0.00  0.00    +0.066 C 
ENDBRANCH  19  20
ENDBRANCH  18  19
ENDBRANCH  14  15
ENDBRANCH  12  13
TORSDOF 6
ENDMDL
MODEL 2
REMARK VINA RESULT:     -10.6      3.079     13.892
REMARK  Name = C:\Users\Docking\Desktop\test protocol\1iep_ligandH.pdb
REMARK  8 active torsions:
REMARK  status: ('A' for Active; 'I' for Inactive)
REMARK    1  A    between atoms: _5  and  _11
REMARK    2  A    between atoms: _19  and  _21
REMARK    3  A    between atoms: _22  and  _66
REMARK    4  A    between atoms: _27  and  _30
REMARK    5  A    between atoms: _32  and  _33
REMARK    6  A    between atoms: _38  and  _43
REMARK    7  A    between atoms: _43  and  _46
REMARK    8  A    between atoms: _53  and  _55
REMARK                            x       y       z     vdW  Elec       q    Type
REMARK                         _______ _______ _______ _____ _____    ______ ____
ROOT
ATOM     10  C   UNL     1       7.132   9.555  31.854  0.00  0.00    +0.038 A 
ATOM     11  C   UNL     1       6.016   8.708  32.070  0.00  0.00    +0.047 A 
ATOM     12  C   UNL     1       4.871   8.728  31.172  0.00  0.00    +0.035 A 
ATOM     32  C   UNL     1       4.899   9.622  30.063  0.00  0.00    +0.024 A 
ATOM     33  C   UNL     1       6.025  10.491  29.829  0.00  0.00    +0.007 A 
ATOM     34  C   UNL     1       7.156  10.477  30.713  0.00  0.00    -0.029 A 
ATOM     35  C   UNL     1       8.333  11.436  30.417  0.00  0.00    +0.045 C 
ENDROOT
BRANCH  10   9
ATOM      4  C   UNL     1      11.254   7.639  33.397  0.00  0.00    +0.077 A 
ATOM      5  C   UNL     1      11.259   6.659  32.349  0.00  0.00    +0.048 A 
ATOM      6  C   UNL     1      10.179   6.677  31.439  0.00  0.00    +0.116 A 
ATOM      7  N   UNL     1       9.174   7.611  31.575  0.00  0.00    -0.223 NA
ATOM      8  C   UNL     1       9.199   8.541  32.597  0.00  0.00    +0.220 A 
ATOM      9  N   UNL     1       8.204   9.495  32.748  0.00  0.00    -0.283 N 
ATOM     36  H   UNL     1       8.255  10.159  33.520  0.00  0.00    +0.155 HD
ATOM     37  N   UNL     1      10.219   8.544  33.481  0.00  0.00    -0.214 NA
BRANCH   4   3
ATOM      1  C   UNL     1      14.203   6.791  35.822  0.00  0.00    +0.020 A 
ATOM      2  C   UNL     1      13.181   6.631  34.814  0.00  0.00    +0.013 A 
ATOM      3  C   UNL     1      12.328   7.750  34.434  0.00  0.00    +0.019 A 
ATOM     38  C   UNL     1      12.537   9.028  35.098  0.00  0.00    +0.120 A 
ATOM     39  N   UNL     1      13.529   9.152  36.066  0.00  0.00    -0.263 NA
ATOM     40  C   UNL     1      14.355   8.082  36.441  0.00  0.00    +0.111 A 
ENDBRANCH   4   3
ENDBRANCH  10   9
BRANCH  12  13
ATOM     13  N   UNL     1       3.706   7.896  31.345  0.00  0.00    -0.281 N 
ATOM     14  C   UNL     1       2.562   8.175  32.075  0.00  0.00    +0.248 C 
ATOM     30  O   UNL     1       2.456   9.098  32.869  0.00  0.00    -0.270 OA
ATOM     31  H   UNL     1       3.727   6.993  30.872  0.00  0.00    +0.155 HD
BRANCH  14  15
ATOM     15  C   UNL     1       1.367   7.292  31.910  0.00  0.00    +0.037 A 
ATOM     16  C   UNL     1       0.382   7.138  32.983  0.00  0.00    +0.013 A 
ATOM     17  C   UNL     1      -0.753   6.267  32.804  0.00  0.00    +0.005 A 
ATOM     18  C   UNL     1      -0.907   5.543  31.544  0.00  0.00    -0.033 A 
ATOM     28  C   UNL     1       0.083   5.718  30.495  0.00  0.00    +0.005 A 
ATOM     29  C   UNL     1       1.196   6.570  30.667  0.00  0.00    +0.013 A 
BRANCH  18  19
ATOM     19  C   UNL     1      -2.075   4.576  31.274  0.00  0.00    +0.119 C 
BRANCH  19  20
ATOM     20  N   UNL     1      -3.452   5.154  31.257  0.00  0.00    -0.302 NA
ATOM     21  C   UNL     1      -4.512   4.127  31.666  0.00  0.00    +0.066 C 
ATOM     22  C   UNL     1      -5.943   4.755  31.665  0.00  0.00    -0.064 C 
ATOM     23  N   UNL     1      -6.247   5.322  30.277  0.00  0.00    +0.379 N 
ATOM     24  C   UNL     1      -7.614   5.862  30.256  0.00  0.00    -0.096 C 
ATOM     25  H   UNL     1      -6.205   4.478  29.550  0.00  0.00    -0.082 HD
ATOM     26  C   UNL     1      -5.197   6.342  29.861  0.00  0.00    -0.064 C 
ATOM     27  C   UNL     1      -3.774   5.717  29.894  0.00  0.00    +0.066 C 
ENDBRANCH  19  20
ENDBRANCH  18  19
ENDBRANCH  14  15
ENDBRANCH  12  13
TORSDOF 6
ENDMDL
MODEL 3
REMARK VINA RESULT:     -10.3      3.292     13.666
REMARK  Name = C:\Users\Docking\Desktop\test protocol\1iep_ligandH.pdb
REMARK  8 active torsions:
REMARK  status: ('A' for Active; 'I' for Inactive)
REMARK    1  A    between atoms: _5  and  _11
REMARK    2  A    between atoms: _19  and  _21
REMARK    3  A    between atoms: _22  and  _66
REMARK    4  A    between atoms: _27  and  _30
REMARK    5  A    between atoms: _32  and  _33
REMARK    6  A    between atoms: _38  and  _43
REMARK    7  A    between atoms: _43  and  _46
REMARK    8  A    between atoms: _53  and  _55
REMARK                            x       y       z     vdW  Elec       q    Type
REMARK                         _______ _______ _______ _____ _____    ______ ____
ROOT
ATOM     10  C   UNL     1       7.453   9.417  31.290  0.00  0.00    +0.038 A 
ATOM     11  C   UNL     1       6.202   8.763  31.427  0.00  0.00    +0.047 A 
ATOM     12  C   UNL     1       4.956   9.449  31.122  0.00  0.00    +0.035 A 
ATOM     32  C   UNL     1       5.022  10.802  30.677  0.00  0.00    +0.024 A 
ATOM     33  C   UNL     1       6.285  11.483  30.533  0.00  0.00    +0.007 A 
ATOM     34  C   UNL     1       7.516  10.811  30.835  0.00  0.00    -0.029 A 
ATOM     35  C   UNL     1       8.841  11.593  30.669  0.00  0.00    +0.045 C 
ENDROOT
BRANCH  10   9
ATOM      4  C   UNL     1      10.793   7.902  34.386  0.00  0.00    +0.077 A 
ATOM      5  C   UNL     1      10.181   8.600  35.479  0.00  0.00    +0.048 A 
ATOM      6  C   UNL     1       9.012   9.343  35.202  0.00  0.00    +0.116 A 
ATOM      7  N   UNL     1       8.502   9.378  33.922  0.00  0.00    -0.223 NA
ATOM      8  C   UNL     1       9.118   8.695  32.890  0.00  0.00    +0.220 A 
ATOM      9  N   UNL     1       8.618   8.710  31.597  0.00  0.00    -0.283 N 
ATOM     36  H   UNL     1       9.106   8.200  30.861  0.00  0.00    +0.155 HD
ATOM     37  N   UNL     1      10.237   7.980  33.129  0.00  0.00    -0.214 NA
BRANCH   4   3
ATOM      1  C   UNL     1      13.647   5.667  35.855  0.00  0.00    +0.020 A 
ATOM      2  C   UNL     1      12.442   6.460  35.778  0.00  0.00    +0.013 A 
ATOM      3  C   UNL     1      12.032   7.072  34.521  0.00  0.00    +0.019 A 
ATOM     38  C   UNL     1      12.869   6.858  33.349  0.00  0.00    +0.120 A 
ATOM     39  N   UNL     1      14.024   6.090  33.454  0.00  0.00    -0.263 NA
ATOM     40  C   UNL     1      14.430   5.498  34.659  0.00  0.00    +0.111 A 
ENDBRANCH   4   3
ENDBRANCH  10   9
BRANCH  12  13
ATOM     13  N   UNL     1       3.656   8.839  31.249  0.00  0.00    -0.281 N 
ATOM     14  C   UNL     1       3.067   7.906  30.411  0.00  0.00    +0.248 C 
ATOM     30  O   UNL     1       3.486   7.613  29.301  0.00  0.00    -0.270 OA
ATOM     31  H   UNL     1       3.103   9.129  32.056  0.00  0.00    +0.155 HD
BRANCH  14  15
ATOM     15  C   UNL     1       1.826   7.209  30.866  0.00  0.00    +0.037 A 
ATOM     16  C   UNL     1       1.273   6.077  30.117  0.00  0.00    +0.013 A 
ATOM     17  C   UNL     1       0.064   5.434  30.569  0.00  0.00    +0.005 A 
ATOM     18  C   UNL     1      -0.598   5.920  31.777  0.00  0.00    -0.033 A 
ATOM     28  C   UNL     1      -0.024   7.041  32.503  0.00  0.00    +0.005 A 
ATOM     29  C   UNL     1       1.159   7.675  32.063  0.00  0.00    +0.013 A 
BRANCH  18  19
ATOM     19  C   UNL     1      -1.903   5.307  32.319  0.00  0.00    +0.119 C 
BRANCH  19  20
ATOM     20  N   UNL     1      -2.960   4.958  31.324  0.00  0.00    -0.302 NA
ATOM     21  C   UNL     1      -3.222   6.101  30.339  0.00  0.00    +0.066 C 
ATOM     22  C   UNL     1      -4.314   5.710  29.292  0.00  0.00    -0.064 C 
ATOM     23  N   UNL     1      -5.600   5.319  30.022  0.00  0.00    +0.379 N 
ATOM     24  C   UNL     1      -6.648   5.007  29.038  0.00  0.00    -0.096 C 
ATOM     25  H   UNL     1      -5.939   6.205  30.607  0.00  0.00    -0.082 HD
ATOM     26  C   UNL     1      -5.349   4.185  31.005  0.00  0.00    -0.064 C 
ATOM     27  C   UNL     1      -4.240   4.572  32.023  0.00  0.00    +0.066 C 
ENDBRANCH  19  20
ENDBRANCH  18  19
ENDBRANCH  14  15
ENDBRANCH  12  13
TORSDOF 6
ENDMDL
MODEL 4
REMARK VINA RESULT:      -9.2     11.267     14.202
REMARK  Name = C:\Users\Docking\Desktop\test protocol\1iep_ligandH.pdb
REMARK  8 active torsions:
REMARK  status: ('A' for Active; 'I' for Inactive)
REMARK    1  A    between atoms: _5  and  _11
REMARK    2  A    between atoms: _19  and  _21
REMARK    3  A    between atoms: _22  and  _66
REMARK    4  A    between atoms: _27  and  _30
REMARK    5  A    between atoms: _32  and  _33
REMARK    6  A    between atoms: _38  and  _43
REMARK    7  A    between atoms: _43  and  _46
REMARK    8  A    between atoms: _53  and  _55
REMARK                            x       y       z     vdW  Elec       q    Type
REMARK                         _______ _______ _______ _____ _____    ______ ____
ROOT
ATOM     10  C   UNL     1       5.851  12.732  44.762  0.00  0.00    +0.038 A 
ATOM     11  C   UNL     1       5.508  12.218  43.486  0.00  0.00    +0.047 A 
ATOM     12  C   UNL     1       6.529  11.919  42.495  0.00  0.00    +0.035 A 
ATOM     32  C   UNL     1       7.893  12.153  42.838  0.00  0.00    +0.024 A 
ATOM     33  C   UNL     1       8.260  12.675  44.131  0.00  0.00    +0.007 A 
ATOM     34  C   UNL     1       7.256  12.975  45.112  0.00  0.00    -0.029 A 
ATOM     35  C   UNL     1       7.707  13.540  46.479  0.00  0.00    +0.045 C 
ENDROOT
BRANCH  10   9
ATOM      4  C   UNL     1       3.121  11.551  48.529  0.00  0.00    +0.077 A 
ATOM      5  C   UNL     1       3.767  10.278  48.673  0.00  0.00    +0.048 A 
ATOM      6  C   UNL     1       4.792   9.962  47.753  0.00  0.00    +0.116 A 
ATOM      7  N   UNL     1       5.137  10.861  46.767  0.00  0.00    -0.223 NA
ATOM      8  C   UNL     1       4.493  12.079  46.655  0.00  0.00    +0.220 A 
ATOM      9  N   UNL     1       4.830  13.001  45.675  0.00  0.00    -0.283 N 
ATOM     36  H   UNL     1       4.326  13.886  45.621  0.00  0.00    +0.155 HD
ATOM     37  N   UNL     1       3.510  12.403  47.520  0.00  0.00    -0.214 NA
BRANCH   4   3
ATOM      1  C   UNL     1       0.862  12.172  51.661  0.00  0.00    +0.020 A 
ATOM      2  C   UNL     1       1.945  11.683  50.839  0.00  0.00    +0.013 A 
ATOM      3  C   UNL     1       2.022  12.030  49.425  0.00  0.00    +0.019 A 
ATOM     38  C   UNL     1       0.980  12.881  48.871  0.00  0.00    +0.120 A 
ATOM     39  N   UNL     1      -0.051  13.336  49.687  0.00  0.00    -0.263 NA
ATOM     40  C   UNL     1      -0.136  13.008  51.048  0.00  0.00    +0.111 A 
ENDBRANCH   4   3
ENDBRANCH  10   9
BRANCH  12  13
ATOM     13  N   UNL     1       6.240  11.403  41.180  0.00  0.00    -0.281 N 
ATOM     14  C   UNL     1       6.139  12.108  39.991  0.00  0.00    +0.248 C 
ATOM     30  O   UNL     1       6.073  13.326  39.914  0.00  0.00    -0.270 OA
ATOM     31  H   UNL     1       6.091  10.396  41.117  0.00  0.00    +0.155 HD
BRANCH  14  15
ATOM     15  C   UNL     1       6.092  11.351  38.704  0.00  0.00    +0.037 A 
ATOM     16  C   UNL     1       4.927  10.538  38.343  0.00  0.00    +0.013 A 
ATOM     17  C   UNL     1       4.914   9.804  37.103  0.00  0.00    +0.005 A 
ATOM     18  C   UNL     1       6.071   9.880  36.213  0.00  0.00    -0.033 A 
ATOM     28  C   UNL     1       7.211  10.697  36.594  0.00  0.00    +0.005 A 
ATOM     29  C   UNL     1       7.227  11.418  37.809  0.00  0.00    +0.013 A 
BRANCH  18  19
ATOM     19  C   UNL     1       6.152   9.113  34.880  0.00  0.00    +0.119 C 
BRANCH  19  20
ATOM     20  N   UNL     1       6.389   9.915  33.643  0.00  0.00    -0.302 NA
ATOM     21  C   UNL     1       5.155   9.952  32.737  0.00  0.00    +0.066 C 
ATOM     22  C   UNL     1       5.412  10.814  31.459  0.00  0.00    -0.064 C 
ATOM     23  N   UNL     1       6.620  10.255  30.705  0.00  0.00    +0.379 N 
ATOM     24  C   UNL     1       6.830  11.028  29.472  0.00  0.00    -0.096 C 
ATOM     25  H   UNL     1       6.380   9.207  30.411  0.00  0.00    -0.082 HD
ATOM     26  C   UNL     1       7.851  10.212  31.599  0.00  0.00    -0.064 C 
ATOM     27  C   UNL     1       7.575   9.378  32.881  0.00  0.00    +0.066 C 
ENDBRANCH  19  20
ENDBRANCH  18  19
ENDBRANCH  14  15
ENDBRANCH  12  13
TORSDOF 6
ENDMDL
MODEL 5
REMARK VINA RESULT:      -9.2      7.861      9.630
REMARK  Name = C:\Users\Docking\Desktop\test protocol\1iep_ligandH.pdb
REMARK  8 active torsions:
REMARK  status: ('A' for Active; 'I' for Inactive)
REMARK    1  A    between atoms: _5  and  _11
REMARK    2  A    between atoms: _19  and  _21
REMARK    3  A    between atoms: _22  and  _66
REMARK    4  A    between atoms: _27  and  _30
REMARK    5  A    between atoms: _32  and  _33
REMARK    6  A    between atoms: _38  and  _43
REMARK    7  A    between atoms: _43  and  _46
REMARK    8  A    between atoms: _53  and  _55
REMARK                            x       y       z     vdW  Elec       q    Type
REMARK                         _______ _______ _______ _____ _____    ______ ____
ROOT
ATOM     10  C   UNL     1       6.226   9.681  36.595  0.00  0.00    +0.038 A 
ATOM     11  C   UNL     1       6.732  10.219  37.806  0.00  0.00    +0.047 A 
ATOM     12  C   UNL     1       5.925  11.102  38.632  0.00  0.00    +0.035 A 
ATOM     32  C   UNL     1       4.604  11.415  38.196  0.00  0.00    +0.024 A 
ATOM     33  C   UNL     1       4.074  10.878  36.968  0.00  0.00    +0.007 A 
ATOM     34  C   UNL     1       4.867  10.008  36.147  0.00  0.00    -0.029 A 
ATOM     35  C   UNL     1       4.250   9.466  34.837  0.00  0.00    +0.045 C 
ENDROOT
BRANCH  10   9
ATOM      4  C   UNL     1       9.380   8.891  33.064  0.00  0.00    +0.077 A 
ATOM      5  C   UNL     1       9.376  10.271  32.672  0.00  0.00    +0.048 A 
ATOM      6  C   UNL     1       8.543  11.150  33.400  0.00  0.00    +0.116 A 
ATOM      7  N   UNL     1       7.776  10.674  34.441  0.00  0.00    -0.223 NA
ATOM      8  C   UNL     1       7.802   9.337  34.792  0.00  0.00    +0.220 A 
ATOM      9  N   UNL     1       7.045   8.837  35.840  0.00  0.00    -0.283 N 
ATOM     36  H   UNL     1       7.087   7.843  36.064  0.00  0.00    +0.155 HD
ATOM     37  N   UNL     1       8.588   8.477  34.111  0.00  0.00    -0.214 NA
BRANCH   4   3
ATOM      1  C   UNL     1      10.560   6.025  30.678  0.00  0.00    +0.020 A 
ATOM      2  C   UNL     1       9.717   7.026  31.290  0.00  0.00    +0.013 A 
ATOM      3  C   UNL     1      10.210   7.841  32.394  0.00  0.00    +0.019 A 
ATOM     38  C   UNL     1      11.571   7.616  32.857  0.00  0.00    +0.120 A 
ATOM     39  N   UNL     1      12.359   6.644  32.249  0.00  0.00    -0.263 NA
ATOM     40  C   UNL     1      11.895   5.853  31.187  0.00  0.00    +0.111 A 
ENDBRANCH   4   3
ENDBRANCH  10   9
BRANCH  12  13
ATOM     13  N   UNL     1       6.388  11.685  39.867  0.00  0.00    -0.281 N 
ATOM     14  C   UNL     1       5.737  11.721  41.089  0.00  0.00    +0.248 C 
ATOM     30  O   UNL     1       4.558  11.442  41.252  0.00  0.00    -0.270 OA
ATOM     31  H   UNL     1       7.308  12.125  39.836  0.00  0.00    +0.155 HD
BRANCH  14  15
ATOM     15  C   UNL     1       6.501  12.140  42.303  0.00  0.00    +0.037 A 
ATOM     16  C   UNL     1       5.831  12.770  43.443  0.00  0.00    +0.013 A 
ATOM     17  C   UNL     1       6.594  13.181  44.595  0.00  0.00    +0.005 A 
ATOM     18  C   UNL     1       8.038  12.961  44.612  0.00  0.00    -0.033 A 
ATOM     28  C   UNL     1       8.677  12.329  43.469  0.00  0.00    +0.005 A 
ATOM     29  C   UNL     1       7.932  11.926  42.338  0.00  0.00    +0.013 A 
BRANCH  18  19
ATOM     19  C   UNL     1       8.935  13.386  45.789  0.00  0.00    +0.119 C 
BRANCH  19  20
ATOM     20  N   UNL     1       9.218  12.361  46.838  0.00  0.00    -0.302 NA
ATOM     21  C   UNL     1       8.189  12.399  47.971  0.00  0.00    +0.066 C 
ATOM     22  C   UNL     1       8.487  11.306  49.048  0.00  0.00    -0.064 C 
ATOM     23  N   UNL     1       9.902  11.505  49.595  0.00  0.00    +0.379 N 
ATOM     24  C   UNL     1      10.164  10.514  50.649  0.00  0.00    -0.096 C 
ATOM     25  H   UNL     1       9.944  12.516  50.062  0.00  0.00    -0.082 HD
ATOM     26  C   UNL     1      10.931  11.471  48.474  0.00  0.00    -0.064 C 
ATOM     27  C   UNL     1      10.609  12.542  47.395  0.00  0.00    +0.066 C 
ENDBRANCH  19  20
ENDBRANCH  18  19
ENDBRANCH  14  15
ENDBRANCH  12  13
TORSDOF 6
ENDMDL
