MODEL 1
REMARK VINA RESULT:      -9.9      0.000      0.000
REMARK  Name = C:\Users\Docking\Desktop\test protocol\1iep_ligandH.pdb
REMARK  8 active torsions:
REMARK  status: ('A' for Active; 'I' for Inactive)
REMARK    1  A    between atoms: _5  and  _11
REMARK    2  A    between atoms: _19  and  _21
REMARK    3  A    between atoms: _22  and  _66
REMARK    4  A    between atoms: _27  and  _30
REMARK    5  A    between atoms: _32  and  _33
REMARK    6  A    between atoms: _38  and  _43
REMARK    7  A    between atoms: _43  and  _46
REMARK    8  A    between atoms: _53  and  _55
REMARK                            x       y       z     vdW  Elec       q    Type
REMARK                         _______ _______ _______ _____ _____    ______ ____
ROOT
ATOM     10  C   UNL     1       1.779  11.097  28.013  0.00  0.00    +0.038 A 
ATOM     11  C   UNL     1       2.523  11.955  28.862  0.00  0.00    +0.047 A 
ATOM     12  C   UNL     1       2.527  11.768  30.304  0.00  0.00    +0.035 A 
ATOM     32  C   UNL     1       1.765  10.693  30.848  0.00  0.00    +0.024 A 
ATOM     33  C   UNL     1       1.003   9.811  30.000  0.00  0.00    +0.007 A 
ATOM     34  C   UNL     1       0.993   9.993  28.576  0.00  0.00    -0.029 A 
ATOM     35  C   UNL     1       0.152   9.021  27.716  0.00  0.00    +0.045 C 
ENDROOT
BRANCH  10   9
ATOM      4  C   UNL     1       0.762  13.730  24.131  0.00  0.00    +0.077 A 
ATOM      5  C   UNL     1       0.088  14.728  24.911  0.00  0.00    +0.048 A 
ATOM      6  C   UNL     1       0.018  14.521  26.308  0.00  0.00    +0.116 A 
ATOM      7  N   UNL     1       0.585  13.398  26.870  0.00  0.00    -0.223 NA
ATOM      8  C   UNL     1       1.227  12.455  26.089  0.00  0.00    +0.220 A 
ATOM      9  N   UNL     1       1.811  11.323  26.635  0.00  0.00    -0.283 N 
ATOM     36  H   UNL     1       2.268  10.647  26.023  0.00  0.00    +0.155 HD
ATOM     37  N   UNL     1       1.305  12.628  24.753  0.00  0.00    -0.214 NA
BRANCH   4   3
ATOM      1  C   UNL     1       0.096  13.460  20.286  0.00  0.00    +0.020 A 
ATOM      2  C   UNL     1      -0.108  13.363  21.713  0.00  0.00    +0.013 A 
ATOM      3  C   UNL     1       0.921  13.808  22.644  0.00  0.00    +0.019 A 
ATOM     38  C   UNL     1       2.154  14.351  22.095  0.00  0.00    +0.120 A 
ATOM     39  N   UNL     1       2.323  14.431  20.716  0.00  0.00    -0.263 NA
ATOM     40  C   UNL     1       1.340  14.005  19.810  0.00  0.00    +0.111 A 
ENDBRANCH   4   3
ENDBRANCH  10   9
BRANCH  12  13
ATOM     13  N   UNL     1       3.256  12.613  31.217  0.00  0.00    -0.281 N 
ATOM     14  C   UNL     1       4.555  12.453  31.673  0.00  0.00    +0.248 C 
ATOM     30  O   UNL     1       5.217  11.436  31.530  0.00  0.00    -0.270 OA
ATOM     31  H   UNL     1       2.754  13.428  31.570  0.00  0.00    +0.155 HD
BRANCH  14  15
ATOM     15  C   UNL     1       5.206  13.581  32.407  0.00  0.00    +0.037 A 
ATOM     16  C   UNL     1       6.663  13.739  32.418  0.00  0.00    +0.013 A 
ATOM     17  C   UNL     1       7.266  14.826  33.148  0.00  0.00    +0.005 A 
ATOM     18  C   UNL     1       6.412  15.764  33.872  0.00  0.00    -0.033 A 
ATOM     28  C   UNL     1       4.970  15.587  33.839  0.00  0.00    +0.005 A 
ATOM     29  C   UNL     1       4.375  14.522  33.126  0.00  0.00    +0.013 A 
BRANCH  18  19
ATOM     19  C   UNL     1       6.971  16.941  34.694  0.00  0.00    +0.119 C 
BRANCH  19  20
ATOM     20  N   UNL     1       6.020  17.656  35.596  0.00  0.00    -0.302 NA
ATOM     21  C   UNL     1       6.390  19.133  35.766  0.00  0.00    +0.066 C 
ATOM     22  C   UNL     1       5.373  19.872  36.695  0.00  0.00    -0.064 C 
ATOM     23  N   UNL     1       5.320  19.167  38.052  0.00  0.00    +0.379 N 
ATOM     24  C   UNL     1       4.408  19.893  38.947  0.00  0.00    -0.096 C 
ATOM     25  H   UNL     1       6.341  19.215  38.497  0.00  0.00    -0.082 HD
ATOM     26  C   UNL     1       4.956  17.698  37.892  0.00  0.00    -0.064 C 
ATOM     27  C   UNL     1       5.956  16.980  36.944  0.00  0.00    +0.066 C 
ENDBRANCH  19  20
ENDBRANCH  18  19
ENDBRANCH  14  15
ENDBRANCH  12  13
TORSDOF 6
ENDMDL
MODEL 2
REMARK VINA RESULT:      -8.9     16.847     20.349
REMARK  Name = C:\Users\Docking\Desktop\test protocol\1iep_ligandH.pdb
REMARK  8 active torsions:
REMARK  status: ('A' for Active; 'I' for Inactive)
REMARK    1  A    between atoms: _5  and  _11
REMARK    2  A    between atoms: _19  and  _21
REMARK    3  A    between atoms: _22  and  _66
REMARK    4  A    between atoms: _27  and  _30
REMARK    5  A    between atoms: _32  and  _33
REMARK    6  A    between atoms: _38  and  _43
REMARK    7  A    between atoms: _43  and  _46
REMARK    8  A    between atoms: _53  and  _55
REMARK                            x       y       z     vdW  Elec       q    Type
REMARK                         _______ _______ _______ _____ _____    ______ ____
ROOT
ATOM     10  C   UNL     1      -0.453  24.022  44.412  0.00  0.00    +0.038 A 
ATOM     11  C   UNL     1       0.623  24.808  44.898  0.00  0.00    +0.047 A 
ATOM     12  C   UNL     1       0.894  26.130  44.356  0.00  0.00    +0.035 A 
ATOM     32  C   UNL     1       0.047  26.623  43.321  0.00  0.00    +0.024 A 
ATOM     33  C   UNL     1      -1.050  25.837  42.814  0.00  0.00    +0.007 A 
ATOM     34  C   UNL     1      -1.322  24.531  43.343  0.00  0.00    -0.029 A 
ATOM     35  C   UNL     1      -2.508  23.731  42.758  0.00  0.00    +0.045 C 
ENDROOT
BRANCH  10   9
ATOM      4  C   UNL     1       0.630  19.372  44.902  0.00  0.00    +0.077 A 
ATOM      5  C   UNL     1       1.698  19.460  43.948  0.00  0.00    +0.048 A 
ATOM      6  C   UNL     1       1.931  20.718  43.348  0.00  0.00    +0.116 A 
ATOM      7  N   UNL     1       1.149  21.801  43.686  0.00  0.00    -0.223 NA
ATOM      8  C   UNL     1       0.126  21.682  44.609  0.00  0.00    +0.220 A 
ATOM      9  N   UNL     1      -0.669  22.759  44.969  0.00  0.00    -0.283 N 
ATOM     36  H   UNL     1      -1.418  22.629  45.648  0.00  0.00    +0.155 HD
ATOM     37  N   UNL     1      -0.118  20.491  45.194  0.00  0.00    -0.214 NA
BRANCH   4   3
ATOM      1  C   UNL     1       0.503  15.642  46.072  0.00  0.00    +0.020 A 
ATOM      2  C   UNL     1       0.895  16.828  45.347  0.00  0.00    +0.013 A 
ATOM      3  C   UNL     1       0.262  18.112  45.622  0.00  0.00    +0.019 A 
ATOM     38  C   UNL     1      -0.770  18.162  46.647  0.00  0.00    +0.120 A 
ATOM     39  N   UNL     1      -1.127  17.002  47.328  0.00  0.00    -0.263 NA
ATOM     40  C   UNL     1      -0.527  15.761  47.070  0.00  0.00    +0.111 A 
ENDBRANCH   4   3
ENDBRANCH  10   9
BRANCH  12  13
ATOM     13  N   UNL     1       1.977  26.970  44.804  0.00  0.00    -0.281 N 
ATOM     14  C   UNL     1       2.374  27.225  46.107  0.00  0.00    +0.248 C 
ATOM     30  O   UNL     1       1.719  26.937  47.098  0.00  0.00    -0.270 OA
ATOM     31  H   UNL     1       2.517  27.431  44.073  0.00  0.00    +0.155 HD
BRANCH  14  15
ATOM     15  C   UNL     1       3.680  27.913  46.342  0.00  0.00    +0.037 A 
ATOM     16  C   UNL     1       4.251  28.021  47.687  0.00  0.00    +0.013 A 
ATOM     17  C   UNL     1       5.504  28.704  47.889  0.00  0.00    +0.005 A 
ATOM     18  C   UNL     1       6.195  29.285  46.741  0.00  0.00    -0.033 A 
ATOM     28  C   UNL     1       5.609  29.160  45.416  0.00  0.00    +0.005 A 
ATOM     29  C   UNL     1       4.380  28.491  45.215  0.00  0.00    +0.013 A 
BRANCH  18  19
ATOM     19  C   UNL     1       7.526  30.051  46.865  0.00  0.00    +0.119 C 
BRANCH  19  20
ATOM     20  N   UNL     1       8.726  29.271  47.291  0.00  0.00    -0.302 NA
ATOM     21  C   UNL     1       8.766  27.882  46.647  0.00  0.00    +0.066 C 
ATOM     22  C   UNL     1      10.040  27.088  47.086  0.00  0.00    -0.064 C 
ATOM     23  N   UNL     1      10.070  26.979  48.611  0.00  0.00    +0.379 N 
ATOM     24  C   UNL     1      11.235  26.184  49.024  0.00  0.00    -0.096 C 
ATOM     25  H   UNL     1       9.154  26.428  48.929  0.00  0.00    -0.082 HD
ATOM     26  C   UNL     1      10.027  28.356  49.259  0.00  0.00    -0.064 C 
ATOM     27  C   UNL     1       8.773  29.147  48.794  0.00  0.00    +0.066 C 
ENDBRANCH  19  20
ENDBRANCH  18  19
ENDBRANCH  14  15
ENDBRANCH  12  13
TORSDOF 6
ENDMDL
MODEL 3
REMARK VINA RESULT:      -8.6     15.768     19.469
REMARK  Name = C:\Users\Docking\Desktop\test protocol\1iep_ligandH.pdb
REMARK  8 active torsions:
REMARK  status: ('A' for Active; 'I' for Inactive)
REMARK    1  A    between atoms: _5  and  _11
REMARK    2  A    between atoms: _19  and  _21
REMARK    3  A    between atoms: _22  and  _66
REMARK    4  A    between atoms: _27  and  _30
REMARK    5  A    between atoms: _32  and  _33
REMARK    6  A    between atoms: _38  and  _43
REMARK    7  A    between atoms: _43  and  _46
REMARK    8  A    between atoms: _53  and  _55
REMARK                            x       y       z     vdW  Elec       q    Type
REMARK                         _______ _______ _______ _____ _____    ______ ____
ROOT
ATOM     10  C   UNL     1      -0.471  22.657  44.017  0.00  0.00    +0.038 A 
ATOM     11  C   UNL     1       0.494  23.590  44.476  0.00  0.00    +0.047 A 
ATOM     12  C   UNL     1       0.460  24.980  44.050  0.00  0.00    +0.035 A 
ATOM     32  C   UNL     1      -0.573  25.387  43.157  0.00  0.00    +0.024 A 
ATOM     33  C   UNL     1      -1.562  24.453  42.680  0.00  0.00    +0.007 A 
ATOM     34  C   UNL     1      -1.532  23.080  43.095  0.00  0.00    -0.029 A 
ATOM     35  C   UNL     1      -2.614  22.120  42.546  0.00  0.00    +0.045 C 
ENDROOT
BRANCH  10   9
ATOM      4  C   UNL     1       1.501  18.282  43.942  0.00  0.00    +0.077 A 
ATOM      5  C   UNL     1       2.433  18.655  42.917  0.00  0.00    +0.048 A 
ATOM      6  C   UNL     1       2.367  19.980  42.431  0.00  0.00    +0.116 A 
ATOM      7  N   UNL     1       1.435  20.859  42.940  0.00  0.00    -0.223 NA
ATOM      8  C   UNL     1       0.550  20.466  43.927  0.00  0.00    +0.220 A 
ATOM      9  N   UNL     1      -0.391  21.335  44.459  0.00  0.00    -0.283 N 
ATOM     36  H   UNL     1      -1.031  21.005  45.181  0.00  0.00    +0.155 HD
ATOM     37  N   UNL     1       0.591  19.206  44.407  0.00  0.00    -0.214 NA
BRANCH   4   3
ATOM      1  C   UNL     1       2.520  14.766  45.319  0.00  0.00    +0.020 A 
ATOM      2  C   UNL     1       2.626  16.074  44.716  0.00  0.00    +0.013 A 
ATOM      3  C   UNL     1       1.448  16.919  44.559  0.00  0.00    +0.019 A 
ATOM     38  C   UNL     1       0.170  16.407  45.028  0.00  0.00    +0.120 A 
ATOM     39  N   UNL     1       0.099  15.142  45.604  0.00  0.00    -0.263 NA
ATOM     40  C   UNL     1       1.225  14.319  45.758  0.00  0.00    +0.111 A 
ENDBRANCH   4   3
ENDBRANCH  10   9
BRANCH  12  13
ATOM     13  N   UNL     1       1.418  25.970  44.477  0.00  0.00    -0.281 N 
ATOM     14  C   UNL     1       1.616  26.468  45.754  0.00  0.00    +0.248 C 
ATOM     30  O   UNL     1       0.852  26.293  46.691  0.00  0.00    -0.270 OA
ATOM     31  H   UNL     1       2.023  26.349  43.748  0.00  0.00    +0.155 HD
BRANCH  14  15
ATOM     15  C   UNL     1       2.833  27.292  46.026  0.00  0.00    +0.037 A 
ATOM     16  C   UNL     1       3.418  27.363  47.368  0.00  0.00    +0.013 A 
ATOM     17  C   UNL     1       4.582  28.180  47.607  0.00  0.00    +0.005 A 
ATOM     18  C   UNL     1       5.169  28.931  46.500  0.00  0.00    -0.033 A 
ATOM     28  C   UNL     1       4.572  28.839  45.179  0.00  0.00    +0.005 A 
ATOM     29  C   UNL     1       3.430  28.040  44.941  0.00  0.00    +0.013 A 
BRANCH  18  19
ATOM     19  C   UNL     1       6.398  29.844  46.668  0.00  0.00    +0.119 C 
BRANCH  19  20
ATOM     20  N   UNL     1       7.700  29.186  46.990  0.00  0.00    -0.302 NA
ATOM     21  C   UNL     1       7.735  27.726  46.528  0.00  0.00    +0.066 C 
ATOM     22  C   UNL     1       9.112  27.060  46.852  0.00  0.00    -0.064 C 
ATOM     23  N   UNL     1       9.383  27.160  48.354  0.00  0.00    +0.379 N 
ATOM     24  C   UNL     1      10.649  26.483  48.670  0.00  0.00    -0.096 C 
ATOM     25  H   UNL     1       8.567  26.614  48.882  0.00  0.00    -0.082 HD
ATOM     26  C   UNL     1       9.347  28.608  48.822  0.00  0.00    -0.064 C 
ATOM     27  C   UNL     1       7.986  29.269  48.469  0.00  0.00    +0.066 C 
ENDBRANCH  19  20
ENDBRANCH  18  19
ENDBRANCH  14  15
ENDBRANCH  12  13
TORSDOF 6
ENDMDL
MODEL 4
REMARK VINA RESULT:      -8.5     16.968     20.518
REMARK  Name = C:\Users\Docking\Desktop\test protocol\1iep_ligandH.pdb
REMARK  8 active torsions:
REMARK  status: ('A' for Active; 'I' for Inactive)
REMARK    1  A    between atoms: _5  and  _11
REMARK    2  A    between atoms: _19  and  _21
REMARK    3  A    between atoms: _22  and  _66
REMARK    4  A    between atoms: _27  and  _30
REMARK    5  A    between atoms: _32  and  _33
REMARK    6  A    between atoms: _38  and  _43
REMARK    7  A    between atoms: _43  and  _46
REMARK    8  A    between atoms: _53  and  _55
REMARK                            x       y       z     vdW  Elec       q    Type
REMARK                         _______ _______ _______ _____ _____    ______ ____
ROOT
ATOM     10  C   UNL     1      -0.821  23.898  44.470  0.00  0.00    +0.038 A 
ATOM     11  C   UNL     1       0.357  24.580  44.866  0.00  0.00    +0.047 A 
ATOM     12  C   UNL     1       0.617  25.945  44.436  0.00  0.00    +0.035 A 
ATOM     32  C   UNL     1      -0.347  26.587  43.605  0.00  0.00    +0.024 A 
ATOM     33  C   UNL     1      -1.550  25.908  43.192  0.00  0.00    +0.007 A 
ATOM     34  C   UNL     1      -1.810  24.560  43.611  0.00  0.00    -0.029 A 
ATOM     35  C   UNL     1      -3.114  23.879  43.133  0.00  0.00    +0.045 C 
ENDROOT
BRANCH  10   9
ATOM      4  C   UNL     1       0.582  19.333  44.945  0.00  0.00    +0.077 A 
ATOM      5  C   UNL     1       1.802  19.571  44.228  0.00  0.00    +0.048 A 
ATOM      6  C   UNL     1       2.027  20.881  43.748  0.00  0.00    +0.116 A 
ATOM      7  N   UNL     1       1.095  21.870  43.974  0.00  0.00    -0.223 NA
ATOM      8  C   UNL     1      -0.072  21.606  44.667  0.00  0.00    +0.220 A 
ATOM      9  N   UNL     1      -1.020  22.588  44.912  0.00  0.00    -0.283 N 
ATOM     36  H   UNL     1      -1.871  22.351  45.421  0.00  0.00    +0.155 HD
ATOM     37  N   UNL     1      -0.311  20.363  45.135  0.00  0.00    -0.214 NA
BRANCH   4   3
ATOM      1  C   UNL     1      -1.068  16.546  47.139  0.00  0.00    +0.020 A 
ATOM      2  C   UNL     1      -0.735  17.854  46.623  0.00  0.00    +0.013 A 
ATOM      3  C   UNL     1       0.202  18.002  45.517  0.00  0.00    +0.019 A 
ATOM     38  C   UNL     1       0.790  16.797  44.951  0.00  0.00    +0.120 A 
ATOM     39  N   UNL     1       0.451  15.551  45.469  0.00  0.00    -0.263 NA
ATOM     40  C   UNL     1      -0.449  15.396  46.534  0.00  0.00    +0.111 A 
ENDBRANCH   4   3
ENDBRANCH  10   9
BRANCH  12  13
ATOM     13  N   UNL     1       1.800  26.686  44.800  0.00  0.00    -0.281 N 
ATOM     14  C   UNL     1       2.219  27.051  46.068  0.00  0.00    +0.248 C 
ATOM     30  O   UNL     1       1.526  26.981  47.072  0.00  0.00    -0.270 OA
ATOM     31  H   UNL     1       2.401  26.975  44.028  0.00  0.00    +0.155 HD
BRANCH  14  15
ATOM     15  C   UNL     1       3.604  27.586  46.245  0.00  0.00    +0.037 A 
ATOM     16  C   UNL     1       3.836  28.937  46.763  0.00  0.00    +0.013 A 
ATOM     17  C   UNL     1       5.181  29.434  46.908  0.00  0.00    +0.005 A 
ATOM     18  C   UNL     1       6.305  28.578  46.534  0.00  0.00    -0.033 A 
ATOM     28  C   UNL     1       6.046  27.241  46.028  0.00  0.00    +0.005 A 
ATOM     29  C   UNL     1       4.729  26.750  45.884  0.00  0.00    +0.013 A 
BRANCH  18  19
ATOM     19  C   UNL     1       7.773  29.034  46.635  0.00  0.00    +0.119 C 
BRANCH  19  20
ATOM     20  N   UNL     1       8.330  29.247  48.005  0.00  0.00    -0.302 NA
ATOM     21  C   UNL     1       8.655  30.720  48.270  0.00  0.00    +0.066 C 
ATOM     22  C   UNL     1       9.216  30.928  49.714  0.00  0.00    -0.064 C 
ATOM     23  N   UNL     1      10.458  30.056  49.907  0.00  0.00    +0.379 N 
ATOM     24  C   UNL     1      11.021  30.293  51.244  0.00  0.00    -0.096 C 
ATOM     25  H   UNL     1      11.217  30.379  49.158  0.00  0.00    -0.082 HD
ATOM     26  C   UNL     1      10.144  28.590  49.643  0.00  0.00    -0.064 C 
ATOM     27  C   UNL     1       9.560  28.398  48.215  0.00  0.00    +0.066 C 
ENDBRANCH  19  20
ENDBRANCH  18  19
ENDBRANCH  14  15
ENDBRANCH  12  13
TORSDOF 6
ENDMDL
MODEL 5
REMARK VINA RESULT:      -8.4     12.584     17.034
REMARK  Name = C:\Users\Docking\Desktop\test protocol\1iep_ligandH.pdb
REMARK  8 active torsions:
REMARK  status: ('A' for Active; 'I' for Inactive)
REMARK    1  A    between atoms: _5  and  _11
REMARK    2  A    between atoms: _19  and  _21
REMARK    3  A    between atoms: _22  and  _66
REMARK    4  A    between atoms: _27  and  _30
REMARK    5  A    between atoms: _32  and  _33
REMARK    6  A    between atoms: _38  and  _43
REMARK    7  A    between atoms: _43  and  _46
REMARK    8  A    between atoms: _53  and  _55
REMARK                            x       y       z     vdW  Elec       q    Type
REMARK                         _______ _______ _______ _____ _____    ______ ____
ROOT
ATOM     10  C   UNL     1       0.333  17.067  43.869  0.00  0.00    +0.038 A 
ATOM     11  C   UNL     1      -0.993  17.219  43.391  0.00  0.00    +0.047 A 
ATOM     12  C   UNL     1      -2.063  16.346  43.848  0.00  0.00    +0.035 A 
ATOM     32  C   UNL     1      -1.746  15.329  44.796  0.00  0.00    +0.024 A 
ATOM     33  C   UNL     1      -0.402  15.160  45.291  0.00  0.00    +0.007 A 
ATOM     34  C   UNL     1       0.657  16.017  44.842  0.00  0.00    -0.029 A 
ATOM     35  C   UNL     1       2.080  15.786  45.402  0.00  0.00    +0.045 C 
ENDROOT
BRANCH  10   9
ATOM      4  C   UNL     1       3.445  18.510  40.511  0.00  0.00    +0.077 A 
ATOM      5  C   UNL     1       3.092  17.429  39.635  0.00  0.00    +0.048 A 
ATOM      6  C   UNL     1       2.110  16.520  40.090  0.00  0.00    +0.116 A 
ATOM      7  N   UNL     1       1.531  16.689  41.329  0.00  0.00    -0.223 NA
ATOM      8  C   UNL     1       1.896  17.741  42.149  0.00  0.00    +0.220 A 
ATOM      9  N   UNL     1       1.321  17.934  43.396  0.00  0.00    -0.283 N 
ATOM     36  H   UNL     1       1.623  18.718  43.974  0.00  0.00    +0.155 HD
ATOM     37  N   UNL     1       2.832  18.622  41.739  0.00  0.00    -0.214 NA
BRANCH   4   3
ATOM      1  C   UNL     1       5.276  21.532  38.833  0.00  0.00    +0.020 A 
ATOM      2  C   UNL     1       4.261  20.544  39.121  0.00  0.00    +0.013 A 
ATOM      3  C   UNL     1       4.462  19.554  40.171  0.00  0.00    +0.019 A 
ATOM     38  C   UNL     1       5.710  19.591  40.918  0.00  0.00    +0.120 A 
ATOM     39  N   UNL     1       6.670  20.553  40.618  0.00  0.00    -0.263 NA
ATOM     40  C   UNL     1       6.488  21.510  39.608  0.00  0.00    +0.111 A 
ENDBRANCH   4   3
ENDBRANCH  10   9
BRANCH  12  13
ATOM     13  N   UNL     1      -3.427  16.447  43.392  0.00  0.00    -0.281 N 
ATOM     14  C   UNL     1      -3.879  16.698  42.107  0.00  0.00    +0.248 C 
ATOM     30  O   UNL     1      -3.171  17.088  41.190  0.00  0.00    -0.270 OA
ATOM     31  H   UNL     1      -4.147  16.317  44.103  0.00  0.00    +0.155 HD
BRANCH  14  15
ATOM     15  C   UNL     1      -5.328  16.502  41.800  0.00  0.00    +0.037 A 
ATOM     16  C   UNL     1      -5.968  15.194  41.959  0.00  0.00    +0.013 A 
ATOM     17  C   UNL     1      -7.364  15.028  41.639  0.00  0.00    +0.005 A 
ATOM     18  C   UNL     1      -8.130  16.176  41.158  0.00  0.00    -0.033 A 
ATOM     28  C   UNL     1      -7.471  17.464  41.015  0.00  0.00    +0.005 A 
ATOM     29  C   UNL     1      -6.103  17.630  41.326  0.00  0.00    +0.013 A 
BRANCH  18  19
ATOM     19  C   UNL     1      -9.619  16.086  40.773  0.00  0.00    +0.119 C 
BRANCH  19  20
ATOM     20  N   UNL     1     -10.269  17.330  40.262  0.00  0.00    -0.302 NA
ATOM     21  C   UNL     1     -11.625  17.584  40.927  0.00  0.00    +0.066 C 
ATOM     22  C   UNL     1     -12.281  18.900  40.397  0.00  0.00    -0.064 C 
ATOM     23  N   UNL     1     -12.430  18.816  38.877  0.00  0.00    +0.379 N 
ATOM     24  C   UNL     1     -13.099  20.028  38.382  0.00  0.00    -0.096 C 
ATOM     25  H   UNL     1     -13.091  17.948  38.650  0.00  0.00    -0.082 HD
ATOM     26  C   UNL     1     -11.087  18.561  38.208  0.00  0.00    -0.064 C 
ATOM     27  C   UNL     1     -10.430  17.266  38.763  0.00  0.00    +0.066 C 
ENDBRANCH  19  20
ENDBRANCH  18  19
ENDBRANCH  14  15
ENDBRANCH  12  13
TORSDOF 6
ENDMDL
