MODEL 1
REMARK VINA RESULT:     -10.0      0.000      0.000
REMARK  Name = C:\Users\Docking\Desktop\test protocol\1iep_ligandH.pdb
REMARK  8 active torsions:
REMARK  status: ('A' for Active; 'I' for Inactive)
REMARK    1  A    between atoms: _5  and  _11
REMARK    2  A    between atoms: _19  and  _21
REMARK    3  A    between atoms: _22  and  _66
REMARK    4  A    between atoms: _27  and  _30
REMARK    5  A    between atoms: _32  and  _33
REMARK    6  A    between atoms: _38  and  _43
REMARK    7  A    between atoms: _43  and  _46
REMARK    8  A    between atoms: _53  and  _55
REMARK                            x       y       z     vdW  Elec       q    Type
REMARK                         _______ _______ _______ _____ _____    ______ ____
ROOT
ATOM     10  C   UNL     1       1.666  29.835  13.260  0.00  0.00    +0.038 A 
ATOM     11  C   UNL     1       0.636  30.796  13.432  0.00  0.00    +0.047 A 
ATOM     12  C   UNL     1       0.937  32.154  13.855  0.00  0.00    +0.035 A 
ATOM     32  C   UNL     1       2.299  32.502  14.091  0.00  0.00    +0.024 A 
ATOM     33  C   UNL     1       3.358  31.538  13.922  0.00  0.00    +0.007 A 
ATOM     34  C   UNL     1       3.067  30.196  13.508  0.00  0.00    -0.029 A 
ATOM     35  C   UNL     1       4.241  29.202  13.349  0.00  0.00    +0.045 C 
ENDROOT
BRANCH  10   9
ATOM      4  C   UNL     1      -0.457  25.592  13.989  0.00  0.00    +0.077 A 
ATOM      5  C   UNL     1      -0.890  25.968  15.304  0.00  0.00    +0.048 A 
ATOM      6  C   UNL     1      -0.540  27.260  15.758  0.00  0.00    +0.116 A 
ATOM      7  N   UNL     1       0.189  28.104  14.949  0.00  0.00    -0.223 NA
ATOM      8  C   UNL     1       0.593  27.710  13.686  0.00  0.00    +0.220 A 
ATOM      9  N   UNL     1       1.319  28.545  12.852  0.00  0.00    -0.283 N 
ATOM     36  H   UNL     1       1.604  28.214  11.931  0.00  0.00    +0.155 HD
ATOM     37  N   UNL     1       0.272  26.481  13.230  0.00  0.00    -0.214 NA
BRANCH   4   3
ATOM      1  C   UNL     1      -1.517  21.862  13.480  0.00  0.00    +0.020 A 
ATOM      2  C   UNL     1      -1.247  23.124  14.129  0.00  0.00    +0.013 A 
ATOM      3  C   UNL     1      -0.751  24.263  13.367  0.00  0.00    +0.019 A 
ATOM     38  C   UNL     1      -0.538  24.090  11.938  0.00  0.00    +0.120 A 
ATOM     39  N   UNL     1      -0.804  22.863  11.340  0.00  0.00    -0.263 NA
ATOM     40  C   UNL     1      -1.280  21.759  12.064  0.00  0.00    +0.111 A 
ENDBRANCH   4   3
ENDBRANCH  10   9
BRANCH  12  13
ATOM     13  N   UNL     1      -0.067  33.170  14.054  0.00  0.00    -0.281 N 
ATOM     14  C   UNL     1      -0.651  33.988  13.101  0.00  0.00    +0.248 C 
ATOM     30  O   UNL     1      -0.242  34.118  11.957  0.00  0.00    -0.270 OA
ATOM     31  H   UNL     1      -0.386  33.301  15.014  0.00  0.00    +0.155 HD
BRANCH  14  15
ATOM     15  C   UNL     1      -1.856  34.789  13.478  0.00  0.00    +0.037 A 
ATOM     16  C   UNL     1      -1.888  36.243  13.299  0.00  0.00    +0.013 A 
ATOM     17  C   UNL     1      -3.057  36.993  13.686  0.00  0.00    +0.005 A 
ATOM     18  C   UNL     1      -4.204  36.289  14.255  0.00  0.00    -0.033 A 
ATOM     28  C   UNL     1      -4.147  34.846  14.416  0.00  0.00    +0.005 A 
ATOM     29  C   UNL     1      -3.003  34.107  14.039  0.00  0.00    +0.013 A 
BRANCH  18  19
ATOM     19  C   UNL     1      -5.484  37.011  14.716  0.00  0.00    +0.119 C 
BRANCH  19  20
ATOM     20  N   UNL     1      -6.217  37.819  13.696  0.00  0.00    -0.302 NA
ATOM     21  C   UNL     1      -7.575  38.302  14.215  0.00  0.00    +0.066 C 
ATOM     22  C   UNL     1      -8.319  39.164  13.144  0.00  0.00    -0.064 C 
ATOM     23  N   UNL     1      -8.488  38.346  11.862  0.00  0.00    +0.379 N 
ATOM     24  C   UNL     1      -9.239  39.133  10.873  0.00  0.00    -0.096 C 
ATOM     25  H   UNL     1      -9.099  37.447  12.113  0.00  0.00    -0.082 HD
ATOM     26  C   UNL     1      -7.143  37.860  11.341  0.00  0.00    -0.064 C 
ATOM     27  C   UNL     1      -6.399  37.029  12.424  0.00  0.00    +0.066 C 
ENDBRANCH  19  20
ENDBRANCH  18  19
ENDBRANCH  14  15
ENDBRANCH  12  13
TORSDOF 6
ENDMDL
MODEL 2
REMARK VINA RESULT:      -9.6      2.071      2.671
REMARK  Name = C:\Users\Docking\Desktop\test protocol\1iep_ligandH.pdb
REMARK  8 active torsions:
REMARK  status: ('A' for Active; 'I' for Inactive)
REMARK    1  A    between atoms: _5  and  _11
REMARK    2  A    between atoms: _19  and  _21
REMARK    3  A    between atoms: _22  and  _66
REMARK    4  A    between atoms: _27  and  _30
REMARK    5  A    between atoms: _32  and  _33
REMARK    6  A    between atoms: _38  and  _43
REMARK    7  A    between atoms: _43  and  _46
REMARK    8  A    between atoms: _53  and  _55
REMARK                            x       y       z     vdW  Elec       q    Type
REMARK                         _______ _______ _______ _____ _____    ______ ____
ROOT
ATOM     10  C   UNL     1       0.407  30.350  12.813  0.00  0.00    +0.038 A 
ATOM     11  C   UNL     1      -0.657  31.203  12.425  0.00  0.00    +0.047 A 
ATOM     12  C   UNL     1      -0.604  32.635  12.677  0.00  0.00    +0.035 A 
ATOM     32  C   UNL     1       0.551  33.165  13.323  0.00  0.00    +0.024 A 
ATOM     33  C   UNL     1       1.642  32.312  13.725  0.00  0.00    +0.007 A 
ATOM     34  C   UNL     1       1.593  30.898  13.482  0.00  0.00    -0.029 A 
ATOM     35  C   UNL     1       2.789  30.031  13.941  0.00  0.00    +0.045 C 
ENDROOT
BRANCH  10   9
ATOM      4  C   UNL     1      -0.604  25.847  14.130  0.00  0.00    +0.077 A 
ATOM      5  C   UNL     1      -0.928  26.248  15.469  0.00  0.00    +0.048 A 
ATOM      6  C   UNL     1      -0.814  27.622  15.780  0.00  0.00    +0.116 A 
ATOM      7  N   UNL     1      -0.406  28.518  14.816  0.00  0.00    -0.223 NA
ATOM      8  C   UNL     1      -0.101  28.097  13.535  0.00  0.00    +0.220 A 
ATOM      9  N   UNL     1       0.303  28.983  12.547  0.00  0.00    -0.283 N 
ATOM     36  H   UNL     1       0.527  28.632  11.616  0.00  0.00    +0.155 HD
ATOM     37  N   UNL     1      -0.200  26.791  13.213  0.00  0.00    -0.214 NA
BRANCH   4   3
ATOM      1  C   UNL     1      -1.283  21.999  13.937  0.00  0.00    +0.020 A 
ATOM      2  C   UNL     1      -1.234  23.349  14.450  0.00  0.00    +0.013 A 
ATOM      3  C   UNL     1      -0.679  24.431  13.648  0.00  0.00    +0.019 A 
ATOM     38  C   UNL     1      -0.179  24.112  12.319  0.00  0.00    +0.120 A 
ATOM     39  N   UNL     1      -0.238  22.803  11.851  0.00  0.00    -0.263 NA
ATOM     40  C   UNL     1      -0.768  21.753  12.616  0.00  0.00    +0.111 A 
ENDBRANCH   4   3
ENDBRANCH  10   9
BRANCH  12  13
ATOM     13  N   UNL     1      -1.658  33.549  12.313  0.00  0.00    -0.281 N 
ATOM     14  C   UNL     1      -1.901  34.118  11.073  0.00  0.00    +0.248 C 
ATOM     30  O   UNL     1      -1.119  34.092  10.135  0.00  0.00    -0.270 OA
ATOM     31  H   UNL     1      -2.302  33.809  13.060  0.00  0.00    +0.155 HD
BRANCH  14  15
ATOM     15  C   UNL     1      -3.196  34.830  10.848  0.00  0.00    +0.037 A 
ATOM     16  C   UNL     1      -4.351  34.141  10.266  0.00  0.00    +0.013 A 
ATOM     17  C   UNL     1      -5.583  34.856  10.043  0.00  0.00    +0.005 A 
ATOM     18  C   UNL     1      -5.666  36.270  10.404  0.00  0.00    -0.033 A 
ATOM     28  C   UNL     1      -4.506  36.927  10.984  0.00  0.00    +0.005 A 
ATOM     29  C   UNL     1      -3.297  36.229  11.203  0.00  0.00    +0.013 A 
BRANCH  18  19
ATOM     19  C   UNL     1      -6.933  37.116  10.182  0.00  0.00    +0.119 C 
BRANCH  19  20
ATOM     20  N   UNL     1      -8.110  36.826  11.054  0.00  0.00    -0.302 NA
ATOM     21  C   UNL     1      -7.691  36.308  12.432  0.00  0.00    +0.066 C 
ATOM     22  C   UNL     1      -8.934  36.031  13.339  0.00  0.00    -0.064 C 
ATOM     23  N   UNL     1      -9.857  35.030  12.642  0.00  0.00    +0.379 N 
ATOM     24  C   UNL     1     -10.999  34.723  13.517  0.00  0.00    -0.096 C 
ATOM     25  H   UNL     1      -9.282  34.087  12.492  0.00  0.00    -0.082 HD
ATOM     26  C   UNL     1     -10.277  35.537  11.269  0.00  0.00    -0.064 C 
ATOM     27  C   UNL     1      -9.033  35.837  10.387  0.00  0.00    +0.066 C 
ENDBRANCH  19  20
ENDBRANCH  18  19
ENDBRANCH  14  15
ENDBRANCH  12  13
TORSDOF 6
ENDMDL
MODEL 3
REMARK VINA RESULT:      -9.5      2.580      3.769
REMARK  Name = C:\Users\Docking\Desktop\test protocol\1iep_ligandH.pdb
REMARK  8 active torsions:
REMARK  status: ('A' for Active; 'I' for Inactive)
REMARK    1  A    between atoms: _5  and  _11
REMARK    2  A    between atoms: _19  and  _21
REMARK    3  A    between atoms: _22  and  _66
REMARK    4  A    between atoms: _27  and  _30
REMARK    5  A    between atoms: _32  and  _33
REMARK    6  A    between atoms: _38  and  _43
REMARK    7  A    between atoms: _43  and  _46
REMARK    8  A    between atoms: _53  and  _55
REMARK                            x       y       z     vdW  Elec       q    Type
REMARK                         _______ _______ _______ _____ _____    ______ ____
ROOT
ATOM     10  C   UNL     1      -0.574  27.245  16.131  0.00  0.00    +0.038 A 
ATOM     11  C   UNL     1      -0.944  28.402  15.400  0.00  0.00    +0.047 A 
ATOM     12  C   UNL     1      -0.605  29.734  15.878  0.00  0.00    +0.035 A 
ATOM     32  C   UNL     1       0.113  29.850  17.103  0.00  0.00    +0.024 A 
ATOM     33  C   UNL     1       0.496  28.684  17.860  0.00  0.00    +0.007 A 
ATOM     34  C   UNL     1       0.163  27.368  17.395  0.00  0.00    -0.029 A 
ATOM     35  C   UNL     1       0.593  26.153  18.250  0.00  0.00    +0.045 C 
ENDROOT
BRANCH  10   9
ATOM      4  C   UNL     1      -0.634  23.955  12.637  0.00  0.00    +0.077 A 
ATOM      5  C   UNL     1       0.069  24.818  11.732  0.00  0.00    +0.048 A 
ATOM      6  C   UNL     1       0.422  26.102  12.202  0.00  0.00    +0.116 A 
ATOM      7  N   UNL     1       0.092  26.485  13.484  0.00  0.00    -0.223 NA
ATOM      8  C   UNL     1      -0.589  25.630  14.331  0.00  0.00    +0.220 A 
ATOM      9  N   UNL     1      -0.925  25.991  15.626  0.00  0.00    -0.283 N 
ATOM     36  H   UNL     1      -1.434  25.334  16.217  0.00  0.00    +0.155 HD
ATOM     37  N   UNL     1      -0.939  24.398  13.905  0.00  0.00    -0.214 NA
BRANCH   4   3
ATOM      1  C   UNL     1      -1.798  20.798  10.642  0.00  0.00    +0.020 A 
ATOM      2  C   UNL     1      -1.379  22.152  10.925  0.00  0.00    +0.013 A 
ATOM      3  C   UNL     1      -1.073  22.567  12.288  0.00  0.00    +0.019 A 
ATOM     38  C   UNL     1      -1.201  21.580  13.350  0.00  0.00    +0.120 A 
ATOM     39  N   UNL     1      -1.608  20.284  13.047  0.00  0.00    -0.263 NA
ATOM     40  C   UNL     1      -1.907  19.874  11.739  0.00  0.00    +0.111 A 
ENDBRANCH   4   3
ENDBRANCH  10   9
BRANCH  12  13
ATOM     13  N   UNL     1      -0.961  30.946  15.183  0.00  0.00    -0.281 N 
ATOM     14  C   UNL     1      -0.371  31.483  14.050  0.00  0.00    +0.248 C 
ATOM     30  O   UNL     1       0.695  31.110  13.583  0.00  0.00    -0.270 OA
ATOM     31  H   UNL     1      -1.743  31.473  15.573  0.00  0.00    +0.155 HD
BRANCH  14  15
ATOM     15  C   UNL     1      -1.058  32.605  13.341  0.00  0.00    +0.037 A 
ATOM     16  C   UNL     1      -1.996  33.486  14.041  0.00  0.00    +0.013 A 
ATOM     17  C   UNL     1      -2.658  34.550  13.330  0.00  0.00    +0.005 A 
ATOM     18  C   UNL     1      -2.383  34.740  11.907  0.00  0.00    -0.033 A 
ATOM     28  C   UNL     1      -1.445  33.854  11.238  0.00  0.00    +0.005 A 
ATOM     29  C   UNL     1      -0.795  32.809  11.932  0.00  0.00    +0.013 A 
BRANCH  18  19
ATOM     19  C   UNL     1      -3.060  35.836  11.064  0.00  0.00    +0.119 C 
BRANCH  19  20
ATOM     20  N   UNL     1      -4.547  35.782  10.938  0.00  0.00    -0.302 NA
ATOM     21  C   UNL     1      -5.012  34.559  10.142  0.00  0.00    +0.066 C 
ATOM     22  C   UNL     1      -6.572  34.506  10.040  0.00  0.00    -0.064 C 
ATOM     23  N   UNL     1      -7.082  35.797   9.397  0.00  0.00    +0.379 N 
ATOM     24  C   UNL     1      -8.543  35.725   9.246  0.00  0.00    -0.096 C 
ATOM     25  H   UNL     1      -6.639  35.864   8.376  0.00  0.00    -0.082 HD
ATOM     26  C   UNL     1      -6.622  37.018  10.181  0.00  0.00    -0.064 C 
ATOM     27  C   UNL     1      -5.073  37.045  10.302  0.00  0.00    +0.066 C 
ENDBRANCH  19  20
ENDBRANCH  18  19
ENDBRANCH  14  15
ENDBRANCH  12  13
TORSDOF 6
ENDMDL
MODEL 4
REMARK VINA RESULT:      -9.5      5.614      9.049
REMARK  Name = C:\Users\Docking\Desktop\test protocol\1iep_ligandH.pdb
REMARK  8 active torsions:
REMARK  status: ('A' for Active; 'I' for Inactive)
REMARK    1  A    between atoms: _5  and  _11
REMARK    2  A    between atoms: _19  and  _21
REMARK    3  A    between atoms: _22  and  _66
REMARK    4  A    between atoms: _27  and  _30
REMARK    5  A    between atoms: _32  and  _33
REMARK    6  A    between atoms: _38  and  _43
REMARK    7  A    between atoms: _43  and  _46
REMARK    8  A    between atoms: _53  and  _55
REMARK                            x       y       z     vdW  Elec       q    Type
REMARK                         _______ _______ _______ _____ _____    ______ ____
ROOT
ATOM     10  C   UNL     1      -1.877  34.352  13.209  0.00  0.00    +0.038 A 
ATOM     11  C   UNL     1      -2.771  33.465  12.556  0.00  0.00    +0.047 A 
ATOM     12  C   UNL     1      -3.523  33.883  11.383  0.00  0.00    +0.035 A 
ATOM     32  C   UNL     1      -3.338  35.212  10.901  0.00  0.00    +0.024 A 
ATOM     33  C   UNL     1      -2.435  36.127  11.553  0.00  0.00    +0.007 A 
ATOM     34  C   UNL     1      -1.693  35.720  12.712  0.00  0.00    -0.029 A 
ATOM     35  C   UNL     1      -0.743  36.745  13.375  0.00  0.00    +0.045 C 
ENDROOT
BRANCH  10   9
ATOM      4  C   UNL     1       1.422  31.562  15.300  0.00  0.00    +0.077 A 
ATOM      5  C   UNL     1       1.768  30.938  14.056  0.00  0.00    +0.048 A 
ATOM      6  C   UNL     1       1.069  31.358  12.902  0.00  0.00    +0.116 A 
ATOM      7  N   UNL     1       0.098  32.331  12.997  0.00  0.00    -0.223 NA
ATOM      8  C   UNL     1      -0.213  32.911  14.213  0.00  0.00    +0.220 A 
ATOM      9  N   UNL     1      -1.181  33.897  14.331  0.00  0.00    -0.283 N 
ATOM     36  H   UNL     1      -1.386  34.295  15.247  0.00  0.00    +0.155 HD
ATOM     37  N   UNL     1       0.439  32.526  15.330  0.00  0.00    -0.214 NA
BRANCH   4   3
ATOM      1  C   UNL     1       2.152  30.028  18.823  0.00  0.00    +0.020 A 
ATOM      2  C   UNL     1       1.481  30.317  17.577  0.00  0.00    +0.013 A 
ATOM      3  C   UNL     1       2.074  31.228  16.606  0.00  0.00    +0.019 A 
ATOM     38  C   UNL     1       3.357  31.833  16.928  0.00  0.00    +0.120 A 
ATOM     39  N   UNL     1       3.979  31.536  18.137  0.00  0.00    -0.263 NA
ATOM     40  C   UNL     1       3.417  30.663  19.080  0.00  0.00    +0.111 A 
ENDBRANCH   4   3
ENDBRANCH  10   9
BRANCH  12  13
ATOM     13  N   UNL     1      -4.450  33.030  10.683  0.00  0.00    -0.281 N 
ATOM     14  C   UNL     1      -5.747  33.321  10.291  0.00  0.00    +0.248 C 
ATOM     30  O   UNL     1      -6.383  34.291  10.674  0.00  0.00    -0.270 OA
ATOM     31  H   UNL     1      -4.109  32.097  10.447  0.00  0.00    +0.155 HD
BRANCH  14  15
ATOM     15  C   UNL     1      -6.442  32.392   9.349  0.00  0.00    +0.037 A 
ATOM     16  C   UNL     1      -6.950  32.860   8.057  0.00  0.00    +0.013 A 
ATOM     17  C   UNL     1      -7.632  31.948   7.174  0.00  0.00    +0.005 A 
ATOM     18  C   UNL     1      -7.809  30.556   7.580  0.00  0.00    -0.033 A 
ATOM     28  C   UNL     1      -7.291  30.117   8.866  0.00  0.00    +0.005 A 
ATOM     29  C   UNL     1      -6.623  31.009   9.734  0.00  0.00    +0.013 A 
BRANCH  18  19
ATOM     19  C   UNL     1      -8.543  29.517   6.711  0.00  0.00    +0.119 C 
BRANCH  19  20
ATOM     20  N   UNL     1      -7.774  28.306   6.297  0.00  0.00    -0.302 NA
ATOM     21  C   UNL     1      -7.746  27.240   7.396  0.00  0.00    +0.066 C 
ATOM     22  C   UNL     1      -6.957  25.970   6.938  0.00  0.00    -0.064 C 
ATOM     23  N   UNL     1      -5.536  26.373   6.539  0.00  0.00    +0.379 N 
ATOM     24  C   UNL     1      -4.774  25.174   6.163  0.00  0.00    -0.096 C 
ATOM     25  H   UNL     1      -5.046  26.818   7.436  0.00  0.00    -0.082 HD
ATOM     26  C   UNL     1      -5.555  27.435   5.448  0.00  0.00    -0.064 C 
ATOM     27  C   UNL     1      -6.366  28.680   5.903  0.00  0.00    +0.066 C 
ENDBRANCH  19  20
ENDBRANCH  18  19
ENDBRANCH  14  15
ENDBRANCH  12  13
TORSDOF 6
ENDMDL
MODEL 5
REMARK VINA RESULT:      -9.4      3.819      6.111
REMARK  Name = C:\Users\Docking\Desktop\test protocol\1iep_ligandH.pdb
REMARK  8 active torsions:
REMARK  status: ('A' for Active; 'I' for Inactive)
REMARK    1  A    between atoms: _5  and  _11
REMARK    2  A    between atoms: _19  and  _21
REMARK    3  A    between atoms: _22  and  _66
REMARK    4  A    between atoms: _27  and  _30
REMARK    5  A    between atoms: _32  and  _33
REMARK    6  A    between atoms: _38  and  _43
REMARK    7  A    between atoms: _43  and  _46
REMARK    8  A    between atoms: _53  and  _55
REMARK                            x       y       z     vdW  Elec       q    Type
REMARK                         _______ _______ _______ _____ _____    ______ ____
ROOT
ATOM     10  C   UNL     1      -1.992  29.072  11.865  0.00  0.00    +0.038 A 
ATOM     11  C   UNL     1      -2.957  30.076  11.600  0.00  0.00    +0.047 A 
ATOM     12  C   UNL     1      -3.463  30.298  10.254  0.00  0.00    +0.035 A 
ATOM     32  C   UNL     1      -2.965  29.476   9.202  0.00  0.00    +0.024 A 
ATOM     33  C   UNL     1      -1.983  28.451   9.453  0.00  0.00    +0.007 A 
ATOM     34  C   UNL     1      -1.478  28.229  10.778  0.00  0.00    -0.029 A 
ATOM     35  C   UNL     1      -0.421  27.120  10.988  0.00  0.00    +0.045 C 
ENDROOT
BRANCH  10   9
ATOM      4  C   UNL     1       1.010  30.079  15.473  0.00  0.00    +0.077 A 
ATOM      5  C   UNL     1       1.760  31.001  14.669  0.00  0.00    +0.048 A 
ATOM      6  C   UNL     1       1.345  31.182  13.331  0.00  0.00    +0.116 A 
ATOM      7  N   UNL     1       0.259  30.488  12.843  0.00  0.00    -0.223 NA
ATOM      8  C   UNL     1      -0.441  29.605  13.644  0.00  0.00    +0.220 A 
ATOM      9  N   UNL     1      -1.541  28.902  13.176  0.00  0.00    -0.283 N 
ATOM     36  H   UNL     1      -2.026  28.254  13.796  0.00  0.00    +0.155 HD
ATOM     37  N   UNL     1      -0.064  29.413  14.925  0.00  0.00    -0.214 NA
BRANCH   4   3
ATOM      1  C   UNL     1       1.226  28.320  18.960  0.00  0.00    +0.020 A 
ATOM      2  C   UNL     1       0.897  28.558  17.573  0.00  0.00    +0.013 A 
ATOM      3  C   UNL     1       1.323  29.782  16.906  0.00  0.00    +0.019 A 
ATOM     38  C   UNL     1       2.086  30.752  17.676  0.00  0.00    +0.120 A 
ATOM     39  N   UNL     1       2.387  30.496  19.011  0.00  0.00    -0.263 NA
ATOM     40  C   UNL     1       1.981  29.323  19.664  0.00  0.00    +0.111 A 
ENDBRANCH   4   3
ENDBRANCH  10   9
BRANCH  12  13
ATOM     13  N   UNL     1      -4.437  31.308   9.924  0.00  0.00    -0.281 N 
ATOM     14  C   UNL     1      -5.815  31.236  10.050  0.00  0.00    +0.248 C 
ATOM     30  O   UNL     1      -6.436  30.207  10.268  0.00  0.00    -0.270 OA
ATOM     31  H   UNL     1      -4.066  32.182   9.551  0.00  0.00    +0.155 HD
BRANCH  14  15
ATOM     15  C   UNL     1      -6.620  32.486   9.898  0.00  0.00    +0.037 A 
ATOM     16  C   UNL     1      -8.068  32.489  10.118  0.00  0.00    +0.013 A 
ATOM     17  C   UNL     1      -8.824  33.704   9.948  0.00  0.00    +0.005 A 
ATOM     18  C   UNL     1      -8.130  34.929   9.556  0.00  0.00    -0.033 A 
ATOM     28  C   UNL     1      -6.692  34.900   9.350  0.00  0.00    +0.005 A 
ATOM     29  C   UNL     1      -5.949  33.710   9.514  0.00  0.00    +0.013 A 
BRANCH  18  19
ATOM     19  C   UNL     1      -8.859  36.267   9.331  0.00  0.00    +0.119 C 
BRANCH  19  20
ATOM     20  N   UNL     1      -8.855  37.246  10.459  0.00  0.00    -0.302 NA
ATOM     21  C   UNL     1      -7.679  38.223  10.368  0.00  0.00    +0.066 C 
ATOM     22  C   UNL     1      -7.703  39.254  11.543  0.00  0.00    -0.064 C 
ATOM     23  N   UNL     1      -7.682  38.504  12.877  0.00  0.00    +0.379 N 
ATOM     24  C   UNL     1      -7.646  39.471  13.983  0.00  0.00    -0.096 C 
ATOM     25  H   UNL     1      -6.740  37.910  12.916  0.00  0.00    -0.082 HD
ATOM     26  C   UNL     1      -8.847  37.529  12.974  0.00  0.00    -0.064 C 
ATOM     27  C   UNL     1      -8.831  36.527  11.786  0.00  0.00    +0.066 C 
ENDBRANCH  19  20
ENDBRANCH  18  19
ENDBRANCH  14  15
ENDBRANCH  12  13
TORSDOF 6
ENDMDL
