MODEL 1
REMARK VINA RESULT:      -8.6      0.000      0.000
REMARK  Name = C:\Users\Docking\Desktop\test protocol\1iep_ligandH.pdb
REMARK  8 active torsions:
REMARK  status: ('A' for Active; 'I' for Inactive)
REMARK    1  A    between atoms: _5  and  _11
REMARK    2  A    between atoms: _19  and  _21
REMARK    3  A    between atoms: _22  and  _66
REMARK    4  A    between atoms: _27  and  _30
REMARK    5  A    between atoms: _32  and  _33
REMARK    6  A    between atoms: _38  and  _43
REMARK    7  A    between atoms: _43  and  _46
REMARK    8  A    between atoms: _53  and  _55
REMARK                            x       y       z     vdW  Elec       q    Type
REMARK                         _______ _______ _______ _____ _____    ______ ____
ROOT
ATOM     10  C   UNL     1     -10.073 -76.081 -19.805  0.00  0.00    +0.038 A 
ATOM     11  C   UNL     1      -8.700 -76.409 -19.675  0.00  0.00    +0.047 A 
ATOM     12  C   UNL     1      -7.675 -75.649 -20.374  0.00  0.00    +0.035 A 
ATOM     32  C   UNL     1      -8.085 -74.559 -21.196  0.00  0.00    +0.024 A 
ATOM     33  C   UNL     1      -9.477 -74.213 -21.340  0.00  0.00    +0.007 A 
ATOM     34  C   UNL     1     -10.493 -74.960 -20.655  0.00  0.00    -0.029 A 
ATOM     35  C   UNL     1     -11.970 -74.548 -20.852  0.00  0.00    +0.045 C 
ENDROOT
BRANCH  10   9
ATOM      4  C   UNL     1     -12.611 -80.103 -19.152  0.00  0.00    +0.077 A 
ATOM      5  C   UNL     1     -12.032 -80.726 -20.307  0.00  0.00    +0.048 A 
ATOM      6  C   UNL     1     -11.090 -79.975 -21.046  0.00  0.00    +0.116 A 
ATOM      7  N   UNL     1     -10.760 -78.697 -20.650  0.00  0.00    -0.223 NA
ATOM      8  C   UNL     1     -11.338 -78.125 -19.532  0.00  0.00    +0.220 A 
ATOM      9  N   UNL     1     -11.015 -76.845 -19.111  0.00  0.00    -0.283 N 
ATOM     36  H   UNL     1     -11.469 -76.456 -18.285  0.00  0.00    +0.155 HD
ATOM     37  N   UNL     1     -12.241 -78.821 -18.810  0.00  0.00    -0.214 NA
BRANCH   4   3
ATOM      1  C   UNL     1     -14.436 -81.573 -16.020  0.00  0.00    +0.020 A 
ATOM      2  C   UNL     1     -13.432 -80.922 -16.830  0.00  0.00    +0.013 A 
ATOM      3  C   UNL     1     -13.618 -80.769 -18.267  0.00  0.00    +0.019 A 
ATOM     38  C   UNL     1     -14.841 -81.290 -18.859  0.00  0.00    +0.120 A 
ATOM     39  N   UNL     1     -15.790 -81.914 -18.054  0.00  0.00    -0.263 NA
ATOM     40  C   UNL     1     -15.621 -82.068 -16.670  0.00  0.00    +0.111 A 
ENDBRANCH   4   3
ENDBRANCH  10   9
BRANCH  12  13
ATOM     13  N   UNL     1      -6.266 -75.941 -20.287  0.00  0.00    -0.281 N 
ATOM     14  C   UNL     1      -5.464 -76.560 -21.232  0.00  0.00    +0.248 C 
ATOM     30  O   UNL     1      -5.885 -77.152 -22.214  0.00  0.00    -0.270 OA
ATOM     31  H   UNL     1      -5.803 -75.656 -19.423  0.00  0.00    +0.155 HD
BRANCH  14  15
ATOM     15  C   UNL     1      -3.980 -76.529 -21.052  0.00  0.00    +0.037 A 
ATOM     16  C   UNL     1      -3.149 -77.685 -21.396  0.00  0.00    +0.013 A 
ATOM     17  C   UNL     1      -1.722 -77.634 -21.196  0.00  0.00    +0.005 A 
ATOM     18  C   UNL     1      -1.118 -76.422 -20.650  0.00  0.00    -0.033 A 
ATOM     28  C   UNL     1      -1.966 -75.288 -20.322  0.00  0.00    +0.005 A 
ATOM     29  C   UNL     1      -3.364 -75.334 -20.516  0.00  0.00    +0.013 A 
BRANCH  18  19
ATOM     19  C   UNL     1       0.393 -76.287 -20.385  0.00  0.00    +0.119 C 
BRANCH  19  20
ATOM     20  N   UNL     1       0.922 -76.886 -19.123  0.00  0.00    -0.302 NA
ATOM     21  C   UNL     1       1.621 -75.846 -18.242  0.00  0.00    +0.066 C 
ATOM     22  C   UNL     1       2.147 -76.484 -16.916  0.00  0.00    -0.064 C 
ATOM     23  N   UNL     1       3.096 -77.637 -17.250  0.00  0.00    +0.379 N 
ATOM     24  C   UNL     1       3.638 -78.202 -16.005  0.00  0.00    -0.096 C 
ATOM     25  H   UNL     1       3.949 -77.215 -17.830  0.00  0.00    -0.082 HD
ATOM     26  C   UNL     1       2.410 -78.674 -18.127  0.00  0.00    -0.064 C 
ATOM     27  C   UNL     1       1.864 -78.023 -19.429  0.00  0.00    +0.066 C 
ENDBRANCH  19  20
ENDBRANCH  18  19
ENDBRANCH  14  15
ENDBRANCH  12  13
TORSDOF 6
ENDMDL
MODEL 2
REMARK VINA RESULT:      -8.3     21.021     29.328
REMARK  Name = C:\Users\Docking\Desktop\test protocol\1iep_ligandH.pdb
REMARK  8 active torsions:
REMARK  status: ('A' for Active; 'I' for Inactive)
REMARK    1  A    between atoms: _5  and  _11
REMARK    2  A    between atoms: _19  and  _21
REMARK    3  A    between atoms: _22  and  _66
REMARK    4  A    between atoms: _27  and  _30
REMARK    5  A    between atoms: _32  and  _33
REMARK    6  A    between atoms: _38  and  _43
REMARK    7  A    between atoms: _43  and  _46
REMARK    8  A    between atoms: _53  and  _55
REMARK                            x       y       z     vdW  Elec       q    Type
REMARK                         _______ _______ _______ _____ _____    ______ ____
ROOT
ATOM     10  C   UNL     1     -18.007 -95.279  -6.862  0.00  0.00    +0.038 A 
ATOM     11  C   UNL     1     -18.548 -96.541  -6.507  0.00  0.00    +0.047 A 
ATOM     12  C   UNL     1     -19.389 -96.694  -5.330  0.00  0.00    +0.035 A 
ATOM     32  C   UNL     1     -19.660 -95.540  -4.538  0.00  0.00    +0.024 A 
ATOM     33  C   UNL     1     -19.117 -94.250  -4.884  0.00  0.00    +0.007 A 
ATOM     34  C   UNL     1     -18.285 -94.093  -6.043  0.00  0.00    -0.029 A 
ATOM     35  C   UNL     1     -17.724 -92.688  -6.362  0.00  0.00    +0.045 C 
ENDROOT
BRANCH  10   9
ATOM      4  C   UNL     1     -17.427 -94.703 -11.592  0.00  0.00    +0.077 A 
ATOM      5  C   UNL     1     -18.841 -94.599 -11.812  0.00  0.00    +0.048 A 
ATOM      6  C   UNL     1     -19.683 -94.706 -10.683  0.00  0.00    +0.116 A 
ATOM      7  N   UNL     1     -19.141 -94.902  -9.431  0.00  0.00    -0.223 NA
ATOM      8  C   UNL     1     -17.773 -95.000  -9.254  0.00  0.00    +0.220 A 
ATOM      9  N   UNL     1     -17.206 -95.189  -8.003  0.00  0.00    -0.283 N 
ATOM     36  H   UNL     1     -16.193 -95.263  -7.915  0.00  0.00    +0.155 HD
ATOM     37  N   UNL     1     -16.948 -94.902 -10.317  0.00  0.00    -0.214 NA
BRANCH   4   3
ATOM      1  C   UNL     1     -15.279 -93.396 -14.588  0.00  0.00    +0.020 A 
ATOM      2  C   UNL     1     -16.280 -93.439 -13.548  0.00  0.00    +0.013 A 
ATOM      3  C   UNL     1     -16.408 -94.606 -12.684  0.00  0.00    +0.019 A 
ATOM     38  C   UNL     1     -15.499 -95.721 -12.901  0.00  0.00    +0.120 A 
ATOM     39  N   UNL     1     -14.545 -95.652 -13.912  0.00  0.00    -0.263 NA
ATOM     40  C   UNL     1     -14.414 -94.535 -14.750  0.00  0.00    +0.111 A 
ENDBRANCH   4   3
ENDBRANCH  10   9
BRANCH  12  13
ATOM     13  N   UNL     1     -19.960 -97.952  -4.915  0.00  0.00    -0.281 N 
ATOM     14  C   UNL     1     -20.784 -98.794  -5.643  0.00  0.00    +0.248 C 
ATOM     30  O   UNL     1     -21.330 -98.489  -6.693  0.00  0.00    -0.270 OA
ATOM     31  H   UNL     1     -19.729 -98.257  -3.970  0.00  0.00    +0.155 HD
BRANCH  14  15
ATOM     15  C   UNL     1     -21.050-100.170  -5.123  0.00  0.00    +0.037 A 
ATOM     16  C   UNL     1     -19.963-101.021  -4.633  0.00  0.00    +0.013 A 
ATOM     17  C   UNL     1     -20.245-102.351  -4.153  0.00  0.00    +0.005 A 
ATOM     18  C   UNL     1     -21.623-102.837  -4.159  0.00  0.00    -0.033 A 
ATOM     28  C   UNL     1     -22.683-101.970  -4.646  0.00  0.00    +0.005 A 
ATOM     29  C   UNL     1     -22.410-100.666  -5.119  0.00  0.00    +0.013 A 
BRANCH  18  19
ATOM     19  C   UNL     1     -22.013-104.249  -3.685  0.00  0.00    +0.119 C 
BRANCH  19  20
ATOM     20  N   UNL     1     -21.022-105.344  -3.908  0.00  0.00    -0.302 NA
ATOM     21  C   UNL     1     -21.636-106.531  -4.655  0.00  0.00    +0.066 C 
ATOM     22  C   UNL     1     -20.579-107.657  -4.900  0.00  0.00    -0.064 C 
ATOM     23  N   UNL     1     -19.996-108.105  -3.558  0.00  0.00    +0.379 N 
ATOM     24  C   UNL     1     -19.044-109.204  -3.779  0.00  0.00    -0.096 C 
ATOM     25  H   UNL     1     -20.834-108.502  -2.941  0.00  0.00    -0.082 HD
ATOM     26  C   UNL     1     -19.386-106.930  -2.807  0.00  0.00    -0.064 C 
ATOM     27  C   UNL     1     -20.436-105.804  -2.595  0.00  0.00    +0.066 C 
ENDBRANCH  19  20
ENDBRANCH  18  19
ENDBRANCH  14  15
ENDBRANCH  12  13
TORSDOF 6
ENDMDL
MODEL 3
REMARK VINA RESULT:      -8.2     20.766     28.074
REMARK  Name = C:\Users\Docking\Desktop\test protocol\1iep_ligandH.pdb
REMARK  8 active torsions:
REMARK  status: ('A' for Active; 'I' for Inactive)
REMARK    1  A    between atoms: _5  and  _11
REMARK    2  A    between atoms: _19  and  _21
REMARK    3  A    between atoms: _22  and  _66
REMARK    4  A    between atoms: _27  and  _30
REMARK    5  A    between atoms: _32  and  _33
REMARK    6  A    between atoms: _38  and  _43
REMARK    7  A    between atoms: _43  and  _46
REMARK    8  A    between atoms: _53  and  _55
REMARK                            x       y       z     vdW  Elec       q    Type
REMARK                         _______ _______ _______ _____ _____    ______ ____
ROOT
ATOM     10  C   UNL     1     -21.783 -99.430  -5.066  0.00  0.00    +0.038 A 
ATOM     11  C   UNL     1     -20.887 -98.527  -5.694  0.00  0.00    +0.047 A 
ATOM     12  C   UNL     1     -21.372 -97.477  -6.576  0.00  0.00    +0.035 A 
ATOM     32  C   UNL     1     -22.777 -97.374  -6.795  0.00  0.00    +0.024 A 
ATOM     33  C   UNL     1     -23.702 -98.284  -6.166  0.00  0.00    +0.007 A 
ATOM     34  C   UNL     1     -23.228 -99.323  -5.297  0.00  0.00    -0.029 A 
ATOM     35  C   UNL     1     -24.265-100.275  -4.654  0.00  0.00    +0.045 C 
ENDROOT
BRANCH  10   9
ATOM      4  C   UNL     1     -19.960-103.805  -4.307  0.00  0.00    +0.077 A 
ATOM      5  C   UNL     1     -20.081-104.160  -5.692  0.00  0.00    +0.048 A 
ATOM      6  C   UNL     1     -20.623-103.191  -6.565  0.00  0.00    +0.116 A 
ATOM      7  N   UNL     1     -21.012-101.962  -6.080  0.00  0.00    -0.223 NA
ATOM      8  C   UNL     1     -20.884-101.652  -4.738  0.00  0.00    +0.220 A 
ATOM      9  N   UNL     1     -21.262-100.419  -4.229  0.00  0.00    -0.283 N 
ATOM     36  H   UNL     1     -21.158-100.232  -3.232  0.00  0.00    +0.155 HD
ATOM     37  N   UNL     1     -20.371-102.561  -3.883  0.00  0.00    -0.214 NA
BRANCH   4   3
ATOM      1  C   UNL     1     -18.019-105.184  -1.204  0.00  0.00    +0.020 A 
ATOM      2  C   UNL     1     -18.530-104.259  -2.189  0.00  0.00    +0.013 A 
ATOM      3  C   UNL     1     -19.403-104.720  -3.261  0.00  0.00    +0.019 A 
ATOM     38  C   UNL     1     -19.744-106.134  -3.308  0.00  0.00    +0.120 A 
ATOM     39  N   UNL     1     -19.236-107.002  -2.346  0.00  0.00    -0.263 NA
ATOM     40  C   UNL     1     -18.393-106.570  -1.311  0.00  0.00    +0.111 A 
ENDBRANCH   4   3
ENDBRANCH  10   9
BRANCH  12  13
ATOM     13  N   UNL     1     -20.510 -96.536  -7.248  0.00  0.00    -0.281 N 
ATOM     14  C   UNL     1     -19.294 -96.036  -6.814  0.00  0.00    +0.248 C 
ATOM     30  O   UNL     1     -18.861 -96.160  -5.677  0.00  0.00    -0.270 OA
ATOM     31  H   UNL     1     -20.837 -96.198  -8.153  0.00  0.00    +0.155 HD
BRANCH  14  15
ATOM     15  C   UNL     1     -18.440 -95.276  -7.777  0.00  0.00    +0.037 A 
ATOM     16  C   UNL     1     -18.236 -93.832  -7.636  0.00  0.00    +0.013 A 
ATOM     17  C   UNL     1     -17.422 -93.120  -8.589  0.00  0.00    +0.005 A 
ATOM     18  C   UNL     1     -16.804 -93.853  -9.691  0.00  0.00    -0.033 A 
ATOM     28  C   UNL     1     -17.019 -95.286  -9.805  0.00  0.00    +0.005 A 
ATOM     29  C   UNL     1     -17.817 -95.987  -8.873  0.00  0.00    +0.013 A 
BRANCH  18  19
ATOM     19  C   UNL     1     -15.937 -93.171 -10.767  0.00  0.00    +0.119 C 
BRANCH  19  20
ATOM     20  N   UNL     1     -16.236 -93.496 -12.193  0.00  0.00    -0.302 NA
ATOM     21  C   UNL     1     -14.965 -93.790 -12.994  0.00  0.00    +0.066 C 
ATOM     22  C   UNL     1     -15.298 -94.150 -14.479  0.00  0.00    -0.064 C 
ATOM     23  N   UNL     1     -16.086 -93.003 -15.114  0.00  0.00    +0.379 N 
ATOM     24  C   UNL     1     -16.350 -93.312 -16.527  0.00  0.00    -0.096 C 
ATOM     25  H   UNL     1     -15.442 -92.093 -15.082  0.00  0.00    -0.082 HD
ATOM     26  C   UNL     1     -17.350 -92.702 -14.322  0.00  0.00    -0.064 C 
ATOM     27  C   UNL     1     -17.010 -92.375 -12.841  0.00  0.00    +0.066 C 
ENDBRANCH  19  20
ENDBRANCH  18  19
ENDBRANCH  14  15
ENDBRANCH  12  13
TORSDOF 6
ENDMDL
MODEL 4
REMARK VINA RESULT:      -8.0     20.921     28.740
REMARK  Name = C:\Users\Docking\Desktop\test protocol\1iep_ligandH.pdb
REMARK  8 active torsions:
REMARK  status: ('A' for Active; 'I' for Inactive)
REMARK    1  A    between atoms: _5  and  _11
REMARK    2  A    between atoms: _19  and  _21
REMARK    3  A    between atoms: _22  and  _66
REMARK    4  A    between atoms: _27  and  _30
REMARK    5  A    between atoms: _32  and  _33
REMARK    6  A    between atoms: _38  and  _43
REMARK    7  A    between atoms: _43  and  _46
REMARK    8  A    between atoms: _53  and  _55
REMARK                            x       y       z     vdW  Elec       q    Type
REMARK                         _______ _______ _______ _____ _____    ______ ____
ROOT
ATOM     10  C   UNL     1     -14.518-100.428 -12.657  0.00  0.00    +0.038 A 
ATOM     11  C   UNL     1     -15.467-100.686 -11.635  0.00  0.00    +0.047 A 
ATOM     12  C   UNL     1     -15.248-101.736 -10.652  0.00  0.00    +0.035 A 
ATOM     32  C   UNL     1     -14.050-102.503 -10.739  0.00  0.00    +0.024 A 
ATOM     33  C   UNL     1     -13.075-102.255 -11.772  0.00  0.00    +0.007 A 
ATOM     34  C   UNL     1     -13.287-101.222 -12.745  0.00  0.00    -0.029 A 
ATOM     35  C   UNL     1     -12.211-101.004 -13.834  0.00  0.00    +0.045 C 
ENDROOT
BRANCH  10   9
ATOM      4  C   UNL     1     -16.276 -96.109 -13.797  0.00  0.00    +0.077 A 
ATOM      5  C   UNL     1     -16.736 -95.878 -12.458  0.00  0.00    +0.048 A 
ATOM      6  C   UNL     1     -16.507 -96.898 -11.508  0.00  0.00    +0.116 A 
ATOM      7  N   UNL     1     -15.865 -98.059 -11.879  0.00  0.00    -0.223 NA
ATOM      8  C   UNL     1     -15.435 -98.251 -13.180  0.00  0.00    +0.220 A 
ATOM      9  N   UNL     1     -14.780 -99.407 -13.574  0.00  0.00    -0.283 N 
ATOM     36  H   UNL     1     -14.485 -99.514 -14.544  0.00  0.00    +0.155 HD
ATOM     37  N   UNL     1     -15.643 -97.293 -14.106  0.00  0.00    -0.214 NA
BRANCH   4   3
ATOM      1  C   UNL     1     -15.984 -92.906 -16.022  0.00  0.00    +0.020 A 
ATOM      2  C   UNL     1     -15.793 -93.819 -14.919  0.00  0.00    +0.013 A 
ATOM      3  C   UNL     1     -16.440 -95.125 -14.913  0.00  0.00    +0.019 A 
ATOM     38  C   UNL     1     -17.282 -95.478 -16.046  0.00  0.00    +0.120 A 
ATOM     39  N   UNL     1     -17.449 -94.577 -17.093  0.00  0.00    -0.263 NA
ATOM     40  C   UNL     1     -16.832 -93.318 -17.110  0.00  0.00    +0.111 A 
ENDBRANCH   4   3
ENDBRANCH  10   9
BRANCH  12  13
ATOM     13  N   UNL     1     -16.180-102.049  -9.597  0.00  0.00    -0.281 N 
ATOM     14  C   UNL     1     -16.838-101.169  -8.753  0.00  0.00    +0.248 C 
ATOM     30  O   UNL     1     -16.561 -99.985  -8.638  0.00  0.00    -0.270 OA
ATOM     31  H   UNL     1     -16.378-103.039  -9.455  0.00  0.00    +0.155 HD
BRANCH  14  15
ATOM     15  C   UNL     1     -17.957-101.683  -7.905  0.00  0.00    +0.037 A 
ATOM     16  C   UNL     1     -18.579-100.843  -6.878  0.00  0.00    +0.013 A 
ATOM     17  C   UNL     1     -19.644-101.368  -6.062  0.00  0.00    +0.005 A 
ATOM     18  C   UNL     1     -20.096-102.742  -6.272  0.00  0.00    -0.033 A 
ATOM     28  C   UNL     1     -19.465-103.551  -7.301  0.00  0.00    +0.005 A 
ATOM     29  C   UNL     1     -18.419-103.040  -8.102  0.00  0.00    +0.013 A 
BRANCH  18  19
ATOM     19  C   UNL     1     -21.212-103.392  -5.433  0.00  0.00    +0.119 C 
BRANCH  19  20
ATOM     20  N   UNL     1     -20.798-104.161  -4.221  0.00  0.00    -0.302 NA
ATOM     21  C   UNL     1     -19.534-103.582  -3.578  0.00  0.00    +0.066 C 
ATOM     22  C   UNL     1     -19.128-104.384  -2.299  0.00  0.00    -0.064 C 
ATOM     23  N   UNL     1     -18.924-105.855  -2.667  0.00  0.00    +0.379 N 
ATOM     24  C   UNL     1     -18.485-106.601  -1.478  0.00  0.00    -0.096 C 
ATOM     25  H   UNL     1     -18.103-105.904  -3.419  0.00  0.00    -0.082 HD
ATOM     26  C   UNL     1     -20.174-106.438  -3.309  0.00  0.00    -0.064 C 
ATOM     27  C   UNL     1     -20.586-105.615  -4.562  0.00  0.00    +0.066 C 
ENDBRANCH  19  20
ENDBRANCH  18  19
ENDBRANCH  14  15
ENDBRANCH  12  13
TORSDOF 6
ENDMDL
MODEL 5
REMARK VINA RESULT:      -7.9     23.263     29.586
REMARK  Name = C:\Users\Docking\Desktop\test protocol\1iep_ligandH.pdb
REMARK  8 active torsions:
REMARK  status: ('A' for Active; 'I' for Inactive)
REMARK    1  A    between atoms: _5  and  _11
REMARK    2  A    between atoms: _19  and  _21
REMARK    3  A    between atoms: _22  and  _66
REMARK    4  A    between atoms: _27  and  _30
REMARK    5  A    between atoms: _32  and  _33
REMARK    6  A    between atoms: _38  and  _43
REMARK    7  A    between atoms: _43  and  _46
REMARK    8  A    between atoms: _53  and  _55
REMARK                            x       y       z     vdW  Elec       q    Type
REMARK                         _______ _______ _______ _____ _____    ______ ____
ROOT
ATOM     10  C   UNL     1     -19.852-101.452  -6.407  0.00  0.00    +0.038 A 
ATOM     11  C   UNL     1     -18.797-101.731  -7.313  0.00  0.00    +0.047 A 
ATOM     12  C   UNL     1     -17.801-100.723  -7.642  0.00  0.00    +0.035 A 
ATOM     32  C   UNL     1     -17.909 -99.441  -7.027  0.00  0.00    +0.024 A 
ATOM     33  C   UNL     1     -18.976 -99.140  -6.105  0.00  0.00    +0.007 A 
ATOM     34  C   UNL     1     -19.962-100.130  -5.779  0.00  0.00    -0.029 A 
ATOM     35  C   UNL     1     -21.088 -99.750  -4.789  0.00  0.00    +0.045 C 
ENDROOT
BRANCH  10   9
ATOM      4  C   UNL     1     -21.634-104.902  -3.586  0.00  0.00    +0.077 A 
ATOM      5  C   UNL     1     -20.614-104.703  -2.598  0.00  0.00    +0.048 A 
ATOM      6  C   UNL     1     -19.645-103.708  -2.857  0.00  0.00    +0.116 A 
ATOM      7  N   UNL     1     -19.702-102.972  -4.021  0.00  0.00    -0.223 NA
ATOM      8  C   UNL     1     -20.699-103.191  -4.954  0.00  0.00    +0.220 A 
ATOM      9  N   UNL     1     -20.780-102.457  -6.128  0.00  0.00    -0.283 N 
ATOM     36  H   UNL     1     -21.527-102.654  -6.794  0.00  0.00    +0.155 HD
ATOM     37  N   UNL     1     -21.635-104.136  -4.731  0.00  0.00    -0.214 NA
BRANCH   4   3
ATOM      1  C   UNL     1     -24.891-106.753  -2.459  0.00  0.00    +0.020 A 
ATOM      2  C   UNL     1     -23.858-105.746  -2.547  0.00  0.00    +0.013 A 
ATOM      3  C   UNL     1     -22.730-105.913  -3.455  0.00  0.00    +0.019 A 
ATOM     38  C   UNL     1     -22.677-107.120  -4.267  0.00  0.00    +0.120 A 
ATOM     39  N   UNL     1     -23.685-108.073  -4.160  0.00  0.00    -0.263 NA
ATOM     40  C   UNL     1     -24.774-107.924  -3.288  0.00  0.00    +0.111 A 
ENDBRANCH   4   3
ENDBRANCH  10   9
BRANCH  12  13
ATOM     13  N   UNL     1     -16.712-100.946  -8.560  0.00  0.00    -0.281 N 
ATOM     14  C   UNL     1     -16.716-101.708  -9.717  0.00  0.00    +0.248 C 
ATOM     30  O   UNL     1     -17.602-102.490 -10.026  0.00  0.00    -0.270 OA
ATOM     31  H   UNL     1     -15.831-100.486  -8.329  0.00  0.00    +0.155 HD
BRANCH  14  15
ATOM     15  C   UNL     1     -15.562-101.594 -10.660  0.00  0.00    +0.037 A 
ATOM     16  C   UNL     1     -14.412-102.497 -10.567  0.00  0.00    +0.013 A 
ATOM     17  C   UNL     1     -13.305-102.355 -11.478  0.00  0.00    +0.005 A 
ATOM     18  C   UNL     1     -13.343-101.305 -12.493  0.00  0.00    -0.033 A 
ATOM     28  C   UNL     1     -14.498-100.426 -12.567  0.00  0.00    +0.005 A 
ATOM     29  C   UNL     1     -15.585-100.562 -11.675  0.00  0.00    +0.013 A 
BRANCH  18  19
ATOM     19  C   UNL     1     -12.196-101.067 -13.494  0.00  0.00    +0.119 C 
BRANCH  19  20
ATOM     20  N   UNL     1     -12.572-100.654 -14.879  0.00  0.00    -0.302 NA
ATOM     21  C   UNL     1     -11.497-101.029 -15.902  0.00  0.00    +0.066 C 
ATOM     22  C   UNL     1     -11.917-100.610 -17.349  0.00  0.00    -0.064 C 
ATOM     23  N   UNL     1     -12.192 -99.105 -17.380  0.00  0.00    +0.379 N 
ATOM     24  C   UNL     1     -12.531 -98.698 -18.752  0.00  0.00    -0.096 C 
ATOM     25  H   UNL     1     -11.250 -98.583 -17.095  0.00  0.00    -0.082 HD
ATOM     26  C   UNL     1     -13.258 -98.723 -16.364  0.00  0.00    -0.064 C 
ATOM     27  C   UNL     1     -12.845 -99.171 -14.934  0.00  0.00    +0.066 C 
ENDBRANCH  19  20
ENDBRANCH  18  19
ENDBRANCH  14  15
ENDBRANCH  12  13
TORSDOF 6
ENDMDL
