MODEL 1
REMARK VINA RESULT:      -7.4      0.000      0.000
REMARK  Name = C:\Users\Docking\Desktop\test protocol\1iep_ligandH.pdb
REMARK  8 active torsions:
REMARK  status: ('A' for Active; 'I' for Inactive)
REMARK    1  A    between atoms: _5  and  _11
REMARK    2  A    between atoms: _19  and  _21
REMARK    3  A    between atoms: _22  and  _66
REMARK    4  A    between atoms: _27  and  _30
REMARK    5  A    between atoms: _32  and  _33
REMARK    6  A    between atoms: _38  and  _43
REMARK    7  A    between atoms: _43  and  _46
REMARK    8  A    between atoms: _53  and  _55
REMARK                            x       y       z     vdW  Elec       q    Type
REMARK                         _______ _______ _______ _____ _____    ______ ____
ROOT
ATOM     10  C   UNL     1      15.396  34.622  63.155  0.00  0.00    +0.038 A 
ATOM     11  C   UNL     1      15.226  34.438  61.759  0.00  0.00    +0.047 A 
ATOM     12  C   UNL     1      14.789  33.162  61.215  0.00  0.00    +0.035 A 
ATOM     32  C   UNL     1      14.532  32.094  62.123  0.00  0.00    +0.024 A 
ATOM     33  C   UNL     1      14.700  32.263  63.545  0.00  0.00    +0.007 A 
ATOM     34  C   UNL     1      15.134  33.519  64.087  0.00  0.00    -0.029 A 
ATOM     35  C   UNL     1      15.304  33.641  65.619  0.00  0.00    +0.045 C 
ENDROOT
BRANCH  10   9
ATOM      4  C   UNL     1      18.827  37.812  64.201  0.00  0.00    +0.077 A 
ATOM      5  C   UNL     1      19.869  36.907  63.809  0.00  0.00    +0.048 A 
ATOM      6  C   UNL     1      19.481  35.629  63.351  0.00  0.00    +0.116 A 
ATOM      7  N   UNL     1      18.146  35.290  63.292  0.00  0.00    -0.223 NA
ATOM      8  C   UNL     1      17.166  36.185  63.679  0.00  0.00    +0.220 A 
ATOM      9  N   UNL     1      15.817  35.869  63.622  0.00  0.00    -0.283 N 
ATOM     36  H   UNL     1      15.125  36.555  63.923  0.00  0.00    +0.155 HD
ATOM     37  N   UNL     1      17.511  37.412  64.122  0.00  0.00    -0.214 NA
BRANCH   4   3
ATOM      1  C   UNL     1      20.582  41.169  65.174  0.00  0.00    +0.020 A 
ATOM      2  C   UNL     1      20.393  39.826  64.677  0.00  0.00    +0.013 A 
ATOM      3  C   UNL     1      19.078  39.200  64.703  0.00  0.00    +0.019 A 
ATOM     38  C   UNL     1      17.965  39.966  65.243  0.00  0.00    +0.120 A 
ATOM     39  N   UNL     1      18.176  41.257  65.716  0.00  0.00    -0.263 NA
ATOM     40  C   UNL     1      19.438  41.870  65.697  0.00  0.00    +0.111 A 
ENDBRANCH   4   3
ENDBRANCH  10   9
BRANCH  12  13
ATOM     13  N   UNL     1      14.607  32.914  59.807  0.00  0.00    -0.281 N 
ATOM     14  C   UNL     1      15.359  32.093  58.982  0.00  0.00    +0.248 C 
ATOM     30  O   UNL     1      16.439  31.610  59.287  0.00  0.00    -0.270 OA
ATOM     31  H   UNL     1      13.829  33.403  59.363  0.00  0.00    +0.155 HD
BRANCH  14  15
ATOM     15  C   UNL     1      14.843  31.774  57.616  0.00  0.00    +0.037 A 
ATOM     16  C   UNL     1      14.868  32.771  56.543  0.00  0.00    +0.013 A 
ATOM     17  C   UNL     1      14.349  32.443  55.239  0.00  0.00    +0.005 A 
ATOM     18  C   UNL     1      13.801  31.110  55.000  0.00  0.00    -0.033 A 
ATOM     28  C   UNL     1      13.794  30.139  56.082  0.00  0.00    +0.005 A 
ATOM     29  C   UNL     1      14.301  30.457  57.361  0.00  0.00    +0.013 A 
BRANCH  18  19
ATOM     19  C   UNL     1      13.206  30.680  53.646  0.00  0.00    +0.119 C 
BRANCH  19  20
ATOM     20  N   UNL     1      11.856  31.211  53.293  0.00  0.00    -0.302 NA
ATOM     21  C   UNL     1      11.938  32.570  52.593  0.00  0.00    +0.066 C 
ATOM     22  C   UNL     1      10.518  33.100  52.211  0.00  0.00    -0.064 C 
ATOM     23  N   UNL     1       9.654  33.190  53.470  0.00  0.00    +0.379 N 
ATOM     24  C   UNL     1       8.337  33.743  53.122  0.00  0.00    -0.096 C 
ATOM     25  H   UNL     1      10.148  33.906  54.168  0.00  0.00    -0.082 HD
ATOM     26  C   UNL     1       9.569  31.843  54.173  0.00  0.00    -0.064 C 
ATOM     27  C   UNL     1      10.987  31.312  54.523  0.00  0.00    +0.066 C 
ENDBRANCH  19  20
ENDBRANCH  18  19
ENDBRANCH  14  15
ENDBRANCH  12  13
TORSDOF 6
ENDMDL
MODEL 2
REMARK VINA RESULT:      -7.4     16.991     21.405
REMARK  Name = C:\Users\Docking\Desktop\test protocol\1iep_ligandH.pdb
REMARK  8 active torsions:
REMARK  status: ('A' for Active; 'I' for Inactive)
REMARK    1  A    between atoms: _5  and  _11
REMARK    2  A    between atoms: _19  and  _21
REMARK    3  A    between atoms: _22  and  _66
REMARK    4  A    between atoms: _27  and  _30
REMARK    5  A    between atoms: _32  and  _33
REMARK    6  A    between atoms: _38  and  _43
REMARK    7  A    between atoms: _43  and  _46
REMARK    8  A    between atoms: _53  and  _55
REMARK                            x       y       z     vdW  Elec       q    Type
REMARK                         _______ _______ _______ _____ _____    ______ ____
ROOT
ATOM     10  C   UNL     1      23.204  37.949  73.894  0.00  0.00    +0.038 A 
ATOM     11  C   UNL     1      23.541  39.325  73.818  0.00  0.00    +0.047 A 
ATOM     12  C   UNL     1      24.723  39.771  73.098  0.00  0.00    +0.035 A 
ATOM     32  C   UNL     1      25.539  38.790  72.463  0.00  0.00    +0.024 A 
ATOM     33  C   UNL     1      25.212  37.387  72.531  0.00  0.00    +0.007 A 
ATOM     34  C   UNL     1      24.048  36.940  73.243  0.00  0.00    -0.029 A 
ATOM     35  C   UNL     1      23.750  35.424  73.288  0.00  0.00    +0.045 C 
ENDROOT
BRANCH  10   9
ATOM      4  C   UNL     1      20.867  37.003  77.978  0.00  0.00    +0.077 A 
ATOM      5  C   UNL     1      22.037  37.245  78.773  0.00  0.00    +0.048 A 
ATOM      6  C   UNL     1      23.221  37.605  78.091  0.00  0.00    +0.116 A 
ATOM      7  N   UNL     1      23.224  37.711  76.717  0.00  0.00    -0.223 NA
ATOM      8  C   UNL     1      22.079  37.468  75.981  0.00  0.00    +0.220 A 
ATOM      9  N   UNL     1      22.057  37.577  74.599  0.00  0.00    -0.283 N 
ATOM     36  H   UNL     1      21.195  37.382  74.091  0.00  0.00    +0.155 HD
ATOM     37  N   UNL     1      20.936  37.122  76.608  0.00  0.00    -0.214 NA
BRANCH   4   3
ATOM      1  C   UNL     1      18.043  35.939  80.466  0.00  0.00    +0.020 A 
ATOM      2  C   UNL     1      19.346  36.305  79.963  0.00  0.00    +0.013 A 
ATOM      3  C   UNL     1      19.539  36.618  78.552  0.00  0.00    +0.019 A 
ATOM     38  C   UNL     1      18.383  36.552  77.671  0.00  0.00    +0.120 A 
ATOM     39  N   UNL     1      17.139  36.196  78.185  0.00  0.00    -0.263 NA
ATOM     40  C   UNL     1      16.942  35.891  79.540  0.00  0.00    +0.111 A 
ENDBRANCH   4   3
ENDBRANCH  10   9
BRANCH  12  13
ATOM     13  N   UNL     1      25.120  41.154  72.993  0.00  0.00    -0.281 N 
ATOM     14  C   UNL     1      24.590  42.132  72.168  0.00  0.00    +0.248 C 
ATOM     30  O   UNL     1      23.831  41.913  71.236  0.00  0.00    -0.270 OA
ATOM     31  H   UNL     1      25.885  41.447  73.601  0.00  0.00    +0.155 HD
BRANCH  14  15
ATOM     15  C   UNL     1      24.968  43.559  72.404  0.00  0.00    +0.037 A 
ATOM     16  C   UNL     1      24.744  44.200  73.702  0.00  0.00    +0.013 A 
ATOM     17  C   UNL     1      25.103  45.582  73.898  0.00  0.00    +0.005 A 
ATOM     18  C   UNL     1      25.692  46.333  72.791  0.00  0.00    -0.033 A 
ATOM     28  C   UNL     1      25.908  45.670  71.516  0.00  0.00    +0.005 A 
ATOM     29  C   UNL     1      25.557  44.316  71.320  0.00  0.00    +0.013 A 
BRANCH  18  19
ATOM     19  C   UNL     1      26.086  47.817  72.903  0.00  0.00    +0.119 C 
BRANCH  19  20
ATOM     20  N   UNL     1      27.416  48.128  73.508  0.00  0.00    -0.302 NA
ATOM     21  C   UNL     1      27.309  48.426  75.007  0.00  0.00    +0.066 C 
ATOM     22  C   UNL     1      28.712  48.727  75.628  0.00  0.00    -0.064 C 
ATOM     23  N   UNL     1      29.354  49.901  74.886  0.00  0.00    +0.379 N 
ATOM     24  C   UNL     1      30.648  50.223  75.506  0.00  0.00    -0.096 C 
ATOM     25  H   UNL     1      28.688  50.786  75.013  0.00  0.00    -0.082 HD
ATOM     26  C   UNL     1      29.461  49.614  73.395  0.00  0.00    -0.064 C 
ATOM     27  C   UNL     1      28.066  49.287  72.794  0.00  0.00    +0.066 C 
ENDBRANCH  19  20
ENDBRANCH  18  19
ENDBRANCH  14  15
ENDBRANCH  12  13
TORSDOF 6
ENDMDL
MODEL 3
REMARK VINA RESULT:      -7.3     10.465     20.135
REMARK  Name = C:\Users\Docking\Desktop\test protocol\1iep_ligandH.pdb
REMARK  8 active torsions:
REMARK  status: ('A' for Active; 'I' for Inactive)
REMARK    1  A    between atoms: _5  and  _11
REMARK    2  A    between atoms: _19  and  _21
REMARK    3  A    between atoms: _22  and  _66
REMARK    4  A    between atoms: _27  and  _30
REMARK    5  A    between atoms: _32  and  _33
REMARK    6  A    between atoms: _38  and  _43
REMARK    7  A    between atoms: _43  and  _46
REMARK    8  A    between atoms: _53  and  _55
REMARK                            x       y       z     vdW  Elec       q    Type
REMARK                         _______ _______ _______ _____ _____    ______ ____
ROOT
ATOM     10  C   UNL     1      22.564  46.674  64.794  0.00  0.00    +0.038 A 
ATOM     11  C   UNL     1      21.691  47.711  65.212  0.00  0.00    +0.047 A 
ATOM     12  C   UNL     1      22.053  48.607  66.298  0.00  0.00    +0.035 A 
ATOM     32  C   UNL     1      23.315  48.421  66.936  0.00  0.00    +0.024 A 
ATOM     33  C   UNL     1      24.214  47.372  66.525  0.00  0.00    +0.007 A 
ATOM     34  C   UNL     1      23.861  46.483  65.455  0.00  0.00    -0.029 A 
ATOM     35  C   UNL     1      24.861  45.371  65.061  0.00  0.00    +0.045 C 
ENDROOT
BRANCH  10   9
ATOM      4  C   UNL     1      20.243  42.838  63.082  0.00  0.00    +0.077 A 
ATOM      5  C   UNL     1      19.810  42.442  64.391  0.00  0.00    +0.048 A 
ATOM      6  C   UNL     1      20.212  43.249  65.479  0.00  0.00    +0.116 A 
ATOM      7  N   UNL     1      20.989  44.366  65.262  0.00  0.00    -0.223 NA
ATOM      8  C   UNL     1      21.391  44.719  63.987  0.00  0.00    +0.220 A 
ATOM      9  N   UNL     1      22.166  45.842  63.745  0.00  0.00    -0.283 N 
ATOM     36  H   UNL     1      22.448  46.064  62.791  0.00  0.00    +0.155 HD
ATOM     37  N   UNL     1      21.022  43.964  62.931  0.00  0.00    -0.214 NA
BRANCH   4   3
ATOM      1  C   UNL     1      18.439  40.526  60.493  0.00  0.00    +0.020 A 
ATOM      2  C   UNL     1      18.728  41.226  61.723  0.00  0.00    +0.013 A 
ATOM      3  C   UNL     1      19.898  42.090  61.832  0.00  0.00    +0.019 A 
ATOM     38  C   UNL     1      20.760  42.225  60.668  0.00  0.00    +0.120 A 
ATOM     39  N   UNL     1      20.457  41.537  59.497  0.00  0.00    -0.263 NA
ATOM     40  C   UNL     1      19.336  40.702  59.381  0.00  0.00    +0.111 A 
ENDBRANCH   4   3
ENDBRANCH  10   9
BRANCH  12  13
ATOM     13  N   UNL     1      21.205  49.673  66.771  0.00  0.00    -0.281 N 
ATOM     14  C   UNL     1      21.316  51.029  66.513  0.00  0.00    +0.248 C 
ATOM     30  O   UNL     1      22.294  51.558  66.005  0.00  0.00    -0.270 OA
ATOM     31  H   UNL     1      20.427  49.393  67.369  0.00  0.00    +0.155 HD
BRANCH  14  15
ATOM     15  C   UNL     1      20.183  51.930  66.884  0.00  0.00    +0.037 A 
ATOM     16  C   UNL     1      19.035  52.114  65.992  0.00  0.00    +0.013 A 
ATOM     17  C   UNL     1      17.963  53.003  66.367  0.00  0.00    +0.005 A 
ATOM     18  C   UNL     1      18.035  53.713  67.642  0.00  0.00    -0.033 A 
ATOM     28  C   UNL     1      19.183  53.508  68.509  0.00  0.00    +0.005 A 
ATOM     29  C   UNL     1      20.235  52.639  68.145  0.00  0.00    +0.013 A 
BRANCH  18  19
ATOM     19  C   UNL     1      16.947  54.697  68.113  0.00  0.00    +0.119 C 
BRANCH  19  20
ATOM     20  N   UNL     1      17.381  55.829  68.985  0.00  0.00    -0.302 NA
ATOM     21  C   UNL     1      16.346  56.150  70.067  0.00  0.00    +0.066 C 
ATOM     22  C   UNL     1      16.826  57.322  70.984  0.00  0.00    -0.064 C 
ATOM     23  N   UNL     1      17.110  58.555  70.124  0.00  0.00    +0.379 N 
ATOM     24  C   UNL     1      17.506  59.676  70.989  0.00  0.00    -0.096 C 
ATOM     25  H   UNL     1      16.159  58.838  69.616  0.00  0.00    -0.082 HD
ATOM     26  C   UNL     1      18.136  58.244  69.043  0.00  0.00    -0.064 C 
ATOM     27  C   UNL     1      17.663  57.059  68.156  0.00  0.00    +0.066 C 
ENDBRANCH  19  20
ENDBRANCH  18  19
ENDBRANCH  14  15
ENDBRANCH  12  13
TORSDOF 6
ENDMDL
MODEL 4
REMARK VINA RESULT:      -7.2      7.843     14.756
REMARK  Name = C:\Users\Docking\Desktop\test protocol\1iep_ligandH.pdb
REMARK  8 active torsions:
REMARK  status: ('A' for Active; 'I' for Inactive)
REMARK    1  A    between atoms: _5  and  _11
REMARK    2  A    between atoms: _19  and  _21
REMARK    3  A    between atoms: _22  and  _66
REMARK    4  A    between atoms: _27  and  _30
REMARK    5  A    between atoms: _32  and  _33
REMARK    6  A    between atoms: _38  and  _43
REMARK    7  A    between atoms: _43  and  _46
REMARK    8  A    between atoms: _53  and  _55
REMARK                            x       y       z     vdW  Elec       q    Type
REMARK                         _______ _______ _______ _____ _____    ______ ____
ROOT
ATOM     10  C   UNL     1      22.430  48.156  66.321  0.00  0.00    +0.038 A 
ATOM     11  C   UNL     1      21.663  47.002  66.018  0.00  0.00    +0.047 A 
ATOM     12  C   UNL     1      22.248  45.874  65.310  0.00  0.00    +0.035 A 
ATOM     32  C   UNL     1      23.619  45.954  64.928  0.00  0.00    +0.024 A 
ATOM     33  C   UNL     1      24.413  47.120  65.227  0.00  0.00    +0.007 A 
ATOM     34  C   UNL     1      23.841  48.237  65.923  0.00  0.00    -0.029 A 
ATOM     35  C   UNL     1      24.737  49.463  66.211  0.00  0.00    +0.045 C 
ENDROOT
BRANCH  10   9
ATOM      4  C   UNL     1      19.990  52.288  66.411  0.00  0.00    +0.077 A 
ATOM      5  C   UNL     1      19.956  52.368  64.979  0.00  0.00    +0.048 A 
ATOM      6  C   UNL     1      20.584  51.329  64.256  0.00  0.00    +0.116 A 
ATOM      7  N   UNL     1      21.198  50.293  64.926  0.00  0.00    -0.223 NA
ATOM      8  C   UNL     1      21.213  50.247  66.308  0.00  0.00    +0.220 A 
ATOM      9  N   UNL     1      21.817  49.210  67.002  0.00  0.00    -0.283 N 
ATOM     36  H   UNL     1      21.814  49.217  68.022  0.00  0.00    +0.155 HD
ATOM     37  N   UNL     1      20.621  51.228  67.021  0.00  0.00    -0.214 NA
BRANCH   4   3
ATOM      1  C   UNL     1      17.375  54.464  68.342  0.00  0.00    +0.020 A 
ATOM      2  C   UNL     1      17.925  53.465  67.456  0.00  0.00    +0.013 A 
ATOM      3  C   UNL     1      19.367  53.308  67.314  0.00  0.00    +0.019 A 
ATOM     38  C   UNL     1      20.231  54.185  68.089  0.00  0.00    +0.120 A 
ATOM     39  N   UNL     1      19.673  55.140  68.933  0.00  0.00    -0.263 NA
ATOM     40  C   UNL     1      18.287  55.301  69.076  0.00  0.00    +0.111 A 
ENDBRANCH   4   3
ENDBRANCH  10   9
BRANCH  12  13
ATOM     13  N   UNL     1      21.517  44.680  64.968  0.00  0.00    -0.281 N 
ATOM     14  C   UNL     1      21.603  43.430  65.558  0.00  0.00    +0.248 C 
ATOM     30  O   UNL     1      22.483  43.092  66.336  0.00  0.00    -0.270 OA
ATOM     31  H   UNL     1      20.855  44.766  64.196  0.00  0.00    +0.155 HD
BRANCH  14  15
ATOM     15  C   UNL     1      20.571  42.401  65.225  0.00  0.00    +0.037 A 
ATOM     16  C   UNL     1      20.063  41.478  66.243  0.00  0.00    +0.013 A 
ATOM     17  C   UNL     1      19.080  40.484  65.891  0.00  0.00    +0.005 A 
ATOM     18  C   UNL     1      18.598  40.409  64.514  0.00  0.00    -0.033 A 
ATOM     28  C   UNL     1      19.115  41.341  63.526  0.00  0.00    +0.005 A 
ATOM     29  C   UNL     1      20.080  42.316  63.867  0.00  0.00    +0.013 A 
BRANCH  18  19
ATOM     19  C   UNL     1      17.566  39.367  64.045  0.00  0.00    +0.119 C 
BRANCH  19  20
ATOM     20  N   UNL     1      18.080  38.016  63.668  0.00  0.00    -0.302 NA
ATOM     21  C   UNL     1      19.439  38.095  62.967  0.00  0.00    +0.066 C 
ATOM     22  C   UNL     1      19.973  36.672  62.600  0.00  0.00    -0.064 C 
ATOM     23  N   UNL     1      18.948  35.957  61.718  0.00  0.00    +0.379 N 
ATOM     24  C   UNL     1      19.473  34.641  61.324  0.00  0.00    -0.096 C 
ATOM     25  H   UNL     1      18.821  36.562  60.790  0.00  0.00    -0.082 HD
ATOM     26  C   UNL     1      17.594  35.877  62.407  0.00  0.00    -0.064 C 
ATOM     27  C   UNL     1      17.086  37.295  62.793  0.00  0.00    +0.066 C 
ENDBRANCH  19  20
ENDBRANCH  18  19
ENDBRANCH  14  15
ENDBRANCH  12  13
TORSDOF 6
ENDMDL
MODEL 5
REMARK VINA RESULT:      -7.2      8.980     16.298
REMARK  Name = C:\Users\Docking\Desktop\test protocol\1iep_ligandH.pdb
REMARK  8 active torsions:
REMARK  status: ('A' for Active; 'I' for Inactive)
REMARK    1  A    between atoms: _5  and  _11
REMARK    2  A    between atoms: _19  and  _21
REMARK    3  A    between atoms: _22  and  _66
REMARK    4  A    between atoms: _27  and  _30
REMARK    5  A    between atoms: _32  and  _33
REMARK    6  A    between atoms: _38  and  _43
REMARK    7  A    between atoms: _43  and  _46
REMARK    8  A    between atoms: _53  and  _55
REMARK                            x       y       z     vdW  Elec       q    Type
REMARK                         _______ _______ _______ _____ _____    ______ ____
ROOT
ATOM     10  C   UNL     1      22.075  50.201  66.305  0.00  0.00    +0.038 A 
ATOM     11  C   UNL     1      21.686  48.842  66.184  0.00  0.00    +0.047 A 
ATOM     12  C   UNL     1      22.544  47.870  65.525  0.00  0.00    +0.035 A 
ATOM     32  C   UNL     1      23.793  48.315  65.004  0.00  0.00    +0.024 A 
ATOM     33  C   UNL     1      24.204  49.692  65.117  0.00  0.00    +0.007 A 
ATOM     34  C   UNL     1      23.360  50.657  65.763  0.00  0.00    -0.029 A 
ATOM     35  C   UNL     1      23.849  52.122  65.850  0.00  0.00    +0.045 C 
ENDROOT
BRANCH  10   9
ATOM      4  C   UNL     1      18.468  53.367  66.271  0.00  0.00    +0.077 A 
ATOM      5  C   UNL     1      18.306  53.257  64.850  0.00  0.00    +0.048 A 
ATOM      6  C   UNL     1      19.176  52.380  64.164  0.00  0.00    +0.116 A 
ATOM      7  N   UNL     1      20.132  51.671  64.858  0.00  0.00    -0.223 NA
ATOM      8  C   UNL     1      20.262  51.801  66.228  0.00  0.00    +0.220 A 
ATOM      9  N   UNL     1      21.212  51.092  66.947  0.00  0.00    -0.283 N 
ATOM     36  H   UNL     1      21.281  51.221  67.956  0.00  0.00    +0.155 HD
ATOM     37  N   UNL     1      19.445  52.633  66.906  0.00  0.00    -0.214 NA
BRANCH   4   3
ATOM      1  C   UNL     1      16.026  56.171  67.486  0.00  0.00    +0.020 A 
ATOM      2  C   UNL     1      16.826  55.349  66.607  0.00  0.00    +0.013 A 
ATOM      3  C   UNL     1      17.623  54.250  67.136  0.00  0.00    +0.019 A 
ATOM     38  C   UNL     1      17.587  54.006  68.570  0.00  0.00    +0.120 A 
ATOM     39  N   UNL     1      16.809  54.815  69.392  0.00  0.00    -0.263 NA
ATOM     40  C   UNL     1      16.040  55.877  68.895  0.00  0.00    +0.111 A 
ENDBRANCH   4   3
ENDBRANCH  10   9
BRANCH  12  13
ATOM     13  N   UNL     1      22.199  46.479  65.366  0.00  0.00    -0.281 N 
ATOM     14  C   UNL     1      22.656  45.398  66.102  0.00  0.00    +0.248 C 
ATOM     30  O   UNL     1      23.600  45.439  66.876  0.00  0.00    -0.270 OA
ATOM     31  H   UNL     1      21.537  46.265  64.619  0.00  0.00    +0.155 HD
BRANCH  14  15
ATOM     15  C   UNL     1      21.974  44.077  65.944  0.00  0.00    +0.037 A 
ATOM     16  C   UNL     1      22.713  42.819  66.081  0.00  0.00    +0.013 A 
ATOM     17  C   UNL     1      22.035  41.559  65.907  0.00  0.00    +0.005 A 
ATOM     18  C   UNL     1      20.608  41.551  65.596  0.00  0.00    -0.033 A 
ATOM     28  C   UNL     1      19.898  42.813  65.471  0.00  0.00    +0.005 A 
ATOM     29  C   UNL     1      20.560  44.050  65.639  0.00  0.00    +0.013 A 
BRANCH  18  19
ATOM     19  C   UNL     1      19.808  40.254  65.373  0.00  0.00    +0.119 C 
BRANCH  19  20
ATOM     20  N   UNL     1      19.316  39.983  63.989  0.00  0.00    -0.302 NA
ATOM     21  C   UNL     1      19.691  41.105  63.016  0.00  0.00    +0.066 C 
ATOM     22  C   UNL     1      19.188  40.795  61.569  0.00  0.00    -0.064 C 
ATOM     23  N   UNL     1      17.673  40.583  61.593  0.00  0.00    +0.379 N 
ATOM     24  C   UNL     1      17.189  40.348  60.224  0.00  0.00    -0.096 C 
ATOM     25  H   UNL     1      17.206  41.525  61.960  0.00  0.00    -0.082 HD
ATOM     26  C   UNL     1      17.292  39.471  62.559  0.00  0.00    -0.064 C 
ATOM     27  C   UNL     1      17.822  39.775  63.989  0.00  0.00    +0.066 C 
ENDBRANCH  19  20
ENDBRANCH  18  19
ENDBRANCH  14  15
ENDBRANCH  12  13
TORSDOF 6
ENDMDL
