MODEL 1
REMARK VINA RESULT:      -8.4      0.000      0.000
REMARK  Name = C:\Users\Docking\Desktop\test protocol\1iep_ligandH.pdb
REMARK  8 active torsions:
REMARK  status: ('A' for Active; 'I' for Inactive)
REMARK    1  A    between atoms: _5  and  _11
REMARK    2  A    between atoms: _19  and  _21
REMARK    3  A    between atoms: _22  and  _66
REMARK    4  A    between atoms: _27  and  _30
REMARK    5  A    between atoms: _32  and  _33
REMARK    6  A    between atoms: _38  and  _43
REMARK    7  A    between atoms: _43  and  _46
REMARK    8  A    between atoms: _53  and  _55
REMARK                            x       y       z     vdW  Elec       q    Type
REMARK                         _______ _______ _______ _____ _____    ______ ____
ROOT
ATOM     10  C   UNL     1       4.441   5.790  20.083  0.00  0.00    +0.038 A 
ATOM     11  C   UNL     1       5.388   6.558  20.808  0.00  0.00    +0.047 A 
ATOM     12  C   UNL     1       5.066   7.110  22.115  0.00  0.00    +0.035 A 
ATOM     32  C   UNL     1       3.771   6.858  22.655  0.00  0.00    +0.024 A 
ATOM     33  C   UNL     1       2.796   6.080  21.931  0.00  0.00    +0.007 A 
ATOM     34  C   UNL     1       3.108   5.535  20.640  0.00  0.00    -0.029 A 
ATOM     35  C   UNL     1       2.022   4.713  19.906  0.00  0.00    +0.045 C 
ENDROOT
BRANCH  10   9
ATOM      4  C   UNL     1       4.778   6.146  15.308  0.00  0.00    +0.077 A 
ATOM      5  C   UNL     1       4.155   7.439  15.302  0.00  0.00    +0.048 A 
ATOM      6  C   UNL     1       3.756   7.973  16.547  0.00  0.00    +0.116 A 
ATOM      7  N   UNL     1       3.970   7.260  17.707  0.00  0.00    -0.223 NA
ATOM      8  C   UNL     1       4.572   6.015  17.678  0.00  0.00    +0.220 A 
ATOM      9  N   UNL     1       4.804   5.284  18.833  0.00  0.00    -0.283 N 
ATOM     36  H   UNL     1       5.244   4.366  18.768  0.00  0.00    +0.155 HD
ATOM     37  N   UNL     1       4.961   5.482  16.501  0.00  0.00    -0.214 NA
BRANCH   4   3
ATOM      1  C   UNL     1       6.291   5.438  11.771  0.00  0.00    +0.020 A 
ATOM      2  C   UNL     1       5.843   6.158  12.941  0.00  0.00    +0.013 A 
ATOM      3  C   UNL     1       5.258   5.450  14.073  0.00  0.00    +0.019 A 
ATOM     38  C   UNL     1       5.141   4.002  13.989  0.00  0.00    +0.120 A 
ATOM     39  N   UNL     1       5.579   3.336  12.849  0.00  0.00    -0.263 NA
ATOM     40  C   UNL     1       6.142   4.007  11.753  0.00  0.00    +0.111 A 
ENDBRANCH   4   3
ENDBRANCH  10   9
BRANCH  12  13
ATOM     13  N   UNL     1       5.983   7.905  22.894  0.00  0.00    -0.281 N 
ATOM     14  C   UNL     1       5.685   8.799  23.909  0.00  0.00    +0.248 C 
ATOM     30  O   UNL     1       4.562   9.213  24.158  0.00  0.00    -0.270 OA
ATOM     31  H   UNL     1       6.972   7.794  22.670  0.00  0.00    +0.155 HD
BRANCH  14  15
ATOM     15  C   UNL     1       6.796   9.320  24.762  0.00  0.00    +0.037 A 
ATOM     16  C   UNL     1       8.199   9.104  24.397  0.00  0.00    +0.013 A 
ATOM     17  C   UNL     1       9.251   9.603  25.247  0.00  0.00    +0.005 A 
ATOM     18  C   UNL     1       8.904  10.324  26.469  0.00  0.00    -0.033 A 
ATOM     28  C   UNL     1       7.505  10.529  26.804  0.00  0.00    +0.005 A 
ATOM     29  C   UNL     1       6.470  10.040  25.974  0.00  0.00    +0.013 A 
BRANCH  18  19
ATOM     19  C   UNL     1       9.962  10.873  27.445  0.00  0.00    +0.119 C 
BRANCH  19  20
ATOM     20  N   UNL     1      11.365  10.390  27.275  0.00  0.00    -0.302 NA
ATOM     21  C   UNL     1      11.959   9.876  28.589  0.00  0.00    +0.066 C 
ATOM     22  C   UNL     1      13.419   9.355  28.389  0.00  0.00    -0.064 C 
ATOM     23  N   UNL     1      14.282  10.475  27.805  0.00  0.00    +0.379 N 
ATOM     24  C   UNL     1      15.669  10.006  27.670  0.00  0.00    -0.096 C 
ATOM     25  H   UNL     1      14.280  11.318  28.535  0.00  0.00    -0.082 HD
ATOM     26  C   UNL     1      13.697  10.994  26.499  0.00  0.00    -0.064 C 
ATOM     27  C   UNL     1      12.236  11.482  26.704  0.00  0.00    +0.066 C 
ENDBRANCH  19  20
ENDBRANCH  18  19
ENDBRANCH  14  15
ENDBRANCH  12  13
TORSDOF 6
ENDMDL
MODEL 2
REMARK VINA RESULT:      -8.4      5.088     14.278
REMARK  Name = C:\Users\Docking\Desktop\test protocol\1iep_ligandH.pdb
REMARK  8 active torsions:
REMARK  status: ('A' for Active; 'I' for Inactive)
REMARK    1  A    between atoms: _5  and  _11
REMARK    2  A    between atoms: _19  and  _21
REMARK    3  A    between atoms: _22  and  _66
REMARK    4  A    between atoms: _27  and  _30
REMARK    5  A    between atoms: _32  and  _33
REMARK    6  A    between atoms: _38  and  _43
REMARK    7  A    between atoms: _43  and  _46
REMARK    8  A    between atoms: _53  and  _55
REMARK                            x       y       z     vdW  Elec       q    Type
REMARK                         _______ _______ _______ _____ _____    ______ ____
ROOT
ATOM     10  C   UNL     1       5.177   5.639  16.926  0.00  0.00    +0.038 A 
ATOM     11  C   UNL     1       5.512   4.309  16.564  0.00  0.00    +0.047 A 
ATOM     12  C   UNL     1       4.954   3.690  15.372  0.00  0.00    +0.035 A 
ATOM     32  C   UNL     1       4.060   4.457  14.568  0.00  0.00    +0.024 A 
ATOM     33  C   UNL     1       3.708   5.809  14.921  0.00  0.00    +0.007 A 
ATOM     34  C   UNL     1       4.253   6.424  16.098  0.00  0.00    -0.029 A 
ATOM     35  C   UNL     1       3.836   7.875  16.432  0.00  0.00    +0.045 C 
ENDROOT
BRANCH  10   9
ATOM      4  C   UNL     1       5.020   6.762  21.589  0.00  0.00    +0.077 A 
ATOM      5  C   UNL     1       3.689   6.245  21.730  0.00  0.00    +0.048 A 
ATOM      6  C   UNL     1       3.078   5.705  20.576  0.00  0.00    +0.116 A 
ATOM      7  N   UNL     1       3.756   5.688  19.377  0.00  0.00    -0.223 NA
ATOM      8  C   UNL     1       5.038   6.197  19.275  0.00  0.00    +0.220 A 
ATOM      9  N   UNL     1       5.742   6.184  18.081  0.00  0.00    -0.283 N 
ATOM     36  H   UNL     1       6.683   6.575  18.046  0.00  0.00    +0.155 HD
ATOM     37  N   UNL     1       5.643   6.720  20.362  0.00  0.00    -0.214 NA
BRANCH   4   3
ATOM      1  C   UNL     1       6.046   8.921  24.686  0.00  0.00    +0.020 A 
ATOM      2  C   UNL     1       5.250   8.374  23.611  0.00  0.00    +0.013 A 
ATOM      3  C   UNL     1       5.800   7.362  22.718  0.00  0.00    +0.019 A 
ATOM     38  C   UNL     1       7.168   6.922  22.941  0.00  0.00    +0.120 A 
ATOM     39  N   UNL     1       7.911   7.467  23.984  0.00  0.00    -0.263 NA
ATOM     40  C   UNL     1       7.393   8.443  24.849  0.00  0.00    +0.111 A 
ENDBRANCH   4   3
ENDBRANCH  10   9
BRANCH  12  13
ATOM     13  N   UNL     1       5.251   2.341  14.959  0.00  0.00    -0.281 N 
ATOM     14  C   UNL     1       4.365   1.369  14.524  0.00  0.00    +0.248 C 
ATOM     30  O   UNL     1       3.150   1.446  14.627  0.00  0.00    -0.270 OA
ATOM     31  H   UNL     1       6.234   2.070  14.991  0.00  0.00    +0.155 HD
BRANCH  14  15
ATOM     15  C   UNL     1       4.908   0.126  13.896  0.00  0.00    +0.037 A 
ATOM     16  C   UNL     1       4.019  -0.879  13.307  0.00  0.00    +0.013 A 
ATOM     17  C   UNL     1       4.568  -2.077  12.724  0.00  0.00    +0.005 A 
ATOM     18  C   UNL     1       6.015  -2.276  12.724  0.00  0.00    -0.033 A 
ATOM     28  C   UNL     1       6.874  -1.260  13.310  0.00  0.00    +0.005 A 
ATOM     29  C   UNL     1       6.340  -0.085  13.885  0.00  0.00    +0.013 A 
BRANCH  18  19
ATOM     19  C   UNL     1       6.687  -3.534  12.142  0.00  0.00    +0.119 C 
BRANCH  19  20
ATOM     20  N   UNL     1       7.737  -3.328  11.100  0.00  0.00    -0.302 NA
ATOM     21  C   UNL     1       7.199  -3.573   9.687  0.00  0.00    +0.066 C 
ATOM     22  C   UNL     1       8.304  -3.332   8.608  0.00  0.00    -0.064 C 
ATOM     23  N   UNL     1       9.502  -4.239   8.897  0.00  0.00    +0.379 N 
ATOM     24  C   UNL     1      10.519  -4.056   7.851  0.00  0.00    -0.096 C 
ATOM     25  H   UNL     1       9.147  -5.294   8.843  0.00  0.00    -0.082 HD
ATOM     26  C   UNL     1      10.041  -4.004  10.301  0.00  0.00    -0.064 C 
ATOM     27  C   UNL     1       8.927  -4.217  11.363  0.00  0.00    +0.066 C 
ENDBRANCH  19  20
ENDBRANCH  18  19
ENDBRANCH  14  15
ENDBRANCH  12  13
TORSDOF 6
ENDMDL
MODEL 3
REMARK VINA RESULT:      -8.4     11.743     20.151
REMARK  Name = C:\Users\Docking\Desktop\test protocol\1iep_ligandH.pdb
REMARK  8 active torsions:
REMARK  status: ('A' for Active; 'I' for Inactive)
REMARK    1  A    between atoms: _5  and  _11
REMARK    2  A    between atoms: _19  and  _21
REMARK    3  A    between atoms: _22  and  _66
REMARK    4  A    between atoms: _27  and  _30
REMARK    5  A    between atoms: _32  and  _33
REMARK    6  A    between atoms: _38  and  _43
REMARK    7  A    between atoms: _43  and  _46
REMARK    8  A    between atoms: _53  and  _55
REMARK                            x       y       z     vdW  Elec       q    Type
REMARK                         _______ _______ _______ _____ _____    ______ ____
ROOT
ATOM     10  C   UNL     1       8.714  -3.459  13.294  0.00  0.00    +0.038 A 
ATOM     11  C   UNL     1       8.473  -3.835  11.948  0.00  0.00    +0.047 A 
ATOM     12  C   UNL     1       9.570  -4.045  11.017  0.00  0.00    +0.035 A 
ATOM     32  C   UNL     1      10.902  -3.865  11.491  0.00  0.00    +0.024 A 
ATOM     33  C   UNL     1      11.166  -3.482  12.856  0.00  0.00    +0.007 A 
ATOM     34  C   UNL     1      10.087  -3.272  13.778  0.00  0.00    -0.029 A 
ATOM     35  C   UNL     1      10.429  -2.855  15.228  0.00  0.00    +0.045 C 
ENDROOT
BRANCH  10   9
ATOM      4  C   UNL     1       5.120  -0.804  15.044  0.00  0.00    +0.077 A 
ATOM      5  C   UNL     1       5.461   0.314  14.212  0.00  0.00    +0.048 A 
ATOM      6  C   UNL     1       6.573   0.167  13.352  0.00  0.00    +0.116 A 
ATOM      7  N   UNL     1       7.283  -1.014  13.335  0.00  0.00    -0.223 NA
ATOM      8  C   UNL     1       6.928  -2.072  14.152  0.00  0.00    +0.220 A 
ATOM      9  N   UNL     1       7.623  -3.271  14.145  0.00  0.00    -0.283 N 
ATOM     36  H   UNL     1       7.334  -4.025  14.769  0.00  0.00    +0.155 HD
ATOM     37  N   UNL     1       5.871  -1.956  14.983  0.00  0.00    -0.214 NA
BRANCH   4   3
ATOM      1  C   UNL     1       2.111  -1.950  17.266  0.00  0.00    +0.020 A 
ATOM      2  C   UNL     1       3.213  -2.005  16.333  0.00  0.00    +0.013 A 
ATOM      3  C   UNL     1       3.970  -0.803  16.003  0.00  0.00    +0.019 A 
ATOM     38  C   UNL     1       3.583   0.447  16.639  0.00  0.00    +0.120 A 
ATOM     39  N   UNL     1       2.516   0.469  17.532  0.00  0.00    -0.263 NA
ATOM     40  C   UNL     1       1.780  -0.680  17.857  0.00  0.00    +0.111 A 
ENDBRANCH   4   3
ENDBRANCH  10   9
BRANCH  12  13
ATOM     13  N   UNL     1       9.386  -4.420   9.637  0.00  0.00    -0.281 N 
ATOM     14  C   UNL     1       8.852  -5.597   9.138  0.00  0.00    +0.248 C 
ATOM     30  O   UNL     1       8.648  -6.600   9.805  0.00  0.00    -0.270 OA
ATOM     31  H   UNL     1       9.685  -3.734   8.943  0.00  0.00    +0.155 HD
BRANCH  14  15
ATOM     15  C   UNL     1       8.510  -5.676   7.685  0.00  0.00    +0.037 A 
ATOM     16  C   UNL     1       7.844  -6.854   7.124  0.00  0.00    +0.013 A 
ATOM     17  C   UNL     1       7.540  -6.912   5.716  0.00  0.00    +0.005 A 
ATOM     18  C   UNL     1       7.900  -5.785   4.859  0.00  0.00    -0.033 A 
ATOM     28  C   UNL     1       8.555  -4.626   5.443  0.00  0.00    +0.005 A 
ATOM     29  C   UNL     1       8.856  -4.566   6.822  0.00  0.00    +0.013 A 
BRANCH  18  19
ATOM     19  C   UNL     1       7.633  -5.769   3.343  0.00  0.00    +0.119 C 
BRANCH  19  20
ATOM     20  N   UNL     1       6.214  -5.901   2.897  0.00  0.00    -0.302 NA
ATOM     21  C   UNL     1       5.239  -5.251   3.883  0.00  0.00    +0.066 C 
ATOM     22  C   UNL     1       3.761  -5.379   3.390  0.00  0.00    -0.064 C 
ATOM     23  N   UNL     1       3.421  -6.856   3.185  0.00  0.00    +0.379 N 
ATOM     24  C   UNL     1       2.014  -6.983   2.778  0.00  0.00    -0.096 C 
ATOM     25  H   UNL     1       3.536  -7.368   4.169  0.00  0.00    -0.082 HD
ATOM     26  C   UNL     1       4.387  -7.511   2.208  0.00  0.00    -0.064 C 
ATOM     27  C   UNL     1       5.855  -7.352   2.693  0.00  0.00    +0.066 C 
ENDBRANCH  19  20
ENDBRANCH  18  19
ENDBRANCH  14  15
ENDBRANCH  12  13
TORSDOF 6
ENDMDL
MODEL 4
REMARK VINA RESULT:      -8.3      7.312     12.738
REMARK  Name = C:\Users\Docking\Desktop\test protocol\1iep_ligandH.pdb
REMARK  8 active torsions:
REMARK  status: ('A' for Active; 'I' for Inactive)
REMARK    1  A    between atoms: _5  and  _11
REMARK    2  A    between atoms: _19  and  _21
REMARK    3  A    between atoms: _22  and  _66
REMARK    4  A    between atoms: _27  and  _30
REMARK    5  A    between atoms: _32  and  _33
REMARK    6  A    between atoms: _38  and  _43
REMARK    7  A    between atoms: _43  and  _46
REMARK    8  A    between atoms: _53  and  _55
REMARK                            x       y       z     vdW  Elec       q    Type
REMARK                         _______ _______ _______ _____ _____    ______ ____
ROOT
ATOM     10  C   UNL     1       7.691  -1.992  12.803  0.00  0.00    +0.038 A 
ATOM     11  C   UNL     1       7.279  -0.800  13.451  0.00  0.00    +0.047 A 
ATOM     12  C   UNL     1       7.369   0.489  12.783  0.00  0.00    +0.035 A 
ATOM     32  C   UNL     1       7.882   0.527  11.453  0.00  0.00    +0.024 A 
ATOM     33  C   UNL     1       8.305  -0.676  10.780  0.00  0.00    +0.007 A 
ATOM     34  C   UNL     1       8.221  -1.950  11.435  0.00  0.00    -0.029 A 
ATOM     35  C   UNL     1       8.696  -3.205  10.667  0.00  0.00    +0.045 C 
ENDROOT
BRANCH  10   9
ATOM      4  C   UNL     1       9.283  -5.205  15.994  0.00  0.00    +0.077 A 
ATOM      5  C   UNL     1      10.444  -4.417  16.296  0.00  0.00    +0.048 A 
ATOM      6  C   UNL     1      10.598  -3.196  15.603  0.00  0.00    +0.116 A 
ATOM      7  N   UNL     1       9.654  -2.800  14.679  0.00  0.00    -0.223 NA
ATOM      8  C   UNL     1       8.547  -3.584  14.410  0.00  0.00    +0.220 A 
ATOM      9  N   UNL     1       7.582  -3.203  13.491  0.00  0.00    -0.283 N 
ATOM     36  H   UNL     1       6.784  -3.812  13.316  0.00  0.00    +0.155 HD
ATOM     37  N   UNL     1       8.378  -4.756  15.058  0.00  0.00    -0.214 NA
BRANCH   4   3
ATOM      1  C   UNL     1       9.608  -8.847  17.382  0.00  0.00    +0.020 A 
ATOM      2  C   UNL     1       9.952  -7.599  16.742  0.00  0.00    +0.013 A 
ATOM      3  C   UNL     1       8.979  -6.518  16.645  0.00  0.00    +0.019 A 
ATOM     38  C   UNL     1       7.656  -6.734  17.212  0.00  0.00    +0.120 A 
ATOM     39  N   UNL     1       7.353  -7.948  17.821  0.00  0.00    -0.263 NA
ATOM     40  C   UNL     1       8.280  -8.996  17.918  0.00  0.00    +0.111 A 
ENDBRANCH   4   3
ENDBRANCH  10   9
BRANCH  12  13
ATOM     13  N   UNL     1       6.974   1.734  13.393  0.00  0.00    -0.281 N 
ATOM     14  C   UNL     1       5.820   2.466  13.166  0.00  0.00    +0.248 C 
ATOM     30  O   UNL     1       5.047   2.267  12.240  0.00  0.00    -0.270 OA
ATOM     31  H   UNL     1       7.625   2.124  14.076  0.00  0.00    +0.155 HD
BRANCH  14  15
ATOM     15  C   UNL     1       5.483   3.589  14.092  0.00  0.00    +0.037 A 
ATOM     16  C   UNL     1       5.281   4.952  13.593  0.00  0.00    +0.013 A 
ATOM     17  C   UNL     1       4.973   6.020  14.510  0.00  0.00    +0.005 A 
ATOM     18  C   UNL     1       4.864   5.729  15.938  0.00  0.00    -0.033 A 
ATOM     28  C   UNL     1       5.064   4.368  16.406  0.00  0.00    +0.005 A 
ATOM     29  C   UNL     1       5.367   3.318  15.510  0.00  0.00    +0.013 A 
BRANCH  18  19
ATOM     19  C   UNL     1       4.560   6.811  16.991  0.00  0.00    +0.119 C 
BRANCH  19  20
ATOM     20  N   UNL     1       3.901   6.369  18.256  0.00  0.00    -0.302 NA
ATOM     21  C   UNL     1       2.683   7.230  18.601  0.00  0.00    +0.066 C 
ATOM     22  C   UNL     1       1.993   6.739  19.915  0.00  0.00    -0.064 C 
ATOM     23  N   UNL     1       3.008   6.755  21.058  0.00  0.00    +0.379 N 
ATOM     24  C   UNL     1       2.348   6.349  22.307  0.00  0.00    -0.096 C 
ATOM     25  H   UNL     1       3.357   7.806  21.186  0.00  0.00    -0.082 HD
ATOM     26  C   UNL     1       4.224   5.903  20.722  0.00  0.00    -0.064 C 
ATOM     27  C   UNL     1       4.886   6.381  19.399  0.00  0.00    +0.066 C 
ENDBRANCH  19  20
ENDBRANCH  18  19
ENDBRANCH  14  15
ENDBRANCH  12  13
TORSDOF 6
ENDMDL
MODEL 5
REMARK VINA RESULT:      -8.3      8.853     14.993
REMARK  Name = C:\Users\Docking\Desktop\test protocol\1iep_ligandH.pdb
REMARK  8 active torsions:
REMARK  status: ('A' for Active; 'I' for Inactive)
REMARK    1  A    between atoms: _5  and  _11
REMARK    2  A    between atoms: _19  and  _21
REMARK    3  A    between atoms: _22  and  _66
REMARK    4  A    between atoms: _27  and  _30
REMARK    5  A    between atoms: _32  and  _33
REMARK    6  A    between atoms: _38  and  _43
REMARK    7  A    between atoms: _43  and  _46
REMARK    8  A    between atoms: _53  and  _55
REMARK                            x       y       z     vdW  Elec       q    Type
REMARK                         _______ _______ _______ _____ _____    ______ ____
ROOT
ATOM     10  C   UNL     1       7.590  -4.665  10.279  0.00  0.00    +0.038 A 
ATOM     11  C   UNL     1       7.008  -3.420  10.627  0.00  0.00    +0.047 A 
ATOM     12  C   UNL     1       7.502  -2.648  11.757  0.00  0.00    +0.035 A 
ATOM     32  C   UNL     1       8.591  -3.174  12.510  0.00  0.00    +0.024 A 
ATOM     33  C   UNL     1       9.194  -4.440  12.172  0.00  0.00    +0.007 A 
ATOM     34  C   UNL     1       8.710  -5.206  11.059  0.00  0.00    -0.029 A 
ATOM     35  C   UNL     1       9.390  -6.559  10.746  0.00  0.00    +0.045 C 
ENDROOT
BRANCH  10   9
ATOM      4  C   UNL     1       7.667  -5.925   5.648  0.00  0.00    +0.077 A 
ATOM      5  C   UNL     1       8.810  -5.100   5.382  0.00  0.00    +0.048 A 
ATOM      6  C   UNL     1       9.344  -4.362   6.462  0.00  0.00    +0.116 A 
ATOM      7  N   UNL     1       8.769  -4.450   7.712  0.00  0.00    -0.223 NA
ATOM      8  C   UNL     1       7.666  -5.254   7.934  0.00  0.00    +0.220 A 
ATOM      9  N   UNL     1       7.077  -5.364   9.184  0.00  0.00    -0.283 N 
ATOM     36  H   UNL     1       6.260  -5.962   9.306  0.00  0.00    +0.155 HD
ATOM     37  N   UNL     1       7.137  -5.968   6.919  0.00  0.00    -0.214 NA
BRANCH   4   3
ATOM      1  C   UNL     1       5.367  -7.096   2.709  0.00  0.00    +0.020 A 
ATOM      2  C   UNL     1       5.989  -6.240   3.693  0.00  0.00    +0.013 A 
ATOM      3  C   UNL     1       6.991  -6.767   4.611  0.00  0.00    +0.019 A 
ATOM     38  C   UNL     1       7.344  -8.174   4.506  0.00  0.00    +0.120 A 
ATOM     39  N   UNL     1       6.727  -8.974   3.549  0.00  0.00    -0.263 NA
ATOM     40  C   UNL     1       5.761  -8.479   2.661  0.00  0.00    +0.111 A 
ENDBRANCH   4   3
ENDBRANCH  10   9
BRANCH  12  13
ATOM     13  N   UNL     1       6.946  -1.381  12.163  0.00  0.00    -0.281 N 
ATOM     14  C   UNL     1       6.004  -1.141  13.150  0.00  0.00    +0.248 C 
ATOM     30  O   UNL     1       5.335  -2.008  13.692  0.00  0.00    -0.270 OA
ATOM     31  H   UNL     1       7.288  -0.561  11.661  0.00  0.00    +0.155 HD
BRANCH  14  15
ATOM     15  C   UNL     1       5.759   0.267  13.587  0.00  0.00    +0.037 A 
ATOM     16  C   UNL     1       4.775   0.580  14.627  0.00  0.00    +0.013 A 
ATOM     17  C   UNL     1       4.546   1.948  15.018  0.00  0.00    +0.005 A 
ATOM     18  C   UNL     1       5.305   3.015  14.370  0.00  0.00    -0.033 A 
ATOM     28  C   UNL     1       6.279   2.676  13.345  0.00  0.00    +0.005 A 
ATOM     29  C   UNL     1       6.505   1.336  12.958  0.00  0.00    +0.013 A 
BRANCH  18  19
ATOM     19  C   UNL     1       5.112   4.504  14.710  0.00  0.00    +0.119 C 
BRANCH  19  20
ATOM     20  N   UNL     1       4.709   4.840  16.108  0.00  0.00    -0.302 NA
ATOM     21  C   UNL     1       4.171   6.269  16.224  0.00  0.00    +0.066 C 
ATOM     22  C   UNL     1       3.734   6.596  17.689  0.00  0.00    -0.064 C 
ATOM     23  N   UNL     1       4.921   6.386  18.631  0.00  0.00    +0.379 N 
ATOM     24  C   UNL     1       4.529   6.748  20.001  0.00  0.00    -0.096 C 
ATOM     25  H   UNL     1       5.731   7.084  18.315  0.00  0.00    -0.082 HD
ATOM     26  C   UNL     1       5.464   4.968  18.520  0.00  0.00    -0.064 C 
ATOM     27  C   UNL     1       5.868   4.644  17.055  0.00  0.00    +0.066 C 
ENDBRANCH  19  20
ENDBRANCH  18  19
ENDBRANCH  14  15
ENDBRANCH  12  13
TORSDOF 6
ENDMDL
