MODEL 1
REMARK VINA RESULT:      -8.4      0.000      0.000
REMARK  Name = C:\Users\Docking\Desktop\test protocol\1iep_ligandH.pdb
REMARK  8 active torsions:
REMARK  status: ('A' for Active; 'I' for Inactive)
REMARK    1  A    between atoms: _5  and  _11
REMARK    2  A    between atoms: _19  and  _21
REMARK    3  A    between atoms: _22  and  _66
REMARK    4  A    between atoms: _27  and  _30
REMARK    5  A    between atoms: _32  and  _33
REMARK    6  A    between atoms: _38  and  _43
REMARK    7  A    between atoms: _43  and  _46
REMARK    8  A    between atoms: _53  and  _55
REMARK                            x       y       z     vdW  Elec       q    Type
REMARK                         _______ _______ _______ _____ _____    ______ ____
ROOT
ATOM     10  C   UNL     1      85.542  95.724  -4.322  0.00  0.00    +0.038 A 
ATOM     11  C   UNL     1      84.524  96.706  -4.216  0.00  0.00    +0.047 A 
ATOM     12  C   UNL     1      83.144  96.400  -4.559  0.00  0.00    +0.035 A 
ATOM     32  C   UNL     1      82.835  95.082  -5.004  0.00  0.00    +0.024 A 
ATOM     33  C   UNL     1      83.857  94.071  -5.119  0.00  0.00    +0.007 A 
ATOM     34  C   UNL     1      85.221  94.369  -4.785  0.00  0.00    -0.029 A 
ATOM     35  C   UNL     1      86.277  93.248  -4.933  0.00  0.00    +0.045 C 
ENDROOT
BRANCH  10   9
ATOM      4  C   UNL     1      89.666  98.030  -5.165  0.00  0.00    +0.077 A 
ATOM      5  C   UNL     1      89.183  98.563  -6.406  0.00  0.00    +0.048 A 
ATOM      6  C   UNL     1      87.870  98.214  -6.795  0.00  0.00    +0.116 A 
ATOM      7  N   UNL     1      87.106  97.393  -5.995  0.00  0.00    -0.223 NA
ATOM      8  C   UNL     1      87.603  96.894  -4.804  0.00  0.00    +0.220 A 
ATOM      9  N   UNL     1      86.850  96.073  -3.980  0.00  0.00    -0.283 N 
ATOM     36  H   UNL     1      87.255  95.720  -3.113  0.00  0.00    +0.155 HD
ATOM     37  N   UNL     1      88.854  97.212  -4.412  0.00  0.00    -0.214 NA
BRANCH   4   3
ATOM      1  C   UNL     1      93.121  99.709  -4.431  0.00  0.00    +0.020 A 
ATOM      2  C   UNL     1      91.808  99.485  -4.990  0.00  0.00    +0.013 A 
ATOM      3  C   UNL     1      91.031  98.310  -4.617  0.00  0.00    +0.019 A 
ATOM     38  C   UNL     1      91.615  97.374  -3.669  0.00  0.00    +0.120 A 
ATOM     39  N   UNL     1      92.883  97.615  -3.148  0.00  0.00    -0.263 NA
ATOM     40  C   UNL     1      93.641  98.742  -3.500  0.00  0.00    +0.111 A 
ENDBRANCH   4   3
ENDBRANCH  10   9
BRANCH  12  13
ATOM     13  N   UNL     1      82.069  97.358  -4.478  0.00  0.00    -0.281 N 
ATOM     14  C   UNL     1      81.789  98.399  -5.349  0.00  0.00    +0.248 C 
ATOM     30  O   UNL     1      82.551  98.797  -6.218  0.00  0.00    -0.270 OA
ATOM     31  H   UNL     1      81.438  97.257  -3.683  0.00  0.00    +0.155 HD
BRANCH  14  15
ATOM     15  C   UNL     1      80.480  99.110  -5.227  0.00  0.00    +0.037 A 
ATOM     16  C   UNL     1      80.383 100.560  -5.411  0.00  0.00    +0.013 A 
ATOM     17  C   UNL     1      79.111 101.223  -5.272  0.00  0.00    +0.005 A 
ATOM     18  C   UNL     1      77.924 100.435  -4.947  0.00  0.00    -0.033 A 
ATOM     28  C   UNL     1      78.048  98.997  -4.775  0.00  0.00    +0.005 A 
ATOM     29  C   UNL     1      79.294  98.344  -4.910  0.00  0.00    +0.013 A 
BRANCH  18  19
ATOM     19  C   UNL     1      76.530 101.062  -4.758  0.00  0.00    +0.119 C 
BRANCH  19  20
ATOM     20  N   UNL     1      75.619 101.071  -5.941  0.00  0.00    -0.302 NA
ATOM     21  C   UNL     1      75.813 102.320  -6.806  0.00  0.00    +0.066 C 
ATOM     22  C   UNL     1      74.867 102.302  -8.051  0.00  0.00    -0.064 C 
ATOM     23  N   UNL     1      73.415 102.187  -7.583  0.00  0.00    +0.379 N 
ATOM     24  C   UNL     1      72.520 102.228  -8.749  0.00  0.00    -0.096 C 
ATOM     25  H   UNL     1      73.191 103.079  -6.953  0.00  0.00    -0.082 HD
ATOM     26  C   UNL     1      73.214 100.949  -6.720  0.00  0.00    -0.064 C 
ATOM     27  C   UNL     1      74.179 100.963  -5.502  0.00  0.00    +0.066 C 
ENDBRANCH  19  20
ENDBRANCH  18  19
ENDBRANCH  14  15
ENDBRANCH  12  13
TORSDOF 6
ENDMDL
MODEL 2
REMARK VINA RESULT:      -8.4      7.573     13.086
REMARK  Name = C:\Users\Docking\Desktop\test protocol\1iep_ligandH.pdb
REMARK  8 active torsions:
REMARK  status: ('A' for Active; 'I' for Inactive)
REMARK    1  A    between atoms: _5  and  _11
REMARK    2  A    between atoms: _19  and  _21
REMARK    3  A    between atoms: _22  and  _66
REMARK    4  A    between atoms: _27  and  _30
REMARK    5  A    between atoms: _32  and  _33
REMARK    6  A    between atoms: _38  and  _43
REMARK    7  A    between atoms: _43  and  _46
REMARK    8  A    between atoms: _53  and  _55
REMARK                            x       y       z     vdW  Elec       q    Type
REMARK                         _______ _______ _______ _____ _____    ______ ____
ROOT
ATOM     10  C   UNL     1      82.604  94.578  -4.193  0.00  0.00    +0.038 A 
ATOM     11  C   UNL     1      82.125  93.526  -3.372  0.00  0.00    +0.047 A 
ATOM     12  C   UNL     1      82.721  92.200  -3.423  0.00  0.00    +0.035 A 
ATOM     32  C   UNL     1      83.806  91.982  -4.322  0.00  0.00    +0.024 A 
ATOM     33  C   UNL     1      84.304  93.040  -5.165  0.00  0.00    +0.007 A 
ATOM     34  C   UNL     1      83.719  94.349  -5.120  0.00  0.00    -0.029 A 
ATOM     35  C   UNL     1      84.290  95.444  -6.051  0.00  0.00    +0.045 C 
ENDROOT
BRANCH  10   9
ATOM      4  C   UNL     1      79.266  97.767  -5.509  0.00  0.00    +0.077 A 
ATOM      5  C   UNL     1      78.705  96.869  -6.478  0.00  0.00    +0.048 A 
ATOM      6  C   UNL     1      79.310  95.599  -6.611  0.00  0.00    +0.116 A 
ATOM      7  N   UNL     1      80.393  95.262  -5.829  0.00  0.00    -0.223 NA
ATOM      8  C   UNL     1      80.910  96.152  -4.905  0.00  0.00    +0.220 A 
ATOM      9  N   UNL     1      81.994  95.832  -4.103  0.00  0.00    -0.283 N 
ATOM     36  H   UNL     1      82.350  96.519  -3.439  0.00  0.00    +0.155 HD
ATOM     37  N   UNL     1      80.351  97.372  -4.760  0.00  0.00    -0.214 NA
BRANCH   4   3
ATOM      1  C   UNL     1      76.927 100.740  -4.514  0.00  0.00    +0.020 A 
ATOM      2  C   UNL     1      77.389  99.391  -4.749  0.00  0.00    +0.013 A 
ATOM      3  C   UNL     1      78.736  99.142  -5.249  0.00  0.00    +0.019 A 
ATOM     38  C   UNL     1      79.596 100.289  -5.501  0.00  0.00    +0.120 A 
ATOM     39  N   UNL     1      79.123 101.576  -5.267  0.00  0.00    -0.263 NA
ATOM     40  C   UNL     1      77.828 101.828  -4.788  0.00  0.00    +0.111 A 
ENDBRANCH   4   3
ENDBRANCH  10   9
BRANCH  12  13
ATOM     13  N   UNL     1      82.272  91.091  -2.619  0.00  0.00    -0.281 N 
ATOM     14  C   UNL     1      81.370  90.098  -2.965  0.00  0.00    +0.248 C 
ATOM     30  O   UNL     1      80.647  90.134  -3.950  0.00  0.00    -0.270 OA
ATOM     31  H   UNL     1      82.666  91.030  -1.680  0.00  0.00    +0.155 HD
BRANCH  14  15
ATOM     15  C   UNL     1      81.243  88.898  -2.083  0.00  0.00    +0.037 A 
ATOM     16  C   UNL     1      81.175  89.031  -0.626  0.00  0.00    +0.013 A 
ATOM     17  C   UNL     1      81.069  87.856   0.203  0.00  0.00    +0.005 A 
ATOM     18  C   UNL     1      81.030  86.538  -0.425  0.00  0.00    -0.033 A 
ATOM     28  C   UNL     1      81.094  86.435  -1.873  0.00  0.00    +0.005 A 
ATOM     29  C   UNL     1      81.199  87.584  -2.689  0.00  0.00    +0.013 A 
BRANCH  18  19
ATOM     19  C   UNL     1      80.940  85.229   0.383  0.00  0.00    +0.119 C 
BRANCH  19  20
ATOM     20  N   UNL     1      80.049  85.225   1.581  0.00  0.00    -0.302 NA
ATOM     21  C   UNL     1      80.841  85.101   2.886  0.00  0.00    +0.066 C 
ATOM     22  C   UNL     1      79.895  85.121   4.130  0.00  0.00    -0.064 C 
ATOM     23  N   UNL     1      78.872  83.990   4.008  0.00  0.00    +0.379 N 
ATOM     24  C   UNL     1      78.018  83.970   5.205  0.00  0.00    -0.096 C 
ATOM     25  H   UNL     1      79.435  83.028   3.978  0.00  0.00    -0.082 HD
ATOM     26  C   UNL     1      78.082  84.105   2.713  0.00  0.00    -0.064 C 
ATOM     27  C   UNL     1      79.033  84.113   1.484  0.00  0.00    +0.066 C 
ENDBRANCH  19  20
ENDBRANCH  18  19
ENDBRANCH  14  15
ENDBRANCH  12  13
TORSDOF 6
ENDMDL
MODEL 3
REMARK VINA RESULT:      -8.3     17.441     19.910
REMARK  Name = C:\Users\Docking\Desktop\test protocol\1iep_ligandH.pdb
REMARK  8 active torsions:
REMARK  status: ('A' for Active; 'I' for Inactive)
REMARK    1  A    between atoms: _5  and  _11
REMARK    2  A    between atoms: _19  and  _21
REMARK    3  A    between atoms: _22  and  _66
REMARK    4  A    between atoms: _27  and  _30
REMARK    5  A    between atoms: _32  and  _33
REMARK    6  A    between atoms: _38  and  _43
REMARK    7  A    between atoms: _43  and  _46
REMARK    8  A    between atoms: _53  and  _55
REMARK                            x       y       z     vdW  Elec       q    Type
REMARK                         _______ _______ _______ _____ _____    ______ ____
ROOT
ATOM     10  C   UNL     1      79.661  80.668  -2.067  0.00  0.00    +0.038 A 
ATOM     11  C   UNL     1      79.271  81.216  -0.818  0.00  0.00    +0.047 A 
ATOM     12  C   UNL     1      80.246  81.460   0.233  0.00  0.00    +0.035 A 
ATOM     32  C   UNL     1      81.611  81.137  -0.022  0.00  0.00    +0.024 A 
ATOM     33  C   UNL     1      82.024  80.578  -1.285  0.00  0.00    +0.007 A 
ATOM     34  C   UNL     1      81.067  80.332  -2.325  0.00  0.00    -0.029 A 
ATOM     35  C   UNL     1      81.566  79.726  -3.657  0.00  0.00    +0.045 C 
ENDROOT
BRANCH  10   9
ATOM      4  C   UNL     1      77.554  81.715  -6.250  0.00  0.00    +0.077 A 
ATOM      5  C   UNL     1      78.461  82.798  -6.503  0.00  0.00    +0.048 A 
ATOM      6  C   UNL     1      79.450  83.057  -5.529  0.00  0.00    +0.116 A 
ATOM      7  N   UNL     1      79.519  82.284  -4.390  0.00  0.00    -0.223 NA
ATOM      8  C   UNL     1      78.628  81.249  -4.176  0.00  0.00    +0.220 A 
ATOM      9  N   UNL     1      78.684  80.454  -3.041  0.00  0.00    -0.283 N 
ATOM     36  H   UNL     1      78.004  79.704  -2.917  0.00  0.00    +0.155 HD
ATOM     37  N   UNL     1      77.673  80.982  -5.091  0.00  0.00    -0.214 NA
BRANCH   4   3
ATOM      1  C   UNL     1      74.024  80.990  -7.771  0.00  0.00    +0.020 A 
ATOM      2  C   UNL     1      75.045  81.387  -6.829  0.00  0.00    +0.013 A 
ATOM      3  C   UNL     1      76.456  81.316  -7.187  0.00  0.00    +0.019 A 
ATOM     38  C   UNL     1      76.803  80.836  -8.516  0.00  0.00    +0.120 A 
ATOM     39  N   UNL     1      75.798  80.459  -9.401  0.00  0.00    -0.263 NA
ATOM     40  C   UNL     1      74.437  80.522  -9.067  0.00  0.00    +0.111 A 
ENDBRANCH   4   3
ENDBRANCH  10   9
BRANCH  12  13
ATOM     13  N   UNL     1      79.908  82.007   1.524  0.00  0.00    -0.281 N 
ATOM     14  C   UNL     1      79.469  83.288   1.818  0.00  0.00    +0.248 C 
ATOM     30  O   UNL     1      79.505  84.227   1.037  0.00  0.00    -0.270 OA
ATOM     31  H   UNL     1      80.004  81.373   2.317  0.00  0.00    +0.155 HD
BRANCH  14  15
ATOM     15  C   UNL     1      78.925  83.570   3.181  0.00  0.00    +0.037 A 
ATOM     16  C   UNL     1      79.638  84.441   4.119  0.00  0.00    +0.013 A 
ATOM     17  C   UNL     1      79.100  84.682   5.434  0.00  0.00    +0.005 A 
ATOM     18  C   UNL     1      77.839  84.052   5.818  0.00  0.00    -0.033 A 
ATOM     28  C   UNL     1      77.149  83.197   4.866  0.00  0.00    +0.005 A 
ATOM     29  C   UNL     1      77.675  82.957   3.577  0.00  0.00    +0.013 A 
BRANCH  18  19
ATOM     19  C   UNL     1      77.201  84.237   7.208  0.00  0.00    +0.119 C 
BRANCH  19  20
ATOM     20  N   UNL     1      77.502  85.506   7.935  0.00  0.00    -0.302 NA
ATOM     21  C   UNL     1      78.070  85.246   9.334  0.00  0.00    +0.066 C 
ATOM     22  C   UNL     1      78.400  86.584  10.072  0.00  0.00    -0.064 C 
ATOM     23  N   UNL     1      77.138  87.445  10.151  0.00  0.00    +0.379 N 
ATOM     24  C   UNL     1      77.432  88.679  10.895  0.00  0.00    -0.096 C 
ATOM     25  H   UNL     1      76.375  86.874  10.729  0.00  0.00    -0.082 HD
ATOM     26  C   UNL     1      76.566  87.706   8.764  0.00  0.00    -0.064 C 
ATOM     27  C   UNL     1      76.269  86.370   8.028  0.00  0.00    +0.066 C 
ENDBRANCH  19  20
ENDBRANCH  18  19
ENDBRANCH  14  15
ENDBRANCH  12  13
TORSDOF 6
ENDMDL
MODEL 4
REMARK VINA RESULT:      -8.2     16.594     21.506
REMARK  Name = C:\Users\Docking\Desktop\test protocol\1iep_ligandH.pdb
REMARK  8 active torsions:
REMARK  status: ('A' for Active; 'I' for Inactive)
REMARK    1  A    between atoms: _5  and  _11
REMARK    2  A    between atoms: _19  and  _21
REMARK    3  A    between atoms: _22  and  _66
REMARK    4  A    between atoms: _27  and  _30
REMARK    5  A    between atoms: _32  and  _33
REMARK    6  A    between atoms: _38  and  _43
REMARK    7  A    between atoms: _43  and  _46
REMARK    8  A    between atoms: _53  and  _55
REMARK                            x       y       z     vdW  Elec       q    Type
REMARK                         _______ _______ _______ _____ _____    ______ ____
ROOT
ATOM     10  C   UNL     1      73.639  81.244  -8.899  0.00  0.00    +0.038 A 
ATOM     11  C   UNL     1      74.774  81.012  -8.081  0.00  0.00    +0.047 A 
ATOM     12  C   UNL     1      74.973  81.749  -6.843  0.00  0.00    +0.035 A 
ATOM     32  C   UNL     1      73.993  82.714  -6.467  0.00  0.00    +0.024 A 
ATOM     33  C   UNL     1      72.834  82.963  -7.287  0.00  0.00    +0.007 A 
ATOM     34  C   UNL     1      72.635  82.241  -8.511  0.00  0.00    -0.029 A 
ATOM     35  C   UNL     1      71.377  82.554  -9.354  0.00  0.00    +0.045 C 
ENDROOT
BRANCH  10   9
ATOM      4  C   UNL     1      74.107  80.727 -13.648  0.00  0.00    +0.077 A 
ATOM      5  C   UNL     1      74.652  82.045 -13.797  0.00  0.00    +0.048 A 
ATOM      6  C   UNL     1      74.789  82.827 -12.629  0.00  0.00    +0.116 A 
ATOM      7  N   UNL     1      74.407  82.318 -11.406  0.00  0.00    -0.223 NA
ATOM      8  C   UNL     1      73.883  81.043 -11.298  0.00  0.00    +0.220 A 
ATOM      9  N   UNL     1      73.499  80.507 -10.078  0.00  0.00    -0.283 N 
ATOM     36  H   UNL     1      73.110  79.566 -10.040  0.00  0.00    +0.155 HD
ATOM     37  N   UNL     1      73.740  80.277 -12.399  0.00  0.00    -0.214 NA
BRANCH   4   3
ATOM      1  C   UNL     1      74.305  79.013 -17.159  0.00  0.00    +0.020 A 
ATOM      2  C   UNL     1      74.534  79.958 -16.090  0.00  0.00    +0.013 A 
ATOM      3  C   UNL     1      73.903  79.779 -14.789  0.00  0.00    +0.019 A 
ATOM     38  C   UNL     1      73.039  78.623 -14.600  0.00  0.00    +0.120 A 
ATOM     39  N   UNL     1      72.835  77.731 -15.648  0.00  0.00    -0.263 NA
ATOM     40  C   UNL     1      73.436  77.894 -16.905  0.00  0.00    +0.111 A 
ENDBRANCH   4   3
ENDBRANCH  10   9
BRANCH  12  13
ATOM     13  N   UNL     1      76.109  81.561  -5.976  0.00  0.00    -0.281 N 
ATOM     14  C   UNL     1      77.414  81.981  -6.179  0.00  0.00    +0.248 C 
ATOM     30  O   UNL     1      77.848  82.398  -7.242  0.00  0.00    -0.270 OA
ATOM     31  H   UNL     1      75.931  81.058  -5.106  0.00  0.00    +0.155 HD
BRANCH  14  15
ATOM     15  C   UNL     1      78.379  81.915  -5.040  0.00  0.00    +0.037 A 
ATOM     16  C   UNL     1      78.386  80.780  -4.114  0.00  0.00    +0.013 A 
ATOM     17  C   UNL     1      79.317  80.749  -3.013  0.00  0.00    +0.005 A 
ATOM     18  C   UNL     1      80.250  81.859  -2.834  0.00  0.00    -0.033 A 
ATOM     28  C   UNL     1      80.225  82.970  -3.770  0.00  0.00    +0.005 A 
ATOM     29  C   UNL     1      79.314  83.004  -4.849  0.00  0.00    +0.013 A 
BRANCH  18  19
ATOM     19  C   UNL     1      81.263  81.920  -1.675  0.00  0.00    +0.119 C 
BRANCH  19  20
ATOM     20  N   UNL     1      80.879  82.719  -0.473  0.00  0.00    -0.302 NA
ATOM     21  C   UNL     1      79.489  82.341   0.048  0.00  0.00    +0.066 C 
ATOM     22  C   UNL     1      79.113  83.170   1.319  0.00  0.00    -0.064 C 
ATOM     23  N   UNL     1      79.182  84.663   0.990  0.00  0.00    +0.379 N 
ATOM     24  C   UNL     1      78.773  85.444   2.166  0.00  0.00    -0.096 C 
ATOM     25  H   UNL     1      78.445  84.864   0.177  0.00  0.00    -0.082 HD
ATOM     26  C   UNL     1      80.560  85.046   0.469  0.00  0.00    -0.064 C 
ATOM     27  C   UNL     1      80.936  84.196  -0.777  0.00  0.00    +0.066 C 
ENDBRANCH  19  20
ENDBRANCH  18  19
ENDBRANCH  14  15
ENDBRANCH  12  13
TORSDOF 6
ENDMDL
MODEL 5
REMARK VINA RESULT:      -8.1     17.052     20.203
REMARK  Name = C:\Users\Docking\Desktop\test protocol\1iep_ligandH.pdb
REMARK  8 active torsions:
REMARK  status: ('A' for Active; 'I' for Inactive)
REMARK    1  A    between atoms: _5  and  _11
REMARK    2  A    between atoms: _19  and  _21
REMARK    3  A    between atoms: _22  and  _66
REMARK    4  A    between atoms: _27  and  _30
REMARK    5  A    between atoms: _32  and  _33
REMARK    6  A    between atoms: _38  and  _43
REMARK    7  A    between atoms: _43  and  _46
REMARK    8  A    between atoms: _53  and  _55
REMARK                            x       y       z     vdW  Elec       q    Type
REMARK                         _______ _______ _______ _____ _____    ______ ____
ROOT
ATOM     10  C   UNL     1      80.212  85.917   2.620  0.00  0.00    +0.038 A 
ATOM     11  C   UNL     1      79.241  85.709   3.632  0.00  0.00    +0.047 A 
ATOM     12  C   UNL     1      79.461  86.173   4.993  0.00  0.00    +0.035 A 
ATOM     32  C   UNL     1      80.681  86.850   5.287  0.00  0.00    +0.024 A 
ATOM     33  C   UNL     1      81.680  87.069   4.270  0.00  0.00    +0.007 A 
ATOM     34  C   UNL     1      81.469  86.611   2.927  0.00  0.00    -0.029 A 
ATOM     35  C   UNL     1      82.577  86.868   1.879  0.00  0.00    +0.045 C 
ENDROOT
BRANCH  10   9
ATOM      4  C   UNL     1      79.979  82.406  -0.644  0.00  0.00    +0.077 A 
ATOM      5  C   UNL     1      80.446  81.424   0.292  0.00  0.00    +0.048 A 
ATOM      6  C   UNL     1      80.743  81.865   1.601  0.00  0.00    +0.116 A 
ATOM      7  N   UNL     1      80.579  83.191   1.938  0.00  0.00    -0.223 NA
ATOM      8  C   UNL     1      80.128  84.112   1.011  0.00  0.00    +0.220 A 
ATOM      9  N   UNL     1      79.949  85.450   1.330  0.00  0.00    -0.283 N 
ATOM     36  H   UNL     1      79.622  86.099   0.616  0.00  0.00    +0.155 HD
ATOM     37  N   UNL     1      79.840  83.717  -0.246  0.00  0.00    -0.214 NA
BRANCH   4   3
ATOM      1  C   UNL     1      78.469  80.704  -3.826  0.00  0.00    +0.020 A 
ATOM      2  C   UNL     1      78.785  80.960  -2.440  0.00  0.00    +0.013 A 
ATOM      3  C   UNL     1      79.621  82.094  -2.064  0.00  0.00    +0.019 A 
ATOM     38  C   UNL     1      80.124  82.955  -3.123  0.00  0.00    +0.120 A 
ATOM     39  N   UNL     1      79.804  82.683  -4.450  0.00  0.00    -0.263 NA
ATOM     40  C   UNL     1      79.002  81.594  -4.824  0.00  0.00    +0.111 A 
ENDBRANCH   4   3
ENDBRANCH  10   9
BRANCH  12  13
ATOM     13  N   UNL     1      78.515  85.983   6.064  0.00  0.00    -0.281 N 
ATOM     14  C   UNL     1      78.558  85.044   7.081  0.00  0.00    +0.248 C 
ATOM     30  O   UNL     1      79.310  84.081   7.102  0.00  0.00    -0.270 OA
ATOM     31  H   UNL     1      77.717  86.619   6.074  0.00  0.00    +0.155 HD
BRANCH  14  15
ATOM     15  C   UNL     1      77.620  85.187   8.236  0.00  0.00    +0.037 A 
ATOM     16  C   UNL     1      77.938  84.617   9.548  0.00  0.00    +0.013 A 
ATOM     17  C   UNL     1      77.007  84.755  10.641  0.00  0.00    +0.005 A 
ATOM     18  C   UNL     1      75.750  85.468  10.426  0.00  0.00    -0.033 A 
ATOM     28  C   UNL     1      75.463  86.028   9.115  0.00  0.00    +0.005 A 
ATOM     29  C   UNL     1      76.372  85.894   8.042  0.00  0.00    +0.013 A 
BRANCH  18  19
ATOM     19  C   UNL     1      74.690  85.645  11.529  0.00  0.00    +0.119 C 
BRANCH  19  20
ATOM     20  N   UNL     1      73.747  84.509  11.759  0.00  0.00    -0.302 NA
ATOM     21  C   UNL     1      72.476  84.638  10.915  0.00  0.00    +0.066 C 
ATOM     22  C   UNL     1      71.511  83.431  11.151  0.00  0.00    -0.064 C 
ATOM     23  N   UNL     1      71.166  83.341  12.639  0.00  0.00    +0.379 N 
ATOM     24  C   UNL     1      70.214  82.242  12.856  0.00  0.00    -0.096 C 
ATOM     25  H   UNL     1      70.659  84.291  12.926  0.00  0.00    -0.082 HD
ATOM     26  C   UNL     1      72.425  83.215  13.486  0.00  0.00    -0.064 C 
ATOM     27  C   UNL     1      73.390  84.405  13.221  0.00  0.00    +0.066 C 
ENDBRANCH  19  20
ENDBRANCH  18  19
ENDBRANCH  14  15
ENDBRANCH  12  13
TORSDOF 6
ENDMDL
