MODEL 1
REMARK VINA RESULT:      -8.6      0.000      0.000
REMARK  Name = C:\Users\Docking\Desktop\test protocol\1iep_ligandH.pdb
REMARK  8 active torsions:
REMARK  status: ('A' for Active; 'I' for Inactive)
REMARK    1  A    between atoms: _5  and  _11
REMARK    2  A    between atoms: _19  and  _21
REMARK    3  A    between atoms: _22  and  _66
REMARK    4  A    between atoms: _27  and  _30
REMARK    5  A    between atoms: _32  and  _33
REMARK    6  A    between atoms: _38  and  _43
REMARK    7  A    between atoms: _43  and  _46
REMARK    8  A    between atoms: _53  and  _55
REMARK                            x       y       z     vdW  Elec       q    Type
REMARK                         _______ _______ _______ _____ _____    ______ ____
ROOT
ATOM     10  C   UNL     1      29.947  -8.410  20.769  0.00  0.00    +0.038 A 
ATOM     11  C   UNL     1      29.469  -7.074  20.780  0.00  0.00    +0.047 A 
ATOM     12  C   UNL     1      30.357  -5.960  21.074  0.00  0.00    +0.035 A 
ATOM     32  C   UNL     1      31.727  -6.242  21.348  0.00  0.00    +0.024 A 
ATOM     33  C   UNL     1      32.229  -7.594  21.341  0.00  0.00    +0.007 A 
ATOM     34  C   UNL     1      31.358  -8.697  21.055  0.00  0.00    -0.029 A 
ATOM     35  C   UNL     1      31.949 -10.126  21.068  0.00  0.00    +0.045 C 
ENDROOT
BRANCH  10   9
ATOM      4  C   UNL     1      26.817 -11.794  22.106  0.00  0.00    +0.077 A 
ATOM      5  C   UNL     1      27.004 -11.500  23.498  0.00  0.00    +0.048 A 
ATOM      6  C   UNL     1      27.920 -10.476  23.828  0.00  0.00    +0.116 A 
ATOM      7  N   UNL     1      28.592  -9.802  22.832  0.00  0.00    -0.223 NA
ATOM      8  C   UNL     1      28.390 -10.111  21.499  0.00  0.00    +0.220 A 
ATOM      9  N   UNL     1      29.050  -9.441  20.481  0.00  0.00    -0.283 N 
ATOM     36  H   UNL     1      28.879  -9.704  19.511  0.00  0.00    +0.155 HD
ATOM     37  N   UNL     1      27.522 -11.086  21.158  0.00  0.00    -0.214 NA
BRANCH   4   3
ATOM      1  C   UNL     1      24.910 -15.175  21.623  0.00  0.00    +0.020 A 
ATOM      2  C   UNL     1      25.833 -14.195  22.149  0.00  0.00    +0.013 A 
ATOM      3  C   UNL     1      25.881 -12.847  21.599  0.00  0.00    +0.019 A 
ATOM     38  C   UNL     1      24.974 -12.518  20.509  0.00  0.00    +0.120 A 
ATOM     39  N   UNL     1      24.098 -13.482  20.022  0.00  0.00    -0.263 NA
ATOM     40  C   UNL     1      24.044 -14.784  20.542  0.00  0.00    +0.111 A 
ENDBRANCH   4   3
ENDBRANCH  10   9
BRANCH  12  13
ATOM     13  N   UNL     1      29.927  -4.584  21.108  0.00  0.00    -0.281 N 
ATOM     14  C   UNL     1      29.491  -3.855  22.202  0.00  0.00    +0.248 C 
ATOM     30  O   UNL     1      29.199  -4.341  23.284  0.00  0.00    -0.270 OA
ATOM     31  H   UNL     1      29.948  -4.087  20.217  0.00  0.00    +0.155 HD
BRANCH  14  15
ATOM     15  C   UNL     1      29.342  -2.374  22.070  0.00  0.00    +0.037 A 
ATOM     16  C   UNL     1      28.193  -1.784  21.379  0.00  0.00    +0.013 A 
ATOM     17  C   UNL     1      28.083  -0.352  21.251  0.00  0.00    +0.005 A 
ATOM     18  C   UNL     1      29.126   0.500  21.817  0.00  0.00    -0.033 A 
ATOM     28  C   UNL     1      30.253  -0.112  22.503  0.00  0.00    +0.005 A 
ATOM     29  C   UNL     1      30.364  -1.515  22.629  0.00  0.00    +0.013 A 
BRANCH  18  19
ATOM     19  C   UNL     1      29.102   2.036  21.710  0.00  0.00    +0.119 C 
BRANCH  19  20
ATOM     20  N   UNL     1      28.514   2.792  22.855  0.00  0.00    -0.302 NA
ATOM     21  C   UNL     1      27.390   3.731  22.408  0.00  0.00    +0.066 C 
ATOM     22  C   UNL     1      26.771   4.498  23.622  0.00  0.00    -0.064 C 
ATOM     23  N   UNL     1      27.872   5.277  24.344  0.00  0.00    +0.379 N 
ATOM     24  C   UNL     1      27.284   6.045  25.451  0.00  0.00    -0.096 C 
ATOM     25  H   UNL     1      28.302   6.005  23.618  0.00  0.00    -0.082 HD
ATOM     26  C   UNL     1      28.995   4.351  24.790  0.00  0.00    -0.064 C 
ATOM     27  C   UNL     1      29.583   3.572  23.580  0.00  0.00    +0.066 C 
ENDBRANCH  19  20
ENDBRANCH  18  19
ENDBRANCH  14  15
ENDBRANCH  12  13
TORSDOF 6
ENDMDL
MODEL 2
REMARK VINA RESULT:      -8.1     23.964     25.928
REMARK  Name = C:\Users\Docking\Desktop\test protocol\1iep_ligandH.pdb
REMARK  8 active torsions:
REMARK  status: ('A' for Active; 'I' for Inactive)
REMARK    1  A    between atoms: _5  and  _11
REMARK    2  A    between atoms: _19  and  _21
REMARK    3  A    between atoms: _22  and  _66
REMARK    4  A    between atoms: _27  and  _30
REMARK    5  A    between atoms: _32  and  _33
REMARK    6  A    between atoms: _38  and  _43
REMARK    7  A    between atoms: _43  and  _46
REMARK    8  A    between atoms: _53  and  _55
REMARK                            x       y       z     vdW  Elec       q    Type
REMARK                         _______ _______ _______ _____ _____    ______ ____
ROOT
ATOM     10  C   UNL     1       4.020   4.749  19.989  0.00  0.00    +0.038 A 
ATOM     11  C   UNL     1       5.136   5.295  20.673  0.00  0.00    +0.047 A 
ATOM     12  C   UNL     1       4.961   6.142  21.843  0.00  0.00    +0.035 A 
ATOM     32  C   UNL     1       3.634   6.410  22.290  0.00  0.00    +0.024 A 
ATOM     33  C   UNL     1       2.489   5.865  21.605  0.00  0.00    +0.007 A 
ATOM     34  C   UNL     1       2.655   5.030  20.450  0.00  0.00    -0.029 A 
ATOM     35  C   UNL     1       1.391   4.478  19.752  0.00  0.00    +0.045 C 
ENDROOT
BRANCH  10   9
ATOM      4  C   UNL     1       4.913   4.150  15.311  0.00  0.00    +0.077 A 
ATOM      5  C   UNL     1       4.901   5.564  15.067  0.00  0.00    +0.048 A 
ATOM      6  C   UNL     1       4.654   6.410  16.171  0.00  0.00    +0.116 A 
ATOM      7  N   UNL     1       4.437   5.872  17.421  0.00  0.00    -0.223 NA
ATOM      8  C   UNL     1       4.454   4.504  17.622  0.00  0.00    +0.220 A 
ATOM      9  N   UNL     1       4.246   3.942  18.872  0.00  0.00    -0.283 N 
ATOM     36  H   UNL     1       4.259   2.928  18.977  0.00  0.00    +0.155 HD
ATOM     37  N   UNL     1       4.686   3.674  16.583  0.00  0.00    -0.214 NA
BRANCH   4   3
ATOM      1  C   UNL     1       5.512   0.754  13.465  0.00  0.00    +0.020 A 
ATOM      2  C   UNL     1       5.271   1.701  14.529  0.00  0.00    +0.013 A 
ATOM      3  C   UNL     1       5.163   3.127  14.247  0.00  0.00    +0.019 A 
ATOM     38  C   UNL     1       5.304   3.565  12.867  0.00  0.00    +0.120 A 
ATOM     39  N   UNL     1       5.537   2.630  11.863  0.00  0.00    -0.263 NA
ATOM     40  C   UNL     1       5.645   1.256  12.122  0.00  0.00    +0.111 A 
ENDBRANCH   4   3
ENDBRANCH  10   9
BRANCH  12  13
ATOM     13  N   UNL     1       6.056   6.731  22.574  0.00  0.00    -0.281 N 
ATOM     14  C   UNL     1       5.994   7.667  23.592  0.00  0.00    +0.248 C 
ATOM     30  O   UNL     1       4.992   8.303  23.887  0.00  0.00    -0.270 OA
ATOM     31  H   UNL     1       6.990   6.419  22.307  0.00  0.00    +0.155 HD
BRANCH  14  15
ATOM     15  C   UNL     1       7.226   7.948  24.391  0.00  0.00    +0.037 A 
ATOM     16  C   UNL     1       8.061   6.861  24.907  0.00  0.00    +0.013 A 
ATOM     17  C   UNL     1       9.235   7.160  25.689  0.00  0.00    +0.005 A 
ATOM     18  C   UNL     1       9.581   8.554  25.957  0.00  0.00    -0.033 A 
ATOM     28  C   UNL     1       8.737   9.613  25.428  0.00  0.00    +0.005 A 
ATOM     29  C   UNL     1       7.585   9.324  24.662  0.00  0.00    +0.013 A 
BRANCH  18  19
ATOM     19  C   UNL     1      10.803   8.965  26.800  0.00  0.00    +0.119 C 
BRANCH  19  20
ATOM     20  N   UNL     1      10.629   9.006  28.282  0.00  0.00    -0.302 NA
ATOM     21  C   UNL     1       9.400   9.822  28.694  0.00  0.00    +0.066 C 
ATOM     22  C   UNL     1       9.220   9.836  30.247  0.00  0.00    -0.064 C 
ATOM     23  N   UNL     1      10.486  10.396  30.899  0.00  0.00    +0.379 N 
ATOM     24  C   UNL     1      10.298  10.465  32.355  0.00  0.00    -0.096 C 
ATOM     25  H   UNL     1      10.625  11.438  30.526  0.00  0.00    -0.082 HD
ATOM     26  C   UNL     1      11.713   9.592  30.493  0.00  0.00    -0.064 C 
ATOM     27  C   UNL     1      11.865   9.560  28.946  0.00  0.00    +0.066 C 
ENDBRANCH  19  20
ENDBRANCH  18  19
ENDBRANCH  14  15
ENDBRANCH  12  13
TORSDOF 6
ENDMDL
MODEL 3
REMARK VINA RESULT:      -7.8     23.929     30.029
REMARK  Name = C:\Users\Docking\Desktop\test protocol\1iep_ligandH.pdb
REMARK  8 active torsions:
REMARK  status: ('A' for Active; 'I' for Inactive)
REMARK    1  A    between atoms: _5  and  _11
REMARK    2  A    between atoms: _19  and  _21
REMARK    3  A    between atoms: _22  and  _66
REMARK    4  A    between atoms: _27  and  _30
REMARK    5  A    between atoms: _32  and  _33
REMARK    6  A    between atoms: _38  and  _43
REMARK    7  A    between atoms: _43  and  _46
REMARK    8  A    between atoms: _53  and  _55
REMARK                            x       y       z     vdW  Elec       q    Type
REMARK                         _______ _______ _______ _____ _____    ______ ____
ROOT
ATOM     10  C   UNL     1       7.363   8.291  26.330  0.00  0.00    +0.038 A 
ATOM     11  C   UNL     1       6.147   9.018  26.248  0.00  0.00    +0.047 A 
ATOM     12  C   UNL     1       5.348   9.012  25.033  0.00  0.00    +0.035 A 
ATOM     32  C   UNL     1       5.815   8.254  23.920  0.00  0.00    +0.024 A 
ATOM     33  C   UNL     1       7.049   7.511  23.985  0.00  0.00    +0.007 A 
ATOM     34  C   UNL     1       7.843   7.514  25.181  0.00  0.00    -0.029 A 
ATOM     35  C   UNL     1       9.160   6.705  25.192  0.00  0.00    +0.045 C 
ENDROOT
BRANCH  10   9
ATOM      4  C   UNL     1      11.012   9.886  29.009  0.00  0.00    +0.077 A 
ATOM      5  C   UNL     1      11.528  10.686  27.936  0.00  0.00    +0.048 A 
ATOM      6  C   UNL     1      10.829  10.653  26.708  0.00  0.00    +0.116 A 
ATOM      7  N   UNL     1       9.699   9.876  26.576  0.00  0.00    -0.223 NA
ATOM      8  C   UNL     1       9.229   9.115  27.630  0.00  0.00    +0.220 A 
ATOM      9  N   UNL     1       8.090   8.332  27.521  0.00  0.00    -0.283 N 
ATOM     36  H   UNL     1       7.780   7.779  28.320  0.00  0.00    +0.155 HD
ATOM     37  N   UNL     1       9.880   9.127  28.812  0.00  0.00    -0.214 NA
BRANCH   4   3
ATOM      1  C   UNL     1      11.510   9.683  32.884  0.00  0.00    +0.020 A 
ATOM      2  C   UNL     1      10.857   9.748  31.597  0.00  0.00    +0.013 A 
ATOM      3  C   UNL     1      11.638   9.817  30.368  0.00  0.00    +0.019 A 
ATOM     38  C   UNL     1      13.089   9.817  30.476  0.00  0.00    +0.120 A 
ATOM     39  N   UNL     1      13.690   9.755  31.730  0.00  0.00    -0.263 NA
ATOM     40  C   UNL     1      12.949   9.690  32.919  0.00  0.00    +0.111 A 
ENDBRANCH   4   3
ENDBRANCH  10   9
BRANCH  12  13
ATOM     13  N   UNL     1       4.110   9.737  24.888  0.00  0.00    -0.281 N 
ATOM     14  C   UNL     1       3.246  10.154  25.887  0.00  0.00    +0.248 C 
ATOM     30  O   UNL     1       3.300   9.779  27.049  0.00  0.00    -0.270 OA
ATOM     31  H   UNL     1       3.837   9.971  23.933  0.00  0.00    +0.155 HD
BRANCH  14  15
ATOM     15  C   UNL     1       2.155  11.116  25.543  0.00  0.00    +0.037 A 
ATOM     16  C   UNL     1       0.746  10.720  25.601  0.00  0.00    +0.013 A 
ATOM     17  C   UNL     1      -0.286  11.662  25.248  0.00  0.00    +0.005 A 
ATOM     18  C   UNL     1       0.089  13.013  24.834  0.00  0.00    -0.033 A 
ATOM     28  C   UNL     1       1.494  13.381  24.790  0.00  0.00    +0.005 A 
ATOM     29  C   UNL     1       2.508  12.460  25.135  0.00  0.00    +0.013 A 
BRANCH  18  19
ATOM     19  C   UNL     1      -0.944  14.077  24.419  0.00  0.00    +0.119 C 
BRANCH  19  20
ATOM     20  N   UNL     1      -1.774  13.790  23.211  0.00  0.00    -0.302 NA
ATOM     21  C   UNL     1      -1.320  14.604  21.996  0.00  0.00    +0.066 C 
ATOM     22  C   UNL     1      -2.184  14.275  20.735  0.00  0.00    -0.064 C 
ATOM     23  N   UNL     1      -3.658  14.543  21.046  0.00  0.00    +0.379 N 
ATOM     24  C   UNL     1      -4.467  14.290  19.845  0.00  0.00    -0.096 C 
ATOM     25  H   UNL     1      -3.758  15.624  21.300  0.00  0.00    -0.082 HD
ATOM     26  C   UNL     1      -4.117  13.740  22.255  0.00  0.00    -0.064 C 
ATOM     27  C   UNL     1      -3.233  14.052  23.494  0.00  0.00    +0.066 C 
ENDBRANCH  19  20
ENDBRANCH  18  19
ENDBRANCH  14  15
ENDBRANCH  12  13
TORSDOF 6
ENDMDL
MODEL 4
REMARK VINA RESULT:      -7.7     22.840     26.482
REMARK  Name = C:\Users\Docking\Desktop\test protocol\1iep_ligandH.pdb
REMARK  8 active torsions:
REMARK  status: ('A' for Active; 'I' for Inactive)
REMARK    1  A    between atoms: _5  and  _11
REMARK    2  A    between atoms: _19  and  _21
REMARK    3  A    between atoms: _22  and  _66
REMARK    4  A    between atoms: _27  and  _30
REMARK    5  A    between atoms: _32  and  _33
REMARK    6  A    between atoms: _38  and  _43
REMARK    7  A    between atoms: _43  and  _46
REMARK    8  A    between atoms: _53  and  _55
REMARK                            x       y       z     vdW  Elec       q    Type
REMARK                         _______ _______ _______ _____ _____    ______ ____
ROOT
ATOM     10  C   UNL     1       3.308   5.210  19.678  0.00  0.00    +0.038 A 
ATOM     11  C   UNL     1       4.282   5.533  20.657  0.00  0.00    +0.047 A 
ATOM     12  C   UNL     1       3.896   6.068  21.953  0.00  0.00    +0.035 A 
ATOM     32  C   UNL     1       2.509   6.257  22.221  0.00  0.00    +0.024 A 
ATOM     33  C   UNL     1       1.506   5.935  21.237  0.00  0.00    +0.007 A 
ATOM     34  C   UNL     1       1.880   5.410  19.955  0.00  0.00    -0.029 A 
ATOM     35  C   UNL     1       0.763   5.088  18.936  0.00  0.00    +0.045 C 
ENDROOT
BRANCH  10   9
ATOM      4  C   UNL     1       4.667   5.762  15.107  0.00  0.00    +0.077 A 
ATOM      5  C   UNL     1       4.487   7.184  15.164  0.00  0.00    +0.048 A 
ATOM      6  C   UNL     1       4.036   7.733  16.385  0.00  0.00    +0.116 A 
ATOM      7  N   UNL     1       3.788   6.912  17.463  0.00  0.00    -0.223 NA
ATOM      8  C   UNL     1       3.970   5.544  17.375  0.00  0.00    +0.220 A 
ATOM      9  N   UNL     1       3.734   4.700  18.449  0.00  0.00    -0.283 N 
ATOM     36  H   UNL     1       3.874   3.695  18.341  0.00  0.00    +0.155 HD
ATOM     37  N   UNL     1       4.398   4.995  16.219  0.00  0.00    -0.214 NA
BRANCH   4   3
ATOM      1  C   UNL     1       5.502   2.933  12.538  0.00  0.00    +0.020 A 
ATOM      2  C   UNL     1       5.029   3.588  13.736  0.00  0.00    +0.013 A 
ATOM      3  C   UNL     1       5.141   5.033  13.888  0.00  0.00    +0.019 A 
ATOM     38  C   UNL     1       5.740   5.793  12.802  0.00  0.00    +0.120 A 
ATOM     39  N   UNL     1       6.188   5.135  11.660  0.00  0.00    -0.263 NA
ATOM     40  C   UNL     1       6.087   3.744  11.503  0.00  0.00    +0.111 A 
ENDBRANCH   4   3
ENDBRANCH  10   9
BRANCH  12  13
ATOM     13  N   UNL     1       4.841   6.422  22.984  0.00  0.00    -0.281 N 
ATOM     14  C   UNL     1       5.982   7.198  22.863  0.00  0.00    +0.248 C 
ATOM     30  O   UNL     1       6.481   7.532  21.799  0.00  0.00    -0.270 OA
ATOM     31  H   UNL     1       4.644   6.056  23.916  0.00  0.00    +0.155 HD
BRANCH  14  15
ATOM     15  C   UNL     1       6.676   7.659  24.104  0.00  0.00    +0.037 A 
ATOM     16  C   UNL     1       6.672   9.071  24.497  0.00  0.00    +0.013 A 
ATOM     17  C   UNL     1       7.365   9.491  25.689  0.00  0.00    +0.005 A 
ATOM     18  C   UNL     1       8.066   8.497  26.498  0.00  0.00    -0.033 A 
ATOM     28  C   UNL     1       8.049   7.103  26.088  0.00  0.00    +0.005 A 
ATOM     29  C   UNL     1       7.372   6.687  24.919  0.00  0.00    +0.013 A 
BRANCH  18  19
ATOM     19  C   UNL     1       8.848   8.859  27.775  0.00  0.00    +0.119 C 
BRANCH  19  20
ATOM     20  N   UNL     1      10.190   9.489  27.598  0.00  0.00    -0.302 NA
ATOM     21  C   UNL     1      11.108   8.647  26.707  0.00  0.00    +0.066 C 
ATOM     22  C   UNL     1      12.500   9.333  26.515  0.00  0.00    -0.064 C 
ATOM     23  N   UNL     1      13.142   9.569  27.883  0.00  0.00    +0.379 N 
ATOM     24  C   UNL     1      14.476  10.160  27.703  0.00  0.00    -0.096 C 
ATOM     25  H   UNL     1      13.275   8.575  28.370  0.00  0.00    -0.082 HD
ATOM     26  C   UNL     1      12.235  10.403  28.776  0.00  0.00    -0.064 C 
ATOM     27  C   UNL     1      10.845   9.728  28.937  0.00  0.00    +0.066 C 
ENDBRANCH  19  20
ENDBRANCH  18  19
ENDBRANCH  14  15
ENDBRANCH  12  13
TORSDOF 6
ENDMDL
MODEL 5
REMARK VINA RESULT:      -7.6     22.413     27.328
REMARK  Name = C:\Users\Docking\Desktop\test protocol\1iep_ligandH.pdb
REMARK  8 active torsions:
REMARK  status: ('A' for Active; 'I' for Inactive)
REMARK    1  A    between atoms: _5  and  _11
REMARK    2  A    between atoms: _19  and  _21
REMARK    3  A    between atoms: _22  and  _66
REMARK    4  A    between atoms: _27  and  _30
REMARK    5  A    between atoms: _32  and  _33
REMARK    6  A    between atoms: _38  and  _43
REMARK    7  A    between atoms: _43  and  _46
REMARK    8  A    between atoms: _53  and  _55
REMARK                            x       y       z     vdW  Elec       q    Type
REMARK                         _______ _______ _______ _____ _____    ______ ____
ROOT
ATOM     10  C   UNL     1       4.616   5.657  17.448  0.00  0.00    +0.038 A 
ATOM     11  C   UNL     1       4.934   4.361  16.967  0.00  0.00    +0.047 A 
ATOM     12  C   UNL     1       4.284   3.816  15.785  0.00  0.00    +0.035 A 
ATOM     32  C   UNL     1       3.316   4.620  15.116  0.00  0.00    +0.024 A 
ATOM     33  C   UNL     1       2.980   5.939  15.591  0.00  0.00    +0.007 A 
ATOM     34  C   UNL     1       3.617   6.481  16.758  0.00  0.00    -0.029 A 
ATOM     35  C   UNL     1       3.213   7.898  17.227  0.00  0.00    +0.045 C 
ENDROOT
BRANCH  10   9
ATOM      4  C   UNL     1       4.768   6.631  22.145  0.00  0.00    +0.077 A 
ATOM      5  C   UNL     1       3.419   6.184  22.342  0.00  0.00    +0.048 A 
ATOM      6  C   UNL     1       2.718   5.718  21.207  0.00  0.00    +0.116 A 
ATOM      7  N   UNL     1       3.331   5.704  19.972  0.00  0.00    -0.223 NA
ATOM      8  C   UNL     1       4.633   6.143  19.818  0.00  0.00    +0.220 A 
ATOM      9  N   UNL     1       5.271   6.130  18.587  0.00  0.00    -0.283 N 
ATOM     36  H   UNL     1       6.230   6.469  18.513  0.00  0.00    +0.155 HD
ATOM     37  N   UNL     1       5.323   6.594  20.885  0.00  0.00    -0.214 NA
BRANCH   4   3
ATOM      1  C   UNL     1       6.065   8.595  25.270  0.00  0.00    +0.020 A 
ATOM      2  C   UNL     1       5.183   8.128  24.225  0.00  0.00    +0.013 A 
ATOM      3  C   UNL     1       5.640   7.148  23.247  0.00  0.00    +0.019 A 
ATOM     38  C   UNL     1       7.005   6.656  23.357  0.00  0.00    +0.120 A 
ATOM     39  N   UNL     1       7.831   7.124  24.373  0.00  0.00    -0.263 NA
ATOM     40  C   UNL     1       7.403   8.069  25.318  0.00  0.00    +0.111 A 
ENDBRANCH   4   3
ENDBRANCH  10   9
BRANCH  12  13
ATOM     13  N   UNL     1       4.560   2.504  15.255  0.00  0.00    -0.281 N 
ATOM     14  C   UNL     1       5.194   2.182  14.067  0.00  0.00    +0.248 C 
ATOM     30  O   UNL     1       5.433   2.979  13.172  0.00  0.00    -0.270 OA
ATOM     31  H   UNL     1       4.250   1.717  15.825  0.00  0.00    +0.155 HD
BRANCH  14  15
ATOM     15  C   UNL     1       5.612   0.766  13.832  0.00  0.00    +0.037 A 
ATOM     16  C   UNL     1       7.010   0.421  13.560  0.00  0.00    +0.013 A 
ATOM     17  C   UNL     1       7.383  -0.951  13.321  0.00  0.00    +0.005 A 
ATOM     18  C   UNL     1       6.355  -1.988  13.353  0.00  0.00    -0.033 A 
ATOM     28  C   UNL     1       4.977  -1.619  13.629  0.00  0.00    +0.005 A 
ATOM     29  C   UNL     1       4.607  -0.275  13.864  0.00  0.00    +0.013 A 
BRANCH  18  19
ATOM     19  C   UNL     1       6.659  -3.475  13.087  0.00  0.00    +0.119 C 
BRANCH  19  20
ATOM     20  N   UNL     1       7.370  -4.230  14.161  0.00  0.00    -0.302 NA
ATOM     21  C   UNL     1       6.951  -3.770  15.561  0.00  0.00    +0.066 C 
ATOM     22  C   UNL     1       7.688  -4.585  16.672  0.00  0.00    -0.064 C 
ATOM     23  N   UNL     1       9.200  -4.445  16.486  0.00  0.00    +0.379 N 
ATOM     24  C   UNL     1       9.896  -5.163  17.564  0.00  0.00    -0.096 C 
ATOM     25  H   UNL     1       9.453  -3.363  16.582  0.00  0.00    -0.082 HD
ATOM     26  C   UNL     1       9.625  -4.897  15.096  0.00  0.00    -0.064 C 
ATOM     27  C   UNL     1       8.865  -4.101  13.999  0.00  0.00    +0.066 C 
ENDBRANCH  19  20
ENDBRANCH  18  19
ENDBRANCH  14  15
ENDBRANCH  12  13
TORSDOF 6
ENDMDL
