MODEL 1
REMARK VINA RESULT:      -8.2      0.000      0.000
REMARK  Name = C:\Users\Docking\Desktop\test protocol\1iep_ligandH.pdb
REMARK  8 active torsions:
REMARK  status: ('A' for Active; 'I' for Inactive)
REMARK    1  A    between atoms: _5  and  _11
REMARK    2  A    between atoms: _19  and  _21
REMARK    3  A    between atoms: _22  and  _66
REMARK    4  A    between atoms: _27  and  _30
REMARK    5  A    between atoms: _32  and  _33
REMARK    6  A    between atoms: _38  and  _43
REMARK    7  A    between atoms: _43  and  _46
REMARK    8  A    between atoms: _53  and  _55
REMARK                            x       y       z     vdW  Elec       q    Type
REMARK                         _______ _______ _______ _____ _____    ______ ____
ROOT
ATOM     10  C   UNL     1       9.164  25.516  19.212  0.00  0.00    +0.038 A 
ATOM     11  C   UNL     1      10.443  25.218  18.676  0.00  0.00    +0.047 A 
ATOM     12  C   UNL     1      10.981  23.867  18.720  0.00  0.00    +0.035 A 
ATOM     32  C   UNL     1      10.188  22.843  19.314  0.00  0.00    +0.024 A 
ATOM     33  C   UNL     1       8.887  23.128  19.865  0.00  0.00    +0.007 A 
ATOM     34  C   UNL     1       8.352  24.459  19.827  0.00  0.00    -0.029 A 
ATOM     35  C   UNL     1       6.953  24.708  20.438  0.00  0.00    +0.045 C 
ENDROOT
BRANCH  10   9
ATOM      4  C   UNL     1       8.226  29.784  21.198  0.00  0.00    +0.077 A 
ATOM      5  C   UNL     1       8.681  29.350  22.488  0.00  0.00    +0.048 A 
ATOM      6  C   UNL     1       9.142  28.019  22.599  0.00  0.00    +0.116 A 
ATOM      7  N   UNL     1       9.144  27.192  21.497  0.00  0.00    -0.223 NA
ATOM      8  C   UNL     1       8.697  27.642  20.268  0.00  0.00    +0.220 A 
ATOM      9  N   UNL     1       8.696  26.830  19.144  0.00  0.00    -0.283 N 
ATOM     36  H   UNL     1       8.351  27.197  18.257  0.00  0.00    +0.155 HD
ATOM     37  N   UNL     1       8.250  28.908  20.136  0.00  0.00    -0.214 NA
BRANCH   4   3
ATOM      1  C   UNL     1       6.336  33.195  21.501  0.00  0.00    +0.020 A 
ATOM      2  C   UNL     1       6.801  31.864  21.816  0.00  0.00    +0.013 A 
ATOM      3  C   UNL     1       7.713  31.162  20.920  0.00  0.00    +0.019 A 
ATOM     38  C   UNL     1       8.138  31.841  19.705  0.00  0.00    +0.120 A 
ATOM     39  N   UNL     1       7.671  33.122  19.428  0.00  0.00    -0.263 NA
ATOM     40  C   UNL     1       6.793  33.806  20.281  0.00  0.00    +0.111 A 
ENDBRANCH   4   3
ENDBRANCH  10   9
BRANCH  12  13
ATOM     13  N   UNL     1      12.277  23.507  18.199  0.00  0.00    -0.281 N 
ATOM     14  C   UNL     1      12.562  22.754  17.071  0.00  0.00    +0.248 C 
ATOM     30  O   UNL     1      11.739  22.094  16.455  0.00  0.00    -0.270 OA
ATOM     31  H   UNL     1      13.081  23.848  18.725  0.00  0.00    +0.155 HD
BRANCH  14  15
ATOM     15  C   UNL     1      13.967  22.719  16.563  0.00  0.00    +0.037 A 
ATOM     16  C   UNL     1      15.103  22.986  17.450  0.00  0.00    +0.013 A 
ATOM     17  C   UNL     1      16.447  22.962  16.931  0.00  0.00    +0.005 A 
ATOM     18  C   UNL     1      16.663  22.669  15.516  0.00  0.00    -0.033 A 
ATOM     28  C   UNL     1      15.519  22.403  14.660  0.00  0.00    +0.005 A 
ATOM     29  C   UNL     1      14.200  22.426  15.165  0.00  0.00    +0.013 A 
BRANCH  18  19
ATOM     19  C   UNL     1      18.061  22.643  14.871  0.00  0.00    +0.119 C 
BRANCH  19  20
ATOM     20  N   UNL     1      18.859  23.905  14.916  0.00  0.00    -0.302 NA
ATOM     21  C   UNL     1      18.081  25.097  14.351  0.00  0.00    +0.066 C 
ATOM     22  C   UNL     1      18.921  26.413  14.427  0.00  0.00    -0.064 C 
ATOM     23  N   UNL     1      20.238  26.219  13.673  0.00  0.00    +0.379 N 
ATOM     24  C   UNL     1      21.004  27.473  13.693  0.00  0.00    -0.096 C 
ATOM     25  H   UNL     1      19.988  25.992  12.610  0.00  0.00    -0.082 HD
ATOM     26  C   UNL     1      21.016  25.034  14.227  0.00  0.00    -0.064 C 
ATOM     27  C   UNL     1      20.161  23.737  14.174  0.00  0.00    +0.066 C 
ENDBRANCH  19  20
ENDBRANCH  18  19
ENDBRANCH  14  15
ENDBRANCH  12  13
TORSDOF 6
ENDMDL
MODEL 2
REMARK VINA RESULT:      -8.0      6.254     12.523
REMARK  Name = C:\Users\Docking\Desktop\test protocol\1iep_ligandH.pdb
REMARK  8 active torsions:
REMARK  status: ('A' for Active; 'I' for Inactive)
REMARK    1  A    between atoms: _5  and  _11
REMARK    2  A    between atoms: _19  and  _21
REMARK    3  A    between atoms: _22  and  _66
REMARK    4  A    between atoms: _27  and  _30
REMARK    5  A    between atoms: _32  and  _33
REMARK    6  A    between atoms: _38  and  _43
REMARK    7  A    between atoms: _43  and  _46
REMARK    8  A    between atoms: _53  and  _55
REMARK                            x       y       z     vdW  Elec       q    Type
REMARK                         _______ _______ _______ _____ _____    ______ ____
ROOT
ATOM     10  C   UNL     1       5.516  38.113  20.021  0.00  0.00    +0.038 A 
ATOM     11  C   UNL     1       6.089  36.900  20.480  0.00  0.00    +0.047 A 
ATOM     12  C   UNL     1       6.284  35.772  19.582  0.00  0.00    +0.035 A 
ATOM     32  C   UNL     1       5.887  35.916  18.220  0.00  0.00    +0.024 A 
ATOM     33  C   UNL     1       5.302  37.142  17.737  0.00  0.00    +0.007 A 
ATOM     34  C   UNL     1       5.105  38.257  18.619  0.00  0.00    -0.029 A 
ATOM     35  C   UNL     1       4.467  39.545  18.047  0.00  0.00    +0.045 C 
ENDROOT
BRANCH  10   9
ATOM      4  C   UNL     1       3.536  40.052  23.940  0.00  0.00    +0.077 A 
ATOM      5  C   UNL     1       2.742  38.883  24.189  0.00  0.00    +0.048 A 
ATOM      6  C   UNL     1       2.867  37.808  23.280  0.00  0.00    +0.116 A 
ATOM      7  N   UNL     1       3.726  37.905  22.207  0.00  0.00    -0.223 NA
ATOM      8  C   UNL     1       4.476  39.047  21.995  0.00  0.00    +0.220 A 
ATOM      9  N   UNL     1       5.352  39.163  20.927  0.00  0.00    -0.283 N 
ATOM     36  H   UNL     1       5.882  40.025  20.801  0.00  0.00    +0.155 HD
ATOM     37  N   UNL     1       4.373  40.088  22.847  0.00  0.00    -0.214 NA
BRANCH   4   3
ATOM      1  C   UNL     1       3.179  42.428  27.026  0.00  0.00    +0.020 A 
ATOM      2  C   UNL     1       3.182  41.223  26.229  0.00  0.00    +0.013 A 
ATOM      3  C   UNL     1       3.517  41.269  24.811  0.00  0.00    +0.019 A 
ATOM     38  C   UNL     1       3.847  42.560  24.226  0.00  0.00    +0.120 A 
ATOM     39  N   UNL     1       3.834  43.703  25.019  0.00  0.00    -0.263 NA
ATOM     40  C   UNL     1       3.512  43.672  26.384  0.00  0.00    +0.111 A 
ENDBRANCH   4   3
ENDBRANCH  10   9
BRANCH  12  13
ATOM     13  N   UNL     1       6.853  34.513  19.993  0.00  0.00    -0.281 N 
ATOM     14  C   UNL     1       6.204  33.431  20.565  0.00  0.00    +0.248 C 
ATOM     30  O   UNL     1       5.066  33.464  21.009  0.00  0.00    -0.270 OA
ATOM     31  H   UNL     1       7.857  34.405  19.844  0.00  0.00    +0.155 HD
BRANCH  14  15
ATOM     15  C   UNL     1       6.928  32.129  20.674  0.00  0.00    +0.037 A 
ATOM     16  C   UNL     1       7.389  31.414  19.480  0.00  0.00    +0.013 A 
ATOM     17  C   UNL     1       8.071  30.151  19.612  0.00  0.00    +0.005 A 
ATOM     18  C   UNL     1       8.297  29.594  20.944  0.00  0.00    -0.033 A 
ATOM     28  C   UNL     1       7.834  30.327  22.111  0.00  0.00    +0.005 A 
ATOM     29  C   UNL     1       7.164  31.565  21.986  0.00  0.00    +0.013 A 
BRANCH  18  19
ATOM     19  C   UNL     1       8.997  28.242  21.178  0.00  0.00    +0.119 C 
BRANCH  19  20
ATOM     20  N   UNL     1       8.828  27.194  20.127  0.00  0.00    -0.302 NA
ATOM     21  C   UNL     1       8.132  25.943  20.671  0.00  0.00    +0.066 C 
ATOM     22  C   UNL     1       7.943  24.866  19.553  0.00  0.00    -0.064 C 
ATOM     23  N   UNL     1       9.306  24.512  18.955  0.00  0.00    +0.379 N 
ATOM     24  C   UNL     1       9.139  23.457  17.945  0.00  0.00    -0.096 C 
ATOM     25  H   UNL     1       9.937  24.097  19.775  0.00  0.00    -0.082 HD
ATOM     26  C   UNL     1      10.006  25.751  18.415  0.00  0.00    -0.064 C 
ATOM     27  C   UNL     1      10.162  26.826  19.526  0.00  0.00    +0.066 C 
ENDBRANCH  19  20
ENDBRANCH  18  19
ENDBRANCH  14  15
ENDBRANCH  12  13
TORSDOF 6
ENDMDL
MODEL 3
REMARK VINA RESULT:      -8.0      2.248     11.854
REMARK  Name = C:\Users\Docking\Desktop\test protocol\1iep_ligandH.pdb
REMARK  8 active torsions:
REMARK  status: ('A' for Active; 'I' for Inactive)
REMARK    1  A    between atoms: _5  and  _11
REMARK    2  A    between atoms: _19  and  _21
REMARK    3  A    between atoms: _22  and  _66
REMARK    4  A    between atoms: _27  and  _30
REMARK    5  A    between atoms: _32  and  _33
REMARK    6  A    between atoms: _38  and  _43
REMARK    7  A    between atoms: _43  and  _46
REMARK    8  A    between atoms: _53  and  _55
REMARK                            x       y       z     vdW  Elec       q    Type
REMARK                         _______ _______ _______ _____ _____    ______ ____
ROOT
ATOM     10  C   UNL     1      17.181  22.643  14.706  0.00  0.00    +0.038 A 
ATOM     11  C   UNL     1      15.965  22.961  15.364  0.00  0.00    +0.047 A 
ATOM     12  C   UNL     1      14.691  22.456  14.876  0.00  0.00    +0.035 A 
ATOM     32  C   UNL     1      14.693  21.626  13.717  0.00  0.00    +0.024 A 
ATOM     33  C   UNL     1      15.919  21.294  13.035  0.00  0.00    +0.007 A 
ATOM     34  C   UNL     1      17.178  21.792  13.510  0.00  0.00    -0.029 A 
ATOM     35  C   UNL     1      18.461  21.409  12.736  0.00  0.00    +0.045 C 
ENDROOT
BRANCH  10   9
ATOM      4  C   UNL     1      20.386  26.176  15.238  0.00  0.00    +0.077 A 
ATOM      5  C   UNL     1      19.631  27.067  14.405  0.00  0.00    +0.048 A 
ATOM      6  C   UNL     1      18.427  26.575  13.853  0.00  0.00    +0.116 A 
ATOM      7  N   UNL     1      18.018  25.286  14.121  0.00  0.00    -0.223 NA
ATOM      8  C   UNL     1      18.771  24.453  14.928  0.00  0.00    +0.220 A 
ATOM      9  N   UNL     1      18.375  23.156  15.217  0.00  0.00    -0.283 N 
ATOM     36  H   UNL     1      18.962  22.570  15.811  0.00  0.00    +0.155 HD
ATOM     37  N   UNL     1      19.926  24.898  15.466  0.00  0.00    -0.214 NA
BRANCH   4   3
ATOM      1  C   UNL     1      24.098  27.261  15.831  0.00  0.00    +0.020 A 
ATOM      2  C   UNL     1      22.876  26.906  15.146  0.00  0.00    +0.013 A 
ATOM      3  C   UNL     1      21.678  26.550  15.896  0.00  0.00    +0.019 A 
ATOM     38  C   UNL     1      21.750  26.563  17.350  0.00  0.00    +0.120 A 
ATOM     39  N   UNL     1      22.941  26.907  17.982  0.00  0.00    -0.263 NA
ATOM     40  C   UNL     1      24.101  27.250  17.270  0.00  0.00    +0.111 A 
ENDBRANCH   4   3
ENDBRANCH  10   9
BRANCH  12  13
ATOM     13  N   UNL     1      13.424  22.751  15.498  0.00  0.00    -0.281 N 
ATOM     14  C   UNL     1      12.791  22.054  16.514  0.00  0.00    +0.248 C 
ATOM     30  O   UNL     1      13.120  20.942  16.899  0.00  0.00    -0.270 OA
ATOM     31  H   UNL     1      12.934  23.574  15.146  0.00  0.00    +0.155 HD
BRANCH  14  15
ATOM     15  C   UNL     1      11.613  22.677  17.191  0.00  0.00    +0.037 A 
ATOM     16  C   UNL     1      10.274  22.092  17.077  0.00  0.00    +0.013 A 
ATOM     17  C   UNL     1       9.152  22.723  17.726  0.00  0.00    +0.005 A 
ATOM     18  C   UNL     1       9.365  23.945  18.498  0.00  0.00    -0.033 A 
ATOM     28  C   UNL     1      10.704  24.500  18.599  0.00  0.00    +0.005 A 
ATOM     29  C   UNL     1      11.806  23.886  17.963  0.00  0.00    +0.013 A 
BRANCH  18  19
ATOM     19  C   UNL     1       8.222  24.696  19.206  0.00  0.00    +0.119 C 
BRANCH  19  20
ATOM     20  N   UNL     1       8.603  25.677  20.266  0.00  0.00    -0.302 NA
ATOM     21  C   UNL     1       7.493  25.860  21.304  0.00  0.00    +0.066 C 
ATOM     22  C   UNL     1       7.916  26.873  22.418  0.00  0.00    -0.064 C 
ATOM     23  N   UNL     1       8.282  28.211  21.774  0.00  0.00    +0.379 N 
ATOM     24  C   UNL     1       8.624  29.183  22.823  0.00  0.00    -0.096 C 
ATOM     25  H   UNL     1       7.376  28.590  21.245  0.00  0.00    -0.082 HD
ATOM     26  C   UNL     1       9.383  28.038  20.738  0.00  0.00    -0.064 C 
ATOM     27  C   UNL     1       8.963  27.008  19.652  0.00  0.00    +0.066 C 
ENDBRANCH  19  20
ENDBRANCH  18  19
ENDBRANCH  14  15
ENDBRANCH  12  13
TORSDOF 6
ENDMDL
MODEL 4
REMARK VINA RESULT:      -7.9      3.291     12.202
REMARK  Name = C:\Users\Docking\Desktop\test protocol\1iep_ligandH.pdb
REMARK  8 active torsions:
REMARK  status: ('A' for Active; 'I' for Inactive)
REMARK    1  A    between atoms: _5  and  _11
REMARK    2  A    between atoms: _19  and  _21
REMARK    3  A    between atoms: _22  and  _66
REMARK    4  A    between atoms: _27  and  _30
REMARK    5  A    between atoms: _32  and  _33
REMARK    6  A    between atoms: _38  and  _43
REMARK    7  A    between atoms: _43  and  _46
REMARK    8  A    between atoms: _53  and  _55
REMARK                            x       y       z     vdW  Elec       q    Type
REMARK                         _______ _______ _______ _____ _____    ______ ____
ROOT
ATOM     10  C   UNL     1      17.011  22.677  14.843  0.00  0.00    +0.038 A 
ATOM     11  C   UNL     1      15.790  23.002  15.488  0.00  0.00    +0.047 A 
ATOM     12  C   UNL     1      14.519  22.506  14.985  0.00  0.00    +0.035 A 
ATOM     32  C   UNL     1      14.528  21.678  13.824  0.00  0.00    +0.024 A 
ATOM     33  C   UNL     1      15.759  21.339  13.156  0.00  0.00    +0.007 A 
ATOM     34  C   UNL     1      17.016  21.827  13.646  0.00  0.00    -0.029 A 
ATOM     35  C   UNL     1      18.305  21.437  12.886  0.00  0.00    +0.045 C 
ENDROOT
BRANCH  10   9
ATOM      4  C   UNL     1      20.308  26.135  15.301  0.00  0.00    +0.077 A 
ATOM      5  C   UNL     1      19.610  27.001  14.395  0.00  0.00    +0.048 A 
ATOM      6  C   UNL     1      18.411  26.516  13.827  0.00  0.00    +0.116 A 
ATOM      7  N   UNL     1      17.952  25.258  14.149  0.00  0.00    -0.223 NA
ATOM      8  C   UNL     1      18.650  24.447  15.025  0.00  0.00    +0.220 A 
ATOM      9  N   UNL     1      18.203  23.180  15.369  0.00  0.00    -0.283 N 
ATOM     36  H   UNL     1      18.750  22.610  16.013  0.00  0.00    +0.155 HD
ATOM     37  N   UNL     1      19.799  24.886  15.579  0.00  0.00    -0.214 NA
BRANCH   4   3
ATOM      1  C   UNL     1      24.007  27.217  15.966  0.00  0.00    +0.020 A 
ATOM      2  C   UNL     1      22.798  26.867  15.257  0.00  0.00    +0.013 A 
ATOM      3  C   UNL     1      21.587  26.506  15.984  0.00  0.00    +0.019 A 
ATOM     38  C   UNL     1      21.634  26.510  17.439  0.00  0.00    +0.120 A 
ATOM     39  N   UNL     1      22.814  26.850  18.093  0.00  0.00    -0.263 NA
ATOM     40  C   UNL     1      23.985  27.198  17.405  0.00  0.00    +0.111 A 
ENDBRANCH   4   3
ENDBRANCH  10   9
BRANCH  12  13
ATOM     13  N   UNL     1      13.247  22.809  15.592  0.00  0.00    -0.281 N 
ATOM     14  C   UNL     1      12.704  22.269  16.747  0.00  0.00    +0.248 C 
ATOM     30  O   UNL     1      13.141  21.282  17.320  0.00  0.00    -0.270 OA
ATOM     31  H   UNL     1      12.677  23.506  15.113  0.00  0.00    +0.155 HD
BRANCH  14  15
ATOM     15  C   UNL     1      11.493  22.910  17.344  0.00  0.00    +0.037 A 
ATOM     16  C   UNL     1      11.572  24.214  18.008  0.00  0.00    +0.013 A 
ATOM     17  C   UNL     1      10.392  24.802  18.590  0.00  0.00    +0.005 A 
ATOM     18  C   UNL     1       9.121  24.086  18.510  0.00  0.00    -0.033 A 
ATOM     28  C   UNL     1       9.070  22.797  17.840  0.00  0.00    +0.005 A 
ATOM     29  C   UNL     1      10.225  22.217  17.270  0.00  0.00    +0.013 A 
BRANCH  18  19
ATOM     19  C   UNL     1       7.816  24.629  19.121  0.00  0.00    +0.119 C 
BRANCH  19  20
ATOM     20  N   UNL     1       7.737  24.701  20.611  0.00  0.00    -0.302 NA
ATOM     21  C   UNL     1       6.652  23.779  21.174  0.00  0.00    +0.066 C 
ATOM     22  C   UNL     1       6.599  23.850  22.735  0.00  0.00    -0.064 C 
ATOM     23  N   UNL     1       6.359  25.298  23.169  0.00  0.00    +0.379 N 
ATOM     24  C   UNL     1       6.251  25.359  24.634  0.00  0.00    -0.096 C 
ATOM     25  H   UNL     1       5.380  25.620  22.743  0.00  0.00    -0.082 HD
ATOM     26  C   UNL     1       7.432  26.221  22.611  0.00  0.00    -0.064 C 
ATOM     27  C   UNL     1       7.497  26.121  21.061  0.00  0.00    +0.066 C 
ENDBRANCH  19  20
ENDBRANCH  18  19
ENDBRANCH  14  15
ENDBRANCH  12  13
TORSDOF 6
ENDMDL
MODEL 5
REMARK VINA RESULT:      -7.8      9.533     13.977
REMARK  Name = C:\Users\Docking\Desktop\test protocol\1iep_ligandH.pdb
REMARK  8 active torsions:
REMARK  status: ('A' for Active; 'I' for Inactive)
REMARK    1  A    between atoms: _5  and  _11
REMARK    2  A    between atoms: _19  and  _21
REMARK    3  A    between atoms: _22  and  _66
REMARK    4  A    between atoms: _27  and  _30
REMARK    5  A    between atoms: _32  and  _33
REMARK    6  A    between atoms: _38  and  _43
REMARK    7  A    between atoms: _43  and  _46
REMARK    8  A    between atoms: _53  and  _55
REMARK                            x       y       z     vdW  Elec       q    Type
REMARK                         _______ _______ _______ _____ _____    ______ ____
ROOT
ATOM     10  C   UNL     1      19.983  25.211  14.622  0.00  0.00    +0.038 A 
ATOM     11  C   UNL     1      21.375  25.422  14.790  0.00  0.00    +0.047 A 
ATOM     12  C   UNL     1      21.936  26.764  14.810  0.00  0.00    +0.035 A 
ATOM     32  C   UNL     1      21.048  27.869  14.658  0.00  0.00    +0.024 A 
ATOM     33  C   UNL     1      19.631  27.673  14.485  0.00  0.00    +0.007 A 
ATOM     34  C   UNL     1      19.072  26.351  14.463  0.00  0.00    -0.029 A 
ATOM     35  C   UNL     1      17.546  26.199  14.268  0.00  0.00    +0.045 C 
ENDROOT
BRANCH  10   9
ATOM      4  C   UNL     1      18.257  21.355  12.343  0.00  0.00    +0.077 A 
ATOM      5  C   UNL     1      18.299  22.016  11.070  0.00  0.00    +0.048 A 
ATOM      6  C   UNL     1      18.763  23.350  11.046  0.00  0.00    +0.116 A 
ATOM      7  N   UNL     1      19.156  23.967  12.214  0.00  0.00    -0.223 NA
ATOM      8  C   UNL     1      19.102  23.302  13.425  0.00  0.00    +0.220 A 
ATOM      9  N   UNL     1      19.499  23.901  14.611  0.00  0.00    -0.283 N 
ATOM     36  H   UNL     1      19.437  23.379  15.485  0.00  0.00    +0.155 HD
ATOM     37  N   UNL     1      18.660  22.028  13.475  0.00  0.00    -0.214 NA
BRANCH   4   3
ATOM      1  C   UNL     1      17.885  17.475  12.025  0.00  0.00    +0.020 A 
ATOM      2  C   UNL     1      18.369  18.818  11.806  0.00  0.00    +0.013 A 
ATOM      3  C   UNL     1      17.794  19.944  12.531  0.00  0.00    +0.019 A 
ATOM     38  C   UNL     1      16.722  19.675  13.477  0.00  0.00    +0.120 A 
ATOM     39  N   UNL     1      16.275  18.370  13.666  0.00  0.00    -0.263 NA
ATOM     40  C   UNL     1      16.820  17.279  12.973  0.00  0.00    +0.111 A 
ENDBRANCH   4   3
ENDBRANCH  10   9
BRANCH  12  13
ATOM     13  N   UNL     1      23.342  27.040  14.969  0.00  0.00    -0.281 N 
ATOM     14  C   UNL     1      24.070  27.103  16.146  0.00  0.00    +0.248 C 
ATOM     30  O   UNL     1      23.575  27.142  17.263  0.00  0.00    -0.270 OA
ATOM     31  H   UNL     1      23.865  27.209  14.110  0.00  0.00    +0.155 HD
BRANCH  14  15
ATOM     15  C   UNL     1      25.562  27.143  16.072  0.00  0.00    +0.037 A 
ATOM     16  C   UNL     1      26.342  25.931  15.808  0.00  0.00    +0.013 A 
ATOM     17  C   UNL     1      27.781  25.994  15.758  0.00  0.00    +0.005 A 
ATOM     18  C   UNL     1      28.450  27.275  15.971  0.00  0.00    -0.033 A 
ATOM     28  C   UNL     1      27.652  28.462  16.225  0.00  0.00    +0.005 A 
ATOM     29  C   UNL     1      26.241  28.405  16.276  0.00  0.00    +0.013 A 
BRANCH  18  19
ATOM     19  C   UNL     1      29.982  27.431  15.956  0.00  0.00    +0.119 C 
BRANCH  19  20
ATOM     20  N   UNL     1      30.667  27.332  14.633  0.00  0.00    -0.302 NA
ATOM     21  C   UNL     1      29.909  28.084  13.536  0.00  0.00    +0.066 C 
ATOM     22  C   UNL     1      30.651  27.988  12.163  0.00  0.00    -0.064 C 
ATOM     23  N   UNL     1      30.832  26.517  11.786  0.00  0.00    +0.379 N 
ATOM     24  C   UNL     1      31.477  26.424  10.468  0.00  0.00    -0.096 C 
ATOM     25  H   UNL     1      29.817  26.063  11.698  0.00  0.00    -0.082 HD
ATOM     26  C   UNL     1      31.582  25.761  12.873  0.00  0.00    -0.064 C 
ATOM     27  C   UNL     1      30.852  25.887  14.239  0.00  0.00    +0.066 C 
ENDBRANCH  19  20
ENDBRANCH  18  19
ENDBRANCH  14  15
ENDBRANCH  12  13
TORSDOF 6
ENDMDL
