MODEL 1
REMARK VINA RESULT:      -8.5      0.000      0.000
REMARK  Name = C:\Users\Docking\Desktop\test protocol\1iep_ligandH.pdb
REMARK  8 active torsions:
REMARK  status: ('A' for Active; 'I' for Inactive)
REMARK    1  A    between atoms: _5  and  _11
REMARK    2  A    between atoms: _19  and  _21
REMARK    3  A    between atoms: _22  and  _66
REMARK    4  A    between atoms: _27  and  _30
REMARK    5  A    between atoms: _32  and  _33
REMARK    6  A    between atoms: _38  and  _43
REMARK    7  A    between atoms: _43  and  _46
REMARK    8  A    between atoms: _53  and  _55
REMARK                            x       y       z     vdW  Elec       q    Type
REMARK                         _______ _______ _______ _____ _____    ______ ____
ROOT
ATOM     10  C   UNL     1       9.949  26.106  20.224  0.00  0.00    +0.038 A 
ATOM     11  C   UNL     1       9.413  27.337  19.768  0.00  0.00    +0.047 A 
ATOM     12  C   UNL     1       8.356  28.015  20.501  0.00  0.00    +0.035 A 
ATOM     32  C   UNL     1       7.870  27.412  21.698  0.00  0.00    +0.024 A 
ATOM     33  C   UNL     1       8.403  26.161  22.176  0.00  0.00    +0.007 A 
ATOM     34  C   UNL     1       9.444  25.486  21.455  0.00  0.00    -0.029 A 
ATOM     35  C   UNL     1       9.974  24.143  22.010  0.00  0.00    +0.045 C 
ENDROOT
BRANCH  10   9
ATOM      4  C   UNL     1      11.518  22.813  17.104  0.00  0.00    +0.077 A 
ATOM      5  C   UNL     1      10.211  22.237  16.965  0.00  0.00    +0.048 A 
ATOM      6  C   UNL     1       9.164  22.813  17.718  0.00  0.00    +0.116 A 
ATOM      7  N   UNL     1       9.416  23.885  18.547  0.00  0.00    -0.223 NA
ATOM      8  C   UNL     1      10.689  24.415  18.660  0.00  0.00    +0.220 A 
ATOM      9  N   UNL     1      10.963  25.498  19.480  0.00  0.00    -0.283 N 
ATOM     36  H   UNL     1      11.917  25.856  19.542  0.00  0.00    +0.155 HD
ATOM     37  N   UNL     1      11.706  23.882  17.951  0.00  0.00    -0.214 NA
BRANCH   4   3
ATOM      1  C   UNL     1      13.916  21.553  14.283  0.00  0.00    +0.020 A 
ATOM      2  C   UNL     1      12.723  22.030  14.943  0.00  0.00    +0.013 A 
ATOM      3  C   UNL     1      12.726  22.317  16.371  0.00  0.00    +0.019 A 
ATOM     38  C   UNL     1      13.963  22.112  17.109  0.00  0.00    +0.120 A 
ATOM     39  N   UNL     1      15.097  21.651  16.447  0.00  0.00    -0.263 NA
ATOM     40  C   UNL     1      15.105  21.369  15.073  0.00  0.00    +0.111 A 
ENDBRANCH   4   3
ENDBRANCH  10   9
BRANCH  12  13
ATOM     13  N   UNL     1       7.766  29.263  20.082  0.00  0.00    -0.281 N 
ATOM     14  C   UNL     1       7.651  30.437  20.809  0.00  0.00    +0.248 C 
ATOM     30  O   UNL     1       7.847  30.527  22.012  0.00  0.00    -0.270 OA
ATOM     31  H   UNL     1       7.388  29.283  19.135  0.00  0.00    +0.155 HD
BRANCH  14  15
ATOM     15  C   UNL     1       7.245  31.688  20.099  0.00  0.00    +0.037 A 
ATOM     16  C   UNL     1       8.237  32.685  19.690  0.00  0.00    +0.013 A 
ATOM     17  C   UNL     1       7.817  33.892  19.022  0.00  0.00    +0.005 A 
ATOM     18  C   UNL     1       6.396  34.106  18.758  0.00  0.00    -0.033 A 
ATOM     28  C   UNL     1       5.434  33.098  19.171  0.00  0.00    +0.005 A 
ATOM     29  C   UNL     1       5.842  31.915  19.827  0.00  0.00    +0.013 A 
BRANCH  18  19
ATOM     19  C   UNL     1       5.856  35.374  18.070  0.00  0.00    +0.119 C 
BRANCH  19  20
ATOM     20  N   UNL     1       5.791  36.622  18.889  0.00  0.00    -0.302 NA
ATOM     21  C   UNL     1       4.911  36.450  20.129  0.00  0.00    +0.066 C 
ATOM     22  C   UNL     1       4.872  37.757  20.986  0.00  0.00    -0.064 C 
ATOM     23  N   UNL     1       4.371  38.915  20.121  0.00  0.00    +0.379 N 
ATOM     24  C   UNL     1       4.278  40.134  20.939  0.00  0.00    -0.096 C 
ATOM     25  H   UNL     1       3.341  38.659  19.778  0.00  0.00    -0.082 HD
ATOM     26  C   UNL     1       5.239  39.091  18.884  0.00  0.00    -0.064 C 
ATOM     27  C   UNL     1       5.294  37.777  18.056  0.00  0.00    +0.066 C 
ENDBRANCH  19  20
ENDBRANCH  18  19
ENDBRANCH  14  15
ENDBRANCH  12  13
TORSDOF 6
ENDMDL
MODEL 2
REMARK VINA RESULT:      -8.4      3.154     15.020
REMARK  Name = C:\Users\Docking\Desktop\test protocol\1iep_ligandH.pdb
REMARK  8 active torsions:
REMARK  status: ('A' for Active; 'I' for Inactive)
REMARK    1  A    between atoms: _5  and  _11
REMARK    2  A    between atoms: _19  and  _21
REMARK    3  A    between atoms: _22  and  _66
REMARK    4  A    between atoms: _27  and  _30
REMARK    5  A    between atoms: _32  and  _33
REMARK    6  A    between atoms: _38  and  _43
REMARK    7  A    between atoms: _43  and  _46
REMARK    8  A    between atoms: _53  and  _55
REMARK                            x       y       z     vdW  Elec       q    Type
REMARK                         _______ _______ _______ _____ _____    ______ ____
ROOT
ATOM     10  C   UNL     1       5.271  37.870  19.823  0.00  0.00    +0.038 A 
ATOM     11  C   UNL     1       5.860  36.672  20.304  0.00  0.00    +0.047 A 
ATOM     12  C   UNL     1       6.191  35.581  19.400  0.00  0.00    +0.035 A 
ATOM     32  C   UNL     1       5.912  35.746  18.012  0.00  0.00    +0.024 A 
ATOM     33  C   UNL     1       5.314  36.956  17.506  0.00  0.00    +0.007 A 
ATOM     34  C   UNL     1       4.982  38.034  18.394  0.00  0.00    -0.029 A 
ATOM     35  C   UNL     1       4.336  39.307  17.797  0.00  0.00    +0.045 C 
ENDROOT
BRANCH  10   9
ATOM      4  C   UNL     1       3.140  39.488  23.807  0.00  0.00    +0.077 A 
ATOM      5  C   UNL     1       2.547  38.211  24.080  0.00  0.00    +0.048 A 
ATOM      6  C   UNL     1       2.810  37.165  23.167  0.00  0.00    +0.116 A 
ATOM      7  N   UNL     1       3.608  37.392  22.066  0.00  0.00    -0.223 NA
ATOM      8  C   UNL     1       4.162  38.636  21.832  0.00  0.00    +0.220 A 
ATOM      9  N   UNL     1       4.974  38.885  20.735  0.00  0.00    -0.283 N 
ATOM     36  H   UNL     1       5.358  39.818  20.594  0.00  0.00    +0.155 HD
ATOM     37  N   UNL     1       3.925  39.652  22.688  0.00  0.00    -0.214 NA
BRANCH   4   3
ATOM      1  C   UNL     1       2.456  41.791  26.895  0.00  0.00    +0.020 A 
ATOM      2  C   UNL     1       2.620  40.598  26.095  0.00  0.00    +0.013 A 
ATOM      3  C   UNL     1       2.958  40.691  24.681  0.00  0.00    +0.019 A 
ATOM     38  C   UNL     1       3.127  42.015  24.101  0.00  0.00    +0.120 A 
ATOM     39  N   UNL     1       2.961  43.145  24.895  0.00  0.00    -0.263 NA
ATOM     40  C   UNL     1       2.634  43.069  26.257  0.00  0.00    +0.111 A 
ENDBRANCH   4   3
ENDBRANCH  10   9
BRANCH  12  13
ATOM     13  N   UNL     1       6.782  34.339  19.831  0.00  0.00    -0.281 N 
ATOM     14  C   UNL     1       6.196  33.332  20.581  0.00  0.00    +0.248 C 
ATOM     30  O   UNL     1       5.136  33.443  21.179  0.00  0.00    -0.270 OA
ATOM     31  H   UNL     1       7.750  34.182  19.549  0.00  0.00    +0.155 HD
BRANCH  14  15
ATOM     15  C   UNL     1       6.896  32.016  20.694  0.00  0.00    +0.037 A 
ATOM     16  C   UNL     1       6.950  31.292  21.967  0.00  0.00    +0.013 A 
ATOM     17  C   UNL     1       7.646  30.032  22.053  0.00  0.00    +0.005 A 
ATOM     18  C   UNL     1       8.292  29.488  20.861  0.00  0.00    -0.033 A 
ATOM     28  C   UNL     1       8.218  30.225  19.610  0.00  0.00    +0.005 A 
ATOM     29  C   UNL     1       7.538  31.460  19.522  0.00  0.00    +0.013 A 
BRANCH  18  19
ATOM     19  C   UNL     1       9.075  28.161  20.865  0.00  0.00    +0.119 C 
BRANCH  19  20
ATOM     20  N   UNL     1       8.651  27.115  19.888  0.00  0.00    -0.302 NA
ATOM     21  C   UNL     1       7.803  26.023  20.547  0.00  0.00    +0.066 C 
ATOM     22  C   UNL     1       7.350  24.948  19.506  0.00  0.00    -0.064 C 
ATOM     23  N   UNL     1       8.583  24.343  18.832  0.00  0.00    +0.379 N 
ATOM     24  C   UNL     1       8.164  23.292  17.894  0.00  0.00    -0.096 C 
ATOM     25  H   UNL     1       9.201  23.863  19.626  0.00  0.00    -0.082 HD
ATOM     26  C   UNL     1       9.433  25.423  18.176  0.00  0.00    -0.064 C 
ATOM     27  C   UNL     1       9.854  26.501  19.214  0.00  0.00    +0.066 C 
ENDBRANCH  19  20
ENDBRANCH  18  19
ENDBRANCH  14  15
ENDBRANCH  12  13
TORSDOF 6
ENDMDL
MODEL 3
REMARK VINA RESULT:      -8.3      3.786     12.758
REMARK  Name = C:\Users\Docking\Desktop\test protocol\1iep_ligandH.pdb
REMARK  8 active torsions:
REMARK  status: ('A' for Active; 'I' for Inactive)
REMARK    1  A    between atoms: _5  and  _11
REMARK    2  A    between atoms: _19  and  _21
REMARK    3  A    between atoms: _22  and  _66
REMARK    4  A    between atoms: _27  and  _30
REMARK    5  A    between atoms: _32  and  _33
REMARK    6  A    between atoms: _38  and  _43
REMARK    7  A    between atoms: _43  and  _46
REMARK    8  A    between atoms: _53  and  _55
REMARK                            x       y       z     vdW  Elec       q    Type
REMARK                         _______ _______ _______ _____ _____    ______ ____
ROOT
ATOM     10  C   UNL     1       8.782  25.882  19.739  0.00  0.00    +0.038 A 
ATOM     11  C   UNL     1      10.133  25.683  19.355  0.00  0.00    +0.047 A 
ATOM     12  C   UNL     1      10.795  24.405  19.568  0.00  0.00    +0.035 A 
ATOM     32  C   UNL     1      10.049  23.350  20.171  0.00  0.00    +0.024 A 
ATOM     33  C   UNL     1       8.676  23.536  20.568  0.00  0.00    +0.007 A 
ATOM     34  C   UNL     1       8.019  24.795  20.364  0.00  0.00    -0.029 A 
ATOM     35  C   UNL     1       6.547  24.940  20.815  0.00  0.00    +0.045 C 
ENDROOT
BRANCH  10   9
ATOM      4  C   UNL     1       7.535  30.295  21.157  0.00  0.00    +0.077 A 
ATOM      5  C   UNL     1       8.071  30.088  22.472  0.00  0.00    +0.048 A 
ATOM      6  C   UNL     1       8.653  28.830  22.744  0.00  0.00    +0.116 A 
ATOM      7  N   UNL     1       8.691  27.858  21.768  0.00  0.00    -0.223 NA
ATOM      8  C   UNL     1       8.163  28.090  20.511  0.00  0.00    +0.220 A 
ATOM      9  N   UNL     1       8.197  27.130  19.511  0.00  0.00    -0.283 N 
ATOM     36  H   UNL     1       7.790  27.337  18.599  0.00  0.00    +0.155 HD
ATOM     37  N   UNL     1       7.600  29.283  20.226  0.00  0.00    -0.214 NA
BRANCH   4   3
ATOM      1  C   UNL     1       5.468  32.929  19.135  0.00  0.00    +0.020 A 
ATOM      2  C   UNL     1       6.067  31.671  19.517  0.00  0.00    +0.013 A 
ATOM      3  C   UNL     1       6.891  31.572  20.716  0.00  0.00    +0.019 A 
ATOM     38  C   UNL     1       7.088  32.773  21.513  0.00  0.00    +0.120 A 
ATOM     39  N   UNL     1       6.499  33.971  21.119  0.00  0.00    -0.263 NA
ATOM     40  C   UNL     1       5.706  34.079  19.967  0.00  0.00    +0.111 A 
ENDBRANCH   4   3
ENDBRANCH  10   9
BRANCH  12  13
ATOM     13  N   UNL     1      12.166  24.146  19.206  0.00  0.00    -0.281 N 
ATOM     14  C   UNL     1      12.652  23.170  18.351  0.00  0.00    +0.248 C 
ATOM     30  O   UNL     1      11.994  22.230  17.931  0.00  0.00    -0.270 OA
ATOM     31  H   UNL     1      12.864  24.756  19.632  0.00  0.00    +0.155 HD
BRANCH  14  15
ATOM     15  C   UNL     1      14.079  23.241  17.911  0.00  0.00    +0.037 A 
ATOM     16  C   UNL     1      15.114  23.807  18.778  0.00  0.00    +0.013 A 
ATOM     17  C   UNL     1      16.480  23.879  18.322  0.00  0.00    +0.005 A 
ATOM     18  C   UNL     1      16.818  23.382  16.991  0.00  0.00    -0.033 A 
ATOM     28  C   UNL     1      15.771  22.820  16.153  0.00  0.00    +0.005 A 
ATOM     29  C   UNL     1      14.431  22.749  16.596  0.00  0.00    +0.013 A 
BRANCH  18  19
ATOM     19  C   UNL     1      18.244  23.438  16.414  0.00  0.00    +0.119 C 
BRANCH  19  20
ATOM     20  N   UNL     1      18.607  24.637  15.602  0.00  0.00    -0.302 NA
ATOM     21  C   UNL     1      19.398  24.263  14.345  0.00  0.00    +0.066 C 
ATOM     22  C   UNL     1      19.749  25.527  13.495  0.00  0.00    -0.064 C 
ATOM     23  N   UNL     1      20.537  26.515  14.357  0.00  0.00    +0.379 N 
ATOM     24  C   UNL     1      20.919  27.679  13.545  0.00  0.00    -0.096 C 
ATOM     25  H   UNL     1      21.475  26.006  14.682  0.00  0.00    -0.082 HD
ATOM     26  C   UNL     1      19.759  26.890  15.610  0.00  0.00    -0.064 C 
ATOM     27  C   UNL     1      19.390  25.624  16.432  0.00  0.00    +0.066 C 
ENDBRANCH  19  20
ENDBRANCH  18  19
ENDBRANCH  14  15
ENDBRANCH  12  13
TORSDOF 6
ENDMDL
MODEL 4
REMARK VINA RESULT:      -8.2      1.374      1.889
REMARK  Name = C:\Users\Docking\Desktop\test protocol\1iep_ligandH.pdb
REMARK  8 active torsions:
REMARK  status: ('A' for Active; 'I' for Inactive)
REMARK    1  A    between atoms: _5  and  _11
REMARK    2  A    between atoms: _19  and  _21
REMARK    3  A    between atoms: _22  and  _66
REMARK    4  A    between atoms: _27  and  _30
REMARK    5  A    between atoms: _32  and  _33
REMARK    6  A    between atoms: _38  and  _43
REMARK    7  A    between atoms: _43  and  _46
REMARK    8  A    between atoms: _53  and  _55
REMARK                            x       y       z     vdW  Elec       q    Type
REMARK                         _______ _______ _______ _____ _____    ______ ____
ROOT
ATOM     10  C   UNL     1       8.577  25.009  19.617  0.00  0.00    +0.038 A 
ATOM     11  C   UNL     1       8.267  26.388  19.495  0.00  0.00    +0.047 A 
ATOM     12  C   UNL     1       7.561  27.096  20.551  0.00  0.00    +0.035 A 
ATOM     32  C   UNL     1       7.187  26.370  21.719  0.00  0.00    +0.024 A 
ATOM     33  C   UNL     1       7.493  24.968  21.859  0.00  0.00    +0.007 A 
ATOM     34  C   UNL     1       8.188  24.264  20.820  0.00  0.00    -0.029 A 
ATOM     35  C   UNL     1       8.484  22.759  21.022  0.00  0.00    +0.045 C 
ENDROOT
BRANCH  10   9
ATOM      4  C   UNL     1      12.552  23.162  17.660  0.00  0.00    +0.077 A 
ATOM      5  C   UNL     1      13.346  23.507  18.804  0.00  0.00    +0.048 A 
ATOM      6  C   UNL     1      12.696  24.165  19.871  0.00  0.00    +0.116 A 
ATOM      7  N   UNL     1      11.350  24.451  19.791  0.00  0.00    -0.223 NA
ATOM      8  C   UNL     1      10.613  24.107  18.672  0.00  0.00    +0.220 A 
ATOM      9  N   UNL     1       9.257  24.379  18.573  0.00  0.00    -0.283 N 
ATOM     36  H   UNL     1       8.751  24.115  17.728  0.00  0.00    +0.155 HD
ATOM     37  N   UNL     1      11.212  23.479  17.639  0.00  0.00    -0.214 NA
BRANCH   4   3
ATOM      1  C   UNL     1      13.149  21.994  13.975  0.00  0.00    +0.020 A 
ATOM      2  C   UNL     1      12.589  22.697  15.106  0.00  0.00    +0.013 A 
ATOM      3  C   UNL     1      13.094  22.461  16.453  0.00  0.00    +0.019 A 
ATOM     38  C   UNL     1      14.175  21.502  16.622  0.00  0.00    +0.120 A 
ATOM     39  N   UNL     1      14.693  20.839  15.514  0.00  0.00    -0.263 NA
ATOM     40  C   UNL     1      14.214  21.056  14.213  0.00  0.00    +0.111 A 
ENDBRANCH   4   3
ENDBRANCH  10   9
BRANCH  12  13
ATOM     13  N   UNL     1       7.212  28.494  20.479  0.00  0.00    -0.281 N 
ATOM     14  C   UNL     1       8.045  29.567  20.209  0.00  0.00    +0.248 C 
ATOM     30  O   UNL     1       9.265  29.509  20.198  0.00  0.00    -0.270 OA
ATOM     31  H   UNL     1       6.231  28.719  20.649  0.00  0.00    +0.155 HD
BRANCH  14  15
ATOM     15  C   UNL     1       7.434  30.901  19.924  0.00  0.00    +0.037 A 
ATOM     16  C   UNL     1       6.014  31.156  20.177  0.00  0.00    +0.013 A 
ATOM     17  C   UNL     1       5.446  32.447  19.877  0.00  0.00    +0.005 A 
ATOM     18  C   UNL     1       6.301  33.494  19.322  0.00  0.00    -0.033 A 
ATOM     28  C   UNL     1       7.708  33.215  19.086  0.00  0.00    +0.005 A 
ATOM     29  C   UNL     1       8.267  31.951  19.378  0.00  0.00    +0.013 A 
BRANCH  18  19
ATOM     19  C   UNL     1       5.776  34.894  18.952  0.00  0.00    +0.119 C 
BRANCH  19  20
ATOM     20  N   UNL     1       5.445  35.819  20.077  0.00  0.00    -0.302 NA
ATOM     21  C   UNL     1       4.047  35.556  20.643  0.00  0.00    +0.066 C 
ATOM     22  C   UNL     1       3.725  36.517  21.834  0.00  0.00    -0.064 C 
ATOM     23  N   UNL     1       3.855  37.967  21.364  0.00  0.00    +0.379 N 
ATOM     24  C   UNL     1       3.497  38.873  22.465  0.00  0.00    -0.096 C 
ATOM     25  H   UNL     1       3.118  38.124  20.543  0.00  0.00    -0.082 HD
ATOM     26  C   UNL     1       5.242  38.236  20.796  0.00  0.00    -0.064 C 
ATOM     27  C   UNL     1       5.563  37.256  19.634  0.00  0.00    +0.066 C 
ENDBRANCH  19  20
ENDBRANCH  18  19
ENDBRANCH  14  15
ENDBRANCH  12  13
TORSDOF 6
ENDMDL
MODEL 5
REMARK VINA RESULT:      -8.2     10.710     12.687
REMARK  Name = C:\Users\Docking\Desktop\test protocol\1iep_ligandH.pdb
REMARK  8 active torsions:
REMARK  status: ('A' for Active; 'I' for Inactive)
REMARK    1  A    between atoms: _5  and  _11
REMARK    2  A    between atoms: _19  and  _21
REMARK    3  A    between atoms: _22  and  _66
REMARK    4  A    between atoms: _27  and  _30
REMARK    5  A    between atoms: _32  and  _33
REMARK    6  A    between atoms: _38  and  _43
REMARK    7  A    between atoms: _43  and  _46
REMARK    8  A    between atoms: _53  and  _55
REMARK                            x       y       z     vdW  Elec       q    Type
REMARK                         _______ _______ _______ _____ _____    ______ ____
ROOT
ATOM     10  C   UNL     1      13.345  21.822  16.275  0.00  0.00    +0.038 A 
ATOM     11  C   UNL     1      12.318  21.801  15.297  0.00  0.00    +0.047 A 
ATOM     12  C   UNL     1      11.348  20.718  15.248  0.00  0.00    +0.035 A 
ATOM     32  C   UNL     1      11.453  19.673  16.212  0.00  0.00    +0.024 A 
ATOM     33  C   UNL     1      12.491  19.678  17.212  0.00  0.00    +0.007 A 
ATOM     34  C   UNL     1      13.452  20.742  17.264  0.00  0.00    -0.029 A 
ATOM     35  C   UNL     1      14.548  20.692  18.354  0.00  0.00    +0.045 C 
ENDROOT
BRANCH  10   9
ATOM      4  C   UNL     1      17.385  23.945  14.788  0.00  0.00    +0.077 A 
ATOM      5  C   UNL     1      17.737  22.829  13.959  0.00  0.00    +0.048 A 
ATOM      6  C   UNL     1      16.855  21.725  13.949  0.00  0.00    +0.116 A 
ATOM      7  N   UNL     1      15.709  21.747  14.714  0.00  0.00    -0.223 NA
ATOM      8  C   UNL     1      15.401  22.839  15.504  0.00  0.00    +0.220 A 
ATOM      9  N   UNL     1      14.250  22.886  16.276  0.00  0.00    -0.283 N 
ATOM     36  H   UNL     1      14.062  23.707  16.851  0.00  0.00    +0.155 HD
ATOM     37  N   UNL     1      16.227  23.905  15.533  0.00  0.00    -0.214 NA
BRANCH   4   3
ATOM      1  C   UNL     1      19.107  27.370  14.007  0.00  0.00    +0.020 A 
ATOM      2  C   UNL     1      18.292  26.187  13.845  0.00  0.00    +0.013 A 
ATOM      3  C   UNL     1      18.213  25.187  14.903  0.00  0.00    +0.019 A 
ATOM     38  C   UNL     1      18.976  25.416  16.121  0.00  0.00    +0.120 A 
ATOM     39  N   UNL     1      19.753  26.563  16.247  0.00  0.00    -0.263 NA
ATOM     40  C   UNL     1      19.838  27.532  15.236  0.00  0.00    +0.111 A 
ENDBRANCH   4   3
ENDBRANCH  10   9
BRANCH  12  13
ATOM     13  N   UNL     1      10.289  20.639  14.273  0.00  0.00    -0.281 N 
ATOM     14  C   UNL     1       8.998  21.132  14.376  0.00  0.00    +0.248 C 
ATOM     30  O   UNL     1       8.492  21.531  15.414  0.00  0.00    -0.270 OA
ATOM     31  H   UNL     1      10.518  20.161  13.401  0.00  0.00    +0.155 HD
BRANCH  14  15
ATOM     15  C   UNL     1       8.141  21.174  13.152  0.00  0.00    +0.037 A 
ATOM     16  C   UNL     1       8.031  20.016  12.261  0.00  0.00    +0.013 A 
ATOM     17  C   UNL     1       7.211  20.089  11.078  0.00  0.00    +0.005 A 
ATOM     18  C   UNL     1       6.493  21.326  10.780  0.00  0.00    -0.033 A 
ATOM     28  C   UNL     1       6.615  22.458  11.684  0.00  0.00    +0.005 A 
ATOM     29  C   UNL     1       7.419  22.390  12.844  0.00  0.00    +0.013 A 
BRANCH  18  19
ATOM     19  C   UNL     1       5.612  21.500   9.529  0.00  0.00    +0.119 C 
BRANCH  19  20
ATOM     20  N   UNL     1       6.305  21.798   8.240  0.00  0.00    -0.302 NA
ATOM     21  C   UNL     1       7.023  20.568   7.677  0.00  0.00    +0.066 C 
ATOM     22  C   UNL     1       7.725  20.892   6.318  0.00  0.00    -0.064 C 
ATOM     23  N   UNL     1       8.706  22.048   6.516  0.00  0.00    +0.379 N 
ATOM     24  C   UNL     1       9.409  22.317   5.253  0.00  0.00    -0.096 C 
ATOM     25  H   UNL     1       9.466  21.723   7.264  0.00  0.00    -0.082 HD
ATOM     26  C   UNL     1       8.000  23.274   7.078  0.00  0.00    -0.064 C 
ATOM     27  C   UNL     1       7.282  22.935   8.414  0.00  0.00    +0.066 C 
ENDBRANCH  19  20
ENDBRANCH  18  19
ENDBRANCH  14  15
ENDBRANCH  12  13
TORSDOF 6
ENDMDL
