MODEL 1
REMARK VINA RESULT:      -8.7      0.000      0.000
REMARK  Name = C:\Users\Docking\Desktop\test protocol\1iep_ligandH.pdb
REMARK  8 active torsions:
REMARK  status: ('A' for Active; 'I' for Inactive)
REMARK    1  A    between atoms: _5  and  _11
REMARK    2  A    between atoms: _19  and  _21
REMARK    3  A    between atoms: _22  and  _66
REMARK    4  A    between atoms: _27  and  _30
REMARK    5  A    between atoms: _32  and  _33
REMARK    6  A    between atoms: _38  and  _43
REMARK    7  A    between atoms: _43  and  _46
REMARK    8  A    between atoms: _53  and  _55
REMARK                            x       y       z     vdW  Elec       q    Type
REMARK                         _______ _______ _______ _____ _____    ______ ____
ROOT
ATOM     10  C   UNL     1       4.146   4.652  18.300  0.00  0.00    +0.038 A 
ATOM     11  C   UNL     1       5.000   5.258  19.256  0.00  0.00    +0.047 A 
ATOM     12  C   UNL     1       4.517   6.312  20.136  0.00  0.00    +0.035 A 
ATOM     32  C   UNL     1       3.158   6.722  20.015  0.00  0.00    +0.024 A 
ATOM     33  C   UNL     1       2.276   6.118  19.047  0.00  0.00    +0.007 A 
ATOM     34  C   UNL     1       2.748   5.080  18.176  0.00  0.00    -0.029 A 
ATOM     35  C   UNL     1       1.760   4.472  17.152  0.00  0.00    +0.045 C 
ENDROOT
BRANCH  10   9
ATOM      4  C   UNL     1       5.711   3.028  14.063  0.00  0.00    +0.077 A 
ATOM      5  C   UNL     1       5.453   4.284  13.419  0.00  0.00    +0.048 A 
ATOM      6  C   UNL     1       4.911   5.320  14.212  0.00  0.00    +0.116 A 
ATOM      7  N   UNL     1       4.650   5.105  15.548  0.00  0.00    -0.223 NA
ATOM      8  C   UNL     1       4.909   3.881  16.137  0.00  0.00    +0.220 A 
ATOM      9  N   UNL     1       4.662   3.645  17.481  0.00  0.00    -0.283 N 
ATOM     36  H   UNL     1       4.860   2.726  17.876  0.00  0.00    +0.155 HD
ATOM     37  N   UNL     1       5.426   2.875  15.401  0.00  0.00    -0.214 NA
BRANCH   4   3
ATOM      1  C   UNL     1       7.978   0.736  11.847  0.00  0.00    +0.020 A 
ATOM      2  C   UNL     1       7.463   1.916  12.504  0.00  0.00    +0.013 A 
ATOM      3  C   UNL     1       6.286   1.838  13.359  0.00  0.00    +0.019 A 
ATOM     38  C   UNL     1       5.648   0.541  13.532  0.00  0.00    +0.120 A 
ATOM     39  N   UNL     1       6.166  -0.577  12.886  0.00  0.00    -0.263 NA
ATOM     40  C   UNL     1       7.297  -0.514  12.059  0.00  0.00    +0.111 A 
ENDBRANCH   4   3
ENDBRANCH  10   9
BRANCH  12  13
ATOM     13  N   UNL     1       5.340   6.969  21.121  0.00  0.00    -0.281 N 
ATOM     14  C   UNL     1       5.189   6.963  22.498  0.00  0.00    +0.248 C 
ATOM     30  O   UNL     1       4.193   6.563  23.082  0.00  0.00    -0.270 OA
ATOM     31  H   UNL     1       6.129   7.504  20.759  0.00  0.00    +0.155 HD
BRANCH  14  15
ATOM     15  C   UNL     1       6.299   7.490  23.348  0.00  0.00    +0.037 A 
ATOM     16  C   UNL     1       6.824   6.717  24.477  0.00  0.00    +0.013 A 
ATOM     17  C   UNL     1       7.884   7.256  25.292  0.00  0.00    +0.005 A 
ATOM     18  C   UNL     1       8.427   8.576  24.979  0.00  0.00    -0.033 A 
ATOM     28  C   UNL     1       7.892   9.318  23.850  0.00  0.00    +0.005 A 
ATOM     29  C   UNL     1       6.853   8.793  23.049  0.00  0.00    +0.013 A 
BRANCH  18  19
ATOM     19  C   UNL     1       9.545   9.238  25.807  0.00  0.00    +0.119 C 
BRANCH  19  20
ATOM     20  N   UNL     1       9.143   9.928  27.069  0.00  0.00    -0.302 NA
ATOM     21  C   UNL     1       9.171   8.984  28.274  0.00  0.00    +0.066 C 
ATOM     22  C   UNL     1       8.770   9.728  29.589  0.00  0.00    -0.064 C 
ATOM     23  N   UNL     1       7.382  10.347  29.419  0.00  0.00    +0.379 N 
ATOM     24  C   UNL     1       6.977  10.997  30.674  0.00  0.00    -0.096 C 
ATOM     25  H   UNL     1       6.664   9.517  29.221  0.00  0.00    -0.082 HD
ATOM     26  C   UNL     1       7.344  11.285  28.221  0.00  0.00    -0.064 C 
ATOM     27  C   UNL     1       7.772  10.543  26.924  0.00  0.00    +0.066 C 
ENDBRANCH  19  20
ENDBRANCH  18  19
ENDBRANCH  14  15
ENDBRANCH  12  13
TORSDOF 6
ENDMDL
MODEL 2
REMARK VINA RESULT:      -8.4     12.675     18.277
REMARK  Name = C:\Users\Docking\Desktop\test protocol\1iep_ligandH.pdb
REMARK  8 active torsions:
REMARK  status: ('A' for Active; 'I' for Inactive)
REMARK    1  A    between atoms: _5  and  _11
REMARK    2  A    between atoms: _19  and  _21
REMARK    3  A    between atoms: _22  and  _66
REMARK    4  A    between atoms: _27  and  _30
REMARK    5  A    between atoms: _32  and  _33
REMARK    6  A    between atoms: _38  and  _43
REMARK    7  A    between atoms: _43  and  _46
REMARK    8  A    between atoms: _53  and  _55
REMARK                            x       y       z     vdW  Elec       q    Type
REMARK                         _______ _______ _______ _____ _____    ______ ____
ROOT
ATOM     10  C   UNL     1       8.851  -5.048  15.081  0.00  0.00    +0.038 A 
ATOM     11  C   UNL     1       9.015  -6.427  15.367  0.00  0.00    +0.047 A 
ATOM     12  C   UNL     1       9.571  -6.871  16.636  0.00  0.00    +0.035 A 
ATOM     32  C   UNL     1       9.945  -5.883  17.592  0.00  0.00    +0.024 A 
ATOM     33  C   UNL     1       9.786  -4.476  17.317  0.00  0.00    +0.007 A 
ATOM     34  C   UNL     1       9.241  -4.032  16.066  0.00  0.00    -0.029 A 
ATOM     35  C   UNL     1       9.098  -2.512  15.823  0.00  0.00    +0.045 C 
ENDROOT
BRANCH  10   9
ATOM      4  C   UNL     1       9.305  -3.574  10.536  0.00  0.00    +0.077 A 
ATOM      5  C   UNL     1      10.734  -3.510  10.637  0.00  0.00    +0.048 A 
ATOM      6  C   UNL     1      11.313  -3.857  11.878  0.00  0.00    +0.116 A 
ATOM      7  N   UNL     1      10.512  -4.239  12.932  0.00  0.00    -0.223 NA
ATOM      8  C   UNL     1       9.136  -4.289  12.802  0.00  0.00    +0.220 A 
ATOM      9  N   UNL     1       8.312  -4.677  13.846  0.00  0.00    -0.283 N 
ATOM     36  H   UNL     1       7.301  -4.694  13.712  0.00  0.00    +0.155 HD
ATOM     37  N   UNL     1       8.559  -3.960  11.627  0.00  0.00    -0.214 NA
BRANCH   4   3
ATOM      1  C   UNL     1       6.976  -1.790   7.947  0.00  0.00    +0.020 A 
ATOM      2  C   UNL     1       7.687  -2.067   9.174  0.00  0.00    +0.013 A 
ATOM      3  C   UNL     1       8.546  -3.240   9.289  0.00  0.00    +0.019 A 
ATOM     38  C   UNL     1       8.664  -4.118   8.135  0.00  0.00    +0.120 A 
ATOM     39  N   UNL     1       7.966  -3.826   6.967  0.00  0.00    -0.263 NA
ATOM     40  C   UNL     1       7.136  -2.702   6.845  0.00  0.00    +0.111 A 
ENDBRANCH   4   3
ENDBRANCH  10   9
BRANCH  12  13
ATOM     13  N   UNL     1       9.769  -8.257  16.979  0.00  0.00    -0.281 N 
ATOM     14  C   UNL     1       8.808  -9.244  17.125  0.00  0.00    +0.248 C 
ATOM     30  O   UNL     1       7.606  -9.034  17.192  0.00  0.00    -0.270 OA
ATOM     31  H   UNL     1      10.735  -8.546  17.133  0.00  0.00    +0.155 HD
BRANCH  14  15
ATOM     15  C   UNL     1       9.247 -10.670  17.226  0.00  0.00    +0.037 A 
ATOM     16  C   UNL     1       8.514 -11.740  16.546  0.00  0.00    +0.013 A 
ATOM     17  C   UNL     1       8.948 -13.109  16.674  0.00  0.00    +0.005 A 
ATOM     18  C   UNL     1      10.124 -13.414  17.485  0.00  0.00    -0.033 A 
ATOM     28  C   UNL     1      10.836 -12.332  18.145  0.00  0.00    +0.005 A 
ATOM     29  C   UNL     1      10.412 -10.989  18.023  0.00  0.00    +0.013 A 
BRANCH  18  19
ATOM     19  C   UNL     1      10.647 -14.848  17.695  0.00  0.00    +0.119 C 
BRANCH  19  20
ATOM     20  N   UNL     1      12.096 -15.093  17.429  0.00  0.00    -0.302 NA
ATOM     21  C   UNL     1      12.310 -16.056  16.258  0.00  0.00    +0.066 C 
ATOM     22  C   UNL     1      13.832 -16.283  15.980  0.00  0.00    -0.064 C 
ATOM     23  N   UNL     1      14.505 -16.813  17.247  0.00  0.00    +0.379 N 
ATOM     24  C   UNL     1      15.924 -17.083  16.972  0.00  0.00    -0.096 C 
ATOM     25  H   UNL     1      14.021 -17.783  17.507  0.00  0.00    -0.082 HD
ATOM     26  C   UNL     1      14.295 -15.863  18.417  0.00  0.00    -0.064 C 
ATOM     27  C   UNL     1      12.780 -15.621  18.666  0.00  0.00    +0.066 C 
ENDBRANCH  19  20
ENDBRANCH  18  19
ENDBRANCH  14  15
ENDBRANCH  12  13
TORSDOF 6
ENDMDL
MODEL 3
REMARK VINA RESULT:      -8.4      2.196      3.278
REMARK  Name = C:\Users\Docking\Desktop\test protocol\1iep_ligandH.pdb
REMARK  8 active torsions:
REMARK  status: ('A' for Active; 'I' for Inactive)
REMARK    1  A    between atoms: _5  and  _11
REMARK    2  A    between atoms: _19  and  _21
REMARK    3  A    between atoms: _22  and  _66
REMARK    4  A    between atoms: _27  and  _30
REMARK    5  A    between atoms: _32  and  _33
REMARK    6  A    between atoms: _38  and  _43
REMARK    7  A    between atoms: _43  and  _46
REMARK    8  A    between atoms: _53  and  _55
REMARK                            x       y       z     vdW  Elec       q    Type
REMARK                         _______ _______ _______ _____ _____    ______ ____
ROOT
ATOM     10  C   UNL     1       3.393   5.141  19.910  0.00  0.00    +0.038 A 
ATOM     11  C   UNL     1       4.336   5.626  20.852  0.00  0.00    +0.047 A 
ATOM     12  C   UNL     1       3.910   6.174  22.131  0.00  0.00    +0.035 A 
ATOM     32  C   UNL     1       2.515   6.209  22.419  0.00  0.00    +0.024 A 
ATOM     33  C   UNL     1       1.542   5.722  21.473  0.00  0.00    +0.007 A 
ATOM     34  C   UNL     1       1.956   5.183  20.209  0.00  0.00    -0.029 A 
ATOM     35  C   UNL     1       0.869   4.681  19.231  0.00  0.00    +0.045 C 
ENDROOT
BRANCH  10   9
ATOM      4  C   UNL     1       4.713   5.650  15.324  0.00  0.00    +0.077 A 
ATOM      5  C   UNL     1       4.427   7.055  15.336  0.00  0.00    +0.048 A 
ATOM      6  C   UNL     1       3.935   7.607  16.540  0.00  0.00    +0.116 A 
ATOM      7  N   UNL     1       3.747   6.804  17.644  0.00  0.00    -0.223 NA
ATOM      8  C   UNL     1       4.031   5.452  17.598  0.00  0.00    +0.220 A 
ATOM      9  N   UNL     1       3.857   4.626  18.698  0.00  0.00    -0.283 N 
ATOM     36  H   UNL     1       4.071   3.632  18.622  0.00  0.00    +0.155 HD
ATOM     37  N   UNL     1       4.501   4.900  16.459  0.00  0.00    -0.214 NA
BRANCH   4   3
ATOM      1  C   UNL     1       5.867   2.813  12.890  0.00  0.00    +0.020 A 
ATOM      2  C   UNL     1       5.350   3.468  14.070  0.00  0.00    +0.013 A 
ATOM      3  C   UNL     1       5.241   4.920  14.128  0.00  0.00    +0.019 A 
ATOM     38  C   UNL     1       5.666   5.687  12.966  0.00  0.00    +0.120 A 
ATOM     39  N   UNL     1       6.161   5.028  11.844  0.00  0.00    -0.263 NA
ATOM     40  C   UNL     1       6.272   3.632  11.778  0.00  0.00    +0.111 A 
ENDBRANCH   4   3
ENDBRANCH  10   9
BRANCH  12  13
ATOM     13  N   UNL     1       4.821   6.688  23.122  0.00  0.00    -0.281 N 
ATOM     14  C   UNL     1       5.998   7.390  22.916  0.00  0.00    +0.248 C 
ATOM     30  O   UNL     1       6.557   7.498  21.835  0.00  0.00    -0.270 OA
ATOM     31  H   UNL     1       4.569   6.513  24.095  0.00  0.00    +0.155 HD
BRANCH  14  15
ATOM     15  C   UNL     1       6.655   8.057  24.081  0.00  0.00    +0.037 A 
ATOM     16  C   UNL     1       6.329   9.437  24.449  0.00  0.00    +0.013 A 
ATOM     17  C   UNL     1       6.990  10.063  25.567  0.00  0.00    +0.005 A 
ATOM     18  C   UNL     1       7.983   9.306  26.326  0.00  0.00    -0.033 A 
ATOM     28  C   UNL     1       8.283   7.937  25.942  0.00  0.00    +0.005 A 
ATOM     29  C   UNL     1       7.638   7.321  24.846  0.00  0.00    +0.013 A 
BRANCH  18  19
ATOM     19  C   UNL     1       8.753   9.901  27.520  0.00  0.00    +0.119 C 
BRANCH  19  20
ATOM     20  N   UNL     1      10.197   9.543  27.650  0.00  0.00    -0.302 NA
ATOM     21  C   UNL     1      10.611   9.342  29.110  0.00  0.00    +0.066 C 
ATOM     22  C   UNL     1      12.119   8.946  29.226  0.00  0.00    -0.064 C 
ATOM     23  N   UNL     1      12.978  10.023  28.563  0.00  0.00    +0.379 N 
ATOM     24  C   UNL     1      14.400   9.683  28.720  0.00  0.00    -0.096 C 
ATOM     25  H   UNL     1      12.797  10.981  29.105  0.00  0.00    -0.082 HD
ATOM     26  C   UNL     1      12.572  10.231  27.111  0.00  0.00    -0.064 C 
ATOM     27  C   UNL     1      11.065  10.596  27.005  0.00  0.00    +0.066 C 
ENDBRANCH  19  20
ENDBRANCH  18  19
ENDBRANCH  14  15
ENDBRANCH  12  13
TORSDOF 6
ENDMDL
MODEL 4
REMARK VINA RESULT:      -8.3      7.953     13.388
REMARK  Name = C:\Users\Docking\Desktop\test protocol\1iep_ligandH.pdb
REMARK  8 active torsions:
REMARK  status: ('A' for Active; 'I' for Inactive)
REMARK    1  A    between atoms: _5  and  _11
REMARK    2  A    between atoms: _19  and  _21
REMARK    3  A    between atoms: _22  and  _66
REMARK    4  A    between atoms: _27  and  _30
REMARK    5  A    between atoms: _32  and  _33
REMARK    6  A    between atoms: _38  and  _43
REMARK    7  A    between atoms: _43  and  _46
REMARK    8  A    between atoms: _53  and  _55
REMARK                            x       y       z     vdW  Elec       q    Type
REMARK                         _______ _______ _______ _____ _____    ______ ____
ROOT
ATOM     10  C   UNL     1       7.446   8.506  26.296  0.00  0.00    +0.038 A 
ATOM     11  C   UNL     1       6.271   9.294  26.204  0.00  0.00    +0.047 A 
ATOM     12  C   UNL     1       5.469   9.312  24.990  0.00  0.00    +0.035 A 
ATOM     32  C   UNL     1       5.893   8.512  23.889  0.00  0.00    +0.024 A 
ATOM     33  C   UNL     1       7.086   7.705  23.964  0.00  0.00    +0.007 A 
ATOM     34  C   UNL     1       7.882   7.686  25.159  0.00  0.00    -0.029 A 
ATOM     35  C   UNL     1       9.154   6.807  25.181  0.00  0.00    +0.045 C 
ENDROOT
BRANCH  10   9
ATOM      4  C   UNL     1      11.174   9.956  28.948  0.00  0.00    +0.077 A 
ATOM      5  C   UNL     1      11.726  10.716  27.863  0.00  0.00    +0.048 A 
ATOM      6  C   UNL     1      11.024  10.701  26.637  0.00  0.00    +0.116 A 
ATOM      7  N   UNL     1       9.857   9.978  26.517  0.00  0.00    -0.223 NA
ATOM      8  C   UNL     1       9.353   9.254  27.582  0.00  0.00    +0.220 A 
ATOM      9  N   UNL     1       8.177   8.526  27.485  0.00  0.00    -0.283 N 
ATOM     36  H   UNL     1       7.842   8.000  28.292  0.00  0.00    +0.155 HD
ATOM     37  N   UNL     1      10.006   9.251  28.763  0.00  0.00    -0.214 NA
BRANCH   4   3
ATOM      1  C   UNL     1      13.791   9.857  31.854  0.00  0.00    +0.020 A 
ATOM      2  C   UNL     1      13.239   9.940  30.521  0.00  0.00    +0.013 A 
ATOM      3  C   UNL     1      11.799   9.875  30.306  0.00  0.00    +0.019 A 
ATOM     38  C   UNL     1      10.938   9.726  31.470  0.00  0.00    +0.120 A 
ATOM     39  N   UNL     1      11.498   9.647  32.741  0.00  0.00    -0.263 NA
ATOM     40  C   UNL     1      12.882   9.707  32.960  0.00  0.00    +0.111 A 
ENDBRANCH   4   3
ENDBRANCH  10   9
BRANCH  12  13
ATOM     13  N   UNL     1       4.271  10.099  24.835  0.00  0.00    -0.281 N 
ATOM     14  C   UNL     1       3.367  10.475  25.815  0.00  0.00    +0.248 C 
ATOM     30  O   UNL     1       3.338  10.008  26.944  0.00  0.00    -0.270 OA
ATOM     31  H   UNL     1       4.065  10.418  23.889  0.00  0.00    +0.155 HD
BRANCH  14  15
ATOM     15  C   UNL     1       2.337  11.507  25.489  0.00  0.00    +0.037 A 
ATOM     16  C   UNL     1       2.670  12.934  25.471  0.00  0.00    +0.013 A 
ATOM     17  C   UNL     1       1.653  13.911  25.170  0.00  0.00    +0.005 A 
ATOM     18  C   UNL     1       0.293  13.463  24.883  0.00  0.00    -0.033 A 
ATOM     28  C   UNL     1      -0.009  12.041  24.903  0.00  0.00    +0.005 A 
ATOM     29  C   UNL     1       0.984  11.081  25.199  0.00  0.00    +0.013 A 
BRANCH  18  19
ATOM     19  C   UNL     1      -0.860  14.435  24.573  0.00  0.00    +0.119 C 
BRANCH  19  20
ATOM     20  N   UNL     1      -1.307  14.535  23.151  0.00  0.00    -0.302 NA
ATOM     21  C   UNL     1      -2.313  13.439  22.787  0.00  0.00    +0.066 C 
ATOM     22  C   UNL     1      -2.787  13.571  21.304  0.00  0.00    -0.064 C 
ATOM     23  N   UNL     1      -1.571  13.521  20.376  0.00  0.00    +0.379 N 
ATOM     24  C   UNL     1      -2.018  13.587  18.977  0.00  0.00    -0.096 C 
ATOM     25  H   UNL     1      -1.073  12.535  20.526  0.00  0.00    -0.082 HD
ATOM     26  C   UNL     1      -0.565  14.606  20.733  0.00  0.00    -0.064 C 
ATOM     27  C   UNL     1      -0.123  14.483  22.218  0.00  0.00    +0.066 C 
ENDBRANCH  19  20
ENDBRANCH  18  19
ENDBRANCH  14  15
ENDBRANCH  12  13
TORSDOF 6
ENDMDL
MODEL 5
REMARK VINA RESULT:      -8.3      6.903     10.541
REMARK  Name = C:\Users\Docking\Desktop\test protocol\1iep_ligandH.pdb
REMARK  8 active torsions:
REMARK  status: ('A' for Active; 'I' for Inactive)
REMARK    1  A    between atoms: _5  and  _11
REMARK    2  A    between atoms: _19  and  _21
REMARK    3  A    between atoms: _22  and  _66
REMARK    4  A    between atoms: _27  and  _30
REMARK    5  A    between atoms: _32  and  _33
REMARK    6  A    between atoms: _38  and  _43
REMARK    7  A    between atoms: _43  and  _46
REMARK    8  A    between atoms: _53  and  _55
REMARK                            x       y       z     vdW  Elec       q    Type
REMARK                         _______ _______ _______ _____ _____    ______ ____
ROOT
ATOM     10  C   UNL     1       7.473  -1.866  13.221  0.00  0.00    +0.038 A 
ATOM     11  C   UNL     1       7.033  -0.690  13.880  0.00  0.00    +0.047 A 
ATOM     12  C   UNL     1       7.194   0.620  13.268  0.00  0.00    +0.035 A 
ATOM     32  C   UNL     1       7.804   0.695  11.982  0.00  0.00    +0.024 A 
ATOM     33  C   UNL     1       8.259  -0.490  11.299  0.00  0.00    +0.007 A 
ATOM     34  C   UNL     1       8.105  -1.785  11.898  0.00  0.00    -0.029 A 
ATOM     35  C   UNL     1       8.616  -3.021  11.122  0.00  0.00    +0.045 C 
ENDROOT
BRANCH  10   9
ATOM      4  C   UNL     1       8.824  -5.261  16.333  0.00  0.00    +0.077 A 
ATOM      5  C   UNL     1      10.001  -4.532  16.709  0.00  0.00    +0.048 A 
ATOM      6  C   UNL     1      10.226  -3.290  16.073  0.00  0.00    +0.116 A 
ATOM      7  N   UNL     1       9.333  -2.823  15.132  0.00  0.00    -0.223 NA
ATOM      8  C   UNL     1       8.209  -3.552  14.791  0.00  0.00    +0.220 A 
ATOM      9  N   UNL     1       7.294  -3.098  13.854  0.00  0.00    -0.283 N 
ATOM     36  H   UNL     1       6.481  -3.669  13.625  0.00  0.00    +0.155 HD
ATOM     37  N   UNL     1       7.973  -4.741  15.383  0.00  0.00    -0.214 NA
BRANCH   4   3
ATOM      1  C   UNL     1       8.865  -9.035  17.363  0.00  0.00    +0.020 A 
ATOM      2  C   UNL     1       9.274  -7.779  16.778  0.00  0.00    +0.013 A 
ATOM      3  C   UNL     1       8.447  -6.587  16.918  0.00  0.00    +0.019 A 
ATOM     38  C   UNL     1       7.203  -6.700  17.663  0.00  0.00    +0.120 A 
ATOM     39  N   UNL     1       6.833  -7.923  18.214  0.00  0.00    -0.263 NA
ATOM     40  C   UNL     1       7.620  -9.077  18.084  0.00  0.00    +0.111 A 
ENDBRANCH   4   3
ENDBRANCH  10   9
BRANCH  12  13
ATOM     13  N   UNL     1       6.774   1.850  13.893  0.00  0.00    -0.281 N 
ATOM     14  C   UNL     1       5.552   2.492  13.774  0.00  0.00    +0.248 C 
ATOM     30  O   UNL     1       4.704   2.215  12.938  0.00  0.00    -0.270 OA
ATOM     31  H   UNL     1       7.461   2.303  14.496  0.00  0.00    +0.155 HD
BRANCH  14  15
ATOM     15  C   UNL     1       5.231   3.613  14.709  0.00  0.00    +0.037 A 
ATOM     16  C   UNL     1       5.058   3.379  16.145  0.00  0.00    +0.013 A 
ATOM     17  C   UNL     1       4.731   4.475  17.022  0.00  0.00    +0.005 A 
ATOM     18  C   UNL     1       4.578   5.817  16.465  0.00  0.00    -0.033 A 
ATOM     28  C   UNL     1       4.760   6.022  15.038  0.00  0.00    +0.005 A 
ATOM     29  C   UNL     1       5.079   4.950  14.175  0.00  0.00    +0.013 A 
BRANCH  18  19
ATOM     19  C   UNL     1       4.210   7.042  17.323  0.00  0.00    +0.119 C 
BRANCH  19  20
ATOM     20  N   UNL     1       2.806   7.543  17.233  0.00  0.00    -0.302 NA
ATOM     21  C   UNL     1       2.701   8.802  16.366  0.00  0.00    +0.066 C 
ATOM     22  C   UNL     1       1.223   9.300  16.264  0.00  0.00    -0.064 C 
ATOM     23  N   UNL     1       0.677   9.562  17.669  0.00  0.00    +0.379 N 
ATOM     24  C   UNL     1      -0.693  10.086  17.573  0.00  0.00    -0.096 C 
ATOM     25  H   UNL     1       1.310  10.353  18.135  0.00  0.00    -0.082 HD
ATOM     26  C   UNL     1       0.781   8.317  18.538  0.00  0.00    -0.064 C 
ATOM     27  C   UNL     1       2.249   7.813  18.609  0.00  0.00    +0.066 C 
ENDBRANCH  19  20
ENDBRANCH  18  19
ENDBRANCH  14  15
ENDBRANCH  12  13
TORSDOF 6
ENDMDL
