MODEL 1
REMARK VINA RESULT:      -8.3      0.000      0.000
REMARK  Name = C:\Users\Docking\Desktop\test protocol\1iep_ligandH.pdb
REMARK  8 active torsions:
REMARK  status: ('A' for Active; 'I' for Inactive)
REMARK    1  A    between atoms: _5  and  _11
REMARK    2  A    between atoms: _19  and  _21
REMARK    3  A    between atoms: _22  and  _66
REMARK    4  A    between atoms: _27  and  _30
REMARK    5  A    between atoms: _32  and  _33
REMARK    6  A    between atoms: _38  and  _43
REMARK    7  A    between atoms: _43  and  _46
REMARK    8  A    between atoms: _53  and  _55
REMARK                            x       y       z     vdW  Elec       q    Type
REMARK                         _______ _______ _______ _____ _____    ______ ____
ROOT
ATOM     10  C   UNL     1      15.850  19.395  29.399  0.00  0.00    +0.038 A 
ATOM     11  C   UNL     1      16.656  19.888  28.341  0.00  0.00    +0.047 A 
ATOM     12  C   UNL     1      16.116  20.066  27.003  0.00  0.00    +0.035 A 
ATOM     32  C   UNL     1      14.748  19.735  26.777  0.00  0.00    +0.024 A 
ATOM     33  C   UNL     1      13.914  19.232  27.841  0.00  0.00    +0.007 A 
ATOM     34  C   UNL     1      14.442  19.052  29.162  0.00  0.00    -0.029 A 
ATOM     35  C   UNL     1      13.504  18.504  30.263  0.00  0.00    +0.045 C 
ENDROOT
BRANCH  10   9
ATOM      4  C   UNL     1      18.977  17.355  32.415  0.00  0.00    +0.077 A 
ATOM      5  C   UNL     1      19.499  16.499  31.389  0.00  0.00    +0.048 A 
ATOM      6  C   UNL     1      18.931  16.610  30.100  0.00  0.00    +0.116 A 
ATOM      7  N   UNL     1      17.916  17.514  29.866  0.00  0.00    -0.223 NA
ATOM      8  C   UNL     1      17.435  18.323  30.879  0.00  0.00    +0.220 A 
ATOM      9  N   UNL     1      16.421  19.244  30.665  0.00  0.00    -0.283 N 
ATOM     36  H   UNL     1      16.088  19.817  31.440  0.00  0.00    +0.155 HD
ATOM     37  N   UNL     1      17.960  18.235  32.119  0.00  0.00    -0.214 NA
BRANCH   4   3
ATOM      1  C   UNL     1      20.925  16.462  35.687  0.00  0.00    +0.020 A 
ATOM      2  C   UNL     1      20.476  16.416  34.315  0.00  0.00    +0.013 A 
ATOM      3  C   UNL     1      19.476  17.357  33.826  0.00  0.00    +0.019 A 
ATOM     38  C   UNL     1      18.946  18.340  34.760  0.00  0.00    +0.120 A 
ATOM     39  N   UNL     1      19.396  18.359  36.076  0.00  0.00    -0.263 NA
ATOM     40  C   UNL     1      20.357  17.457  36.558  0.00  0.00    +0.111 A 
ENDBRANCH   4   3
ENDBRANCH  10   9
BRANCH  12  13
ATOM     13  N   UNL     1      16.889  20.554  25.888  0.00  0.00    -0.281 N 
ATOM     14  C   UNL     1      17.765  21.626  25.864  0.00  0.00    +0.248 C 
ATOM     30  O   UNL     1      17.857  22.464  26.749  0.00  0.00    -0.270 OA
ATOM     31  H   UNL     1      16.775  20.048  25.009  0.00  0.00    +0.155 HD
BRANCH  14  15
ATOM     15  C   UNL     1      18.660  21.801  24.679  0.00  0.00    +0.037 A 
ATOM     16  C   UNL     1      18.121  22.165  23.367  0.00  0.00    +0.013 A 
ATOM     17  C   UNL     1      19.004  22.310  22.237  0.00  0.00    +0.005 A 
ATOM     18  C   UNL     1      20.437  22.093  22.416  0.00  0.00    -0.033 A 
ATOM     28  C   UNL     1      20.946  21.739  23.730  0.00  0.00    +0.005 A 
ATOM     29  C   UNL     1      20.084  21.594  24.840  0.00  0.00    +0.013 A 
BRANCH  18  19
ATOM     19  C   UNL     1      21.451  22.206  21.262  0.00  0.00    +0.119 C 
BRANCH  19  20
ATOM     20  N   UNL     1      20.908  22.498  19.901  0.00  0.00    -0.302 NA
ATOM     21  C   UNL     1      21.739  21.837  18.798  0.00  0.00    +0.066 C 
ATOM     22  C   UNL     1      21.144  22.133  17.382  0.00  0.00    -0.064 C 
ATOM     23  N   UNL     1      21.069  23.646  17.171  0.00  0.00    +0.379 N 
ATOM     24  C   UNL     1      20.564  23.928  15.819  0.00  0.00    -0.096 C 
ATOM     25  H   UNL     1      22.106  24.049  17.235  0.00  0.00    -0.082 HD
ATOM     26  C   UNL     1      20.246  24.312  18.265  0.00  0.00    -0.064 C 
ATOM     27  C   UNL     1      20.829  23.986  19.669  0.00  0.00    +0.066 C 
ENDBRANCH  19  20
ENDBRANCH  18  19
ENDBRANCH  14  15
ENDBRANCH  12  13
TORSDOF 6
ENDMDL
MODEL 2
REMARK VINA RESULT:      -8.1      5.974     12.270
REMARK  Name = C:\Users\Docking\Desktop\test protocol\1iep_ligandH.pdb
REMARK  8 active torsions:
REMARK  status: ('A' for Active; 'I' for Inactive)
REMARK    1  A    between atoms: _5  and  _11
REMARK    2  A    between atoms: _19  and  _21
REMARK    3  A    between atoms: _22  and  _66
REMARK    4  A    between atoms: _27  and  _30
REMARK    5  A    between atoms: _32  and  _33
REMARK    6  A    between atoms: _38  and  _43
REMARK    7  A    between atoms: _43  and  _46
REMARK    8  A    between atoms: _53  and  _55
REMARK                            x       y       z     vdW  Elec       q    Type
REMARK                         _______ _______ _______ _____ _____    ______ ____
ROOT
ATOM     10  C   UNL     1      20.878  22.963  18.017  0.00  0.00    +0.038 A 
ATOM     11  C   UNL     1      20.561  24.232  17.468  0.00  0.00    +0.047 A 
ATOM     12  C   UNL     1      21.264  24.744  16.302  0.00  0.00    +0.035 A 
ATOM     32  C   UNL     1      22.283  23.936  15.719  0.00  0.00    +0.024 A 
ATOM     33  C   UNL     1      22.619  22.645  16.265  0.00  0.00    +0.007 A 
ATOM     34  C   UNL     1      21.931  22.135  17.416  0.00  0.00    -0.029 A 
ATOM     35  C   UNL     1      22.337  20.747  17.963  0.00  0.00    +0.045 C 
ENDROOT
BRANCH  10   9
ATOM      4  C   UNL     1      20.521  22.087  22.723  0.00  0.00    +0.077 A 
ATOM      5  C   UNL     1      21.866  22.523  22.966  0.00  0.00    +0.048 A 
ATOM      6  C   UNL     1      22.618  22.959  21.852  0.00  0.00    +0.116 A 
ATOM      7  N   UNL     1      22.057  22.954  20.594  0.00  0.00    -0.223 NA
ATOM      8  C   UNL     1      20.758  22.526  20.393  0.00  0.00    +0.220 A 
ATOM      9  N   UNL     1      20.171  22.521  19.137  0.00  0.00    -0.283 N 
ATOM     36  H   UNL     1      19.212  22.190  19.030  0.00  0.00    +0.155 HD
ATOM     37  N   UNL     1      20.019  22.104  21.441  0.00  0.00    -0.214 NA
BRANCH   4   3
ATOM      1  C   UNL     1      17.357  21.519  24.952  0.00  0.00    +0.020 A 
ATOM      2  C   UNL     1      18.206  22.018  23.894  0.00  0.00    +0.013 A 
ATOM      3  C   UNL     1      19.599  21.602  23.798  0.00  0.00    +0.019 A 
ATOM     38  C   UNL     1      20.107  20.672  24.795  0.00  0.00    +0.120 A 
ATOM     39  N   UNL     1      19.266  20.209  25.803  0.00  0.00    -0.263 NA
ATOM     40  C   UNL     1      17.924  20.604  25.907  0.00  0.00    +0.111 A 
ENDBRANCH   4   3
ENDBRANCH  10   9
BRANCH  12  13
ATOM     13  N   UNL     1      20.991  26.028  15.705  0.00  0.00    -0.281 N 
ATOM     14  C   UNL     1      20.241  26.298  14.572  0.00  0.00    +0.248 C 
ATOM     30  O   UNL     1      19.865  25.453  13.774  0.00  0.00    -0.270 OA
ATOM     31  H   UNL     1      21.400  26.836  16.175  0.00  0.00    +0.155 HD
BRANCH  14  15
ATOM     15  C   UNL     1      19.866  27.715  14.276  0.00  0.00    +0.037 A 
ATOM     16  C   UNL     1      20.775  28.822  14.583  0.00  0.00    +0.013 A 
ATOM     17  C   UNL     1      20.382  30.180  14.302  0.00  0.00    +0.005 A 
ATOM     18  C   UNL     1      19.071  30.438  13.709  0.00  0.00    -0.033 A 
ATOM     28  C   UNL     1      18.191  29.320  13.410  0.00  0.00    +0.005 A 
ATOM     29  C   UNL     1      18.573  27.988  13.685  0.00  0.00    +0.013 A 
BRANCH  18  19
ATOM     19  C   UNL     1      18.560  31.856  13.395  0.00  0.00    +0.119 C 
BRANCH  19  20
ATOM     20  N   UNL     1      17.648  32.491  14.393  0.00  0.00    -0.302 NA
ATOM     21  C   UNL     1      16.748  33.552  13.755  0.00  0.00    +0.066 C 
ATOM     22  C   UNL     1      15.784  34.190  14.809  0.00  0.00    -0.064 C 
ATOM     23  N   UNL     1      16.607  34.791  15.950  0.00  0.00    +0.379 N 
ATOM     24  C   UNL     1      15.707  35.442  16.913  0.00  0.00    -0.096 C 
ATOM     25  H   UNL     1      17.263  35.580  15.514  0.00  0.00    -0.082 HD
ATOM     26  C   UNL     1      17.507  33.743  16.588  0.00  0.00    -0.064 C 
ATOM     27  C   UNL     1      18.440  33.095  15.527  0.00  0.00    +0.066 C 
ENDBRANCH  19  20
ENDBRANCH  18  19
ENDBRANCH  14  15
ENDBRANCH  12  13
TORSDOF 6
ENDMDL
MODEL 3
REMARK VINA RESULT:      -8.1      5.525      7.698
REMARK  Name = C:\Users\Docking\Desktop\test protocol\1iep_ligandH.pdb
REMARK  8 active torsions:
REMARK  status: ('A' for Active; 'I' for Inactive)
REMARK    1  A    between atoms: _5  and  _11
REMARK    2  A    between atoms: _19  and  _21
REMARK    3  A    between atoms: _22  and  _66
REMARK    4  A    between atoms: _27  and  _30
REMARK    5  A    between atoms: _32  and  _33
REMARK    6  A    between atoms: _38  and  _43
REMARK    7  A    between atoms: _43  and  _46
REMARK    8  A    between atoms: _53  and  _55
REMARK                            x       y       z     vdW  Elec       q    Type
REMARK                         _______ _______ _______ _____ _____    ______ ____
ROOT
ATOM     10  C   UNL     1      18.030  20.362  26.531  0.00  0.00    +0.038 A 
ATOM     11  C   UNL     1      19.185  19.542  26.465  0.00  0.00    +0.047 A 
ATOM     12  C   UNL     1      20.013  19.504  25.269  0.00  0.00    +0.035 A 
ATOM     32  C   UNL     1      19.636  20.317  24.160  0.00  0.00    +0.024 A 
ATOM     33  C   UNL     1      18.464  21.155  24.211  0.00  0.00    +0.007 A 
ATOM     34  C   UNL     1      17.642  21.195  25.386  0.00  0.00    -0.029 A 
ATOM     35  C   UNL     1      16.394  22.108  25.382  0.00  0.00    +0.045 C 
ENDROOT
BRANCH  10   9
ATOM      4  C   UNL     1      14.233  18.966  29.115  0.00  0.00    +0.077 A 
ATOM      5  C   UNL     1      13.701  18.197  28.027  0.00  0.00    +0.048 A 
ATOM      6  C   UNL     1      14.432  18.193  26.817  0.00  0.00    +0.116 A 
ATOM      7  N   UNL     1      15.605  18.908  26.715  0.00  0.00    -0.223 NA
ATOM      8  C   UNL     1      16.089  19.640  27.783  0.00  0.00    +0.220 A 
ATOM      9  N   UNL     1      17.272  20.360  27.704  0.00  0.00    -0.283 N 
ATOM     36  H   UNL     1      17.591  20.894  28.512  0.00  0.00    +0.155 HD
ATOM     37  N   UNL     1      15.410  19.662  28.948  0.00  0.00    -0.214 NA
BRANCH   4   3
ATOM      1  C   UNL     1      11.565  18.987  31.975  0.00  0.00    +0.020 A 
ATOM      2  C   UNL     1      12.147  18.880  30.657  0.00  0.00    +0.013 A 
ATOM      3  C   UNL     1      13.579  19.067  30.457  0.00  0.00    +0.019 A 
ATOM     38  C   UNL     1      14.400  19.364  31.622  0.00  0.00    +0.120 A 
ATOM     39  N   UNL     1      13.811  19.463  32.878  0.00  0.00    -0.263 NA
ATOM     40  C   UNL     1      12.434  19.286  33.082  0.00  0.00    +0.111 A 
ENDBRANCH   4   3
ENDBRANCH  10   9
BRANCH  12  13
ATOM     13  N   UNL     1      21.192  18.685  25.140  0.00  0.00    -0.281 N 
ATOM     14  C   UNL     1      22.112  18.355  26.122  0.00  0.00    +0.248 C 
ATOM     30  O   UNL     1      22.175  18.893  27.218  0.00  0.00    -0.270 OA
ATOM     31  H   UNL     1      21.371  18.301  24.212  0.00  0.00    +0.155 HD
BRANCH  14  15
ATOM     15  C   UNL     1      23.115  17.283  25.842  0.00  0.00    +0.037 A 
ATOM     16  C   UNL     1      22.747  15.866  25.894  0.00  0.00    +0.013 A 
ATOM     17  C   UNL     1      23.738  14.851  25.636  0.00  0.00    +0.005 A 
ATOM     18  C   UNL     1      25.107  15.252  25.322  0.00  0.00    -0.033 A 
ATOM     28  C   UNL     1      25.444  16.665  25.272  0.00  0.00    +0.005 A 
ATOM     29  C   UNL     1      24.475  17.662  25.526  0.00  0.00    +0.013 A 
BRANCH  18  19
ATOM     19  C   UNL     1      26.234  14.237  25.054  0.00  0.00    +0.119 C 
BRANCH  19  20
ATOM     20  N   UNL     1      26.717  14.107  23.647  0.00  0.00    -0.302 NA
ATOM     21  C   UNL     1      27.945  14.981  23.377  0.00  0.00    +0.066 C 
ATOM     22  C   UNL     1      28.450  14.816  21.907  0.00  0.00    -0.064 C 
ATOM     23  N   UNL     1      27.316  15.161  20.940  0.00  0.00    +0.379 N 
ATOM     24  C   UNL     1      27.805  15.062  19.556  0.00  0.00    -0.096 C 
ATOM     25  H   UNL     1      27.028  16.222  21.122  0.00  0.00    -0.082 HD
ATOM     26  C   UNL     1      26.090  14.298  21.202  0.00  0.00    -0.064 C 
ATOM     27  C   UNL     1      25.614  14.447  22.674  0.00  0.00    +0.066 C 
ENDBRANCH  19  20
ENDBRANCH  18  19
ENDBRANCH  14  15
ENDBRANCH  12  13
TORSDOF 6
ENDMDL
MODEL 4
REMARK VINA RESULT:      -8.0      4.037      5.044
REMARK  Name = C:\Users\Docking\Desktop\test protocol\1iep_ligandH.pdb
REMARK  8 active torsions:
REMARK  status: ('A' for Active; 'I' for Inactive)
REMARK    1  A    between atoms: _5  and  _11
REMARK    2  A    between atoms: _19  and  _21
REMARK    3  A    between atoms: _22  and  _66
REMARK    4  A    between atoms: _27  and  _30
REMARK    5  A    between atoms: _32  and  _33
REMARK    6  A    between atoms: _38  and  _43
REMARK    7  A    between atoms: _43  and  _46
REMARK    8  A    between atoms: _53  and  _55
REMARK                            x       y       z     vdW  Elec       q    Type
REMARK                         _______ _______ _______ _____ _____    ______ ____
ROOT
ATOM     10  C   UNL     1      20.425  17.935  27.974  0.00  0.00    +0.038 A 
ATOM     11  C   UNL     1      20.777  18.663  26.809  0.00  0.00    +0.047 A 
ATOM     12  C   UNL     1      19.758  19.192  25.916  0.00  0.00    +0.035 A 
ATOM     32  C   UNL     1      18.389  18.962  26.241  0.00  0.00    +0.024 A 
ATOM     33  C   UNL     1      18.014  18.223  27.421  0.00  0.00    +0.007 A 
ATOM     34  C   UNL     1      19.015  17.697  28.304  0.00  0.00    -0.029 A 
ATOM     35  C   UNL     1      18.555  16.907  29.551  0.00  0.00    +0.045 C 
ENDROOT
BRANCH  10   9
ATOM      4  C   UNL     1      24.025  14.902  28.913  0.00  0.00    +0.077 A 
ATOM      5  C   UNL     1      23.841  14.207  27.672  0.00  0.00    +0.048 A 
ATOM      6  C   UNL     1      22.805  14.657  26.823  0.00  0.00    +0.116 A 
ATOM      7  N   UNL     1      22.017  15.723  27.198  0.00  0.00    -0.223 NA
ATOM      8  C   UNL     1      22.220  16.371  28.403  0.00  0.00    +0.220 A 
ATOM      9  N   UNL     1      21.445  17.451  28.797  0.00  0.00    -0.283 N 
ATOM     36  H   UNL     1      21.621  17.896  29.697  0.00  0.00    +0.155 HD
ATOM     37  N   UNL     1      23.202  15.959  29.232  0.00  0.00    -0.214 NA
BRANCH   4   3
ATOM      1  C   UNL     1      26.379  14.965  32.036  0.00  0.00    +0.020 A 
ATOM      2  C   UNL     1      25.349  15.352  31.100  0.00  0.00    +0.013 A 
ATOM      3  C   UNL     1      25.080  14.547  29.915  0.00  0.00    +0.019 A 
ATOM     38  C   UNL     1      25.876  13.347  29.706  0.00  0.00    +0.120 A 
ATOM     39  N   UNL     1      26.862  13.000  30.624  0.00  0.00    -0.263 NA
ATOM     40  C   UNL     1      27.131  13.768  31.767  0.00  0.00    +0.111 A 
ENDBRANCH   4   3
ENDBRANCH  10   9
BRANCH  12  13
ATOM     13  N   UNL     1      20.055  19.932  24.714  0.00  0.00    -0.281 N 
ATOM     14  C   UNL     1      20.144  21.305  24.560  0.00  0.00    +0.248 C 
ATOM     30  O   UNL     1      19.770  22.120  25.391  0.00  0.00    -0.270 OA
ATOM     31  H   UNL     1      20.219  19.375  23.875  0.00  0.00    +0.155 HD
BRANCH  14  15
ATOM     15  C   UNL     1      20.719  21.854  23.295  0.00  0.00    +0.037 A 
ATOM     16  C   UNL     1      22.100  22.341  23.236  0.00  0.00    +0.013 A 
ATOM     17  C   UNL     1      22.625  22.881  22.007  0.00  0.00    +0.005 A 
ATOM     18  C   UNL     1      21.767  22.936  20.825  0.00  0.00    -0.033 A 
ATOM     28  C   UNL     1      20.403  22.442  20.910  0.00  0.00    +0.005 A 
ATOM     29  C   UNL     1      19.885  21.913  22.113  0.00  0.00    +0.013 A 
BRANCH  18  19
ATOM     19  C   UNL     1      22.236  23.516  19.478  0.00  0.00    +0.119 C 
BRANCH  19  20
ATOM     20  N   UNL     1      21.780  22.820  18.238  0.00  0.00    -0.302 NA
ATOM     21  C   UNL     1      22.947  22.492  17.301  0.00  0.00    +0.066 C 
ATOM     22  C   UNL     1      22.455  21.743  16.020  0.00  0.00    -0.064 C 
ATOM     23  N   UNL     1      21.409  22.599  15.303  0.00  0.00    +0.379 N 
ATOM     24  C   UNL     1      20.986  21.924  14.067  0.00  0.00    -0.096 C 
ATOM     25  H   UNL     1      21.897  23.559  15.015  0.00  0.00    -0.082 HD
ATOM     26  C   UNL     1      20.247  22.932  16.228  0.00  0.00    -0.064 C 
ATOM     27  C   UNL     1      20.750  23.649  17.512  0.00  0.00    +0.066 C 
ENDBRANCH  19  20
ENDBRANCH  18  19
ENDBRANCH  14  15
ENDBRANCH  12  13
TORSDOF 6
ENDMDL
MODEL 5
REMARK VINA RESULT:      -8.0     11.549     17.462
REMARK  Name = C:\Users\Docking\Desktop\test protocol\1iep_ligandH.pdb
REMARK  8 active torsions:
REMARK  status: ('A' for Active; 'I' for Inactive)
REMARK    1  A    between atoms: _5  and  _11
REMARK    2  A    between atoms: _19  and  _21
REMARK    3  A    between atoms: _22  and  _66
REMARK    4  A    between atoms: _27  and  _30
REMARK    5  A    between atoms: _32  and  _33
REMARK    6  A    between atoms: _38  and  _43
REMARK    7  A    between atoms: _43  and  _46
REMARK    8  A    between atoms: _53  and  _55
REMARK                            x       y       z     vdW  Elec       q    Type
REMARK                         _______ _______ _______ _____ _____    ______ ____
ROOT
ATOM     10  C   UNL     1      17.807  31.024  13.362  0.00  0.00    +0.038 A 
ATOM     11  C   UNL     1      18.251  29.790  13.903  0.00  0.00    +0.047 A 
ATOM     12  C   UNL     1      18.075  28.543  13.175  0.00  0.00    +0.035 A 
ATOM     32  C   UNL     1      17.445  28.589  11.897  0.00  0.00    +0.024 A 
ATOM     33  C   UNL     1      16.987  29.835  11.333  0.00  0.00    +0.007 A 
ATOM     34  C   UNL     1      17.156  31.068  12.047  0.00  0.00    -0.029 A 
ATOM     35  C   UNL     1      16.639  32.372  11.397  0.00  0.00    +0.045 C 
ENDROOT
BRANCH  10   9
ATOM      4  C   UNL     1      16.475  34.162  16.741  0.00  0.00    +0.077 A 
ATOM      5  C   UNL     1      15.277  33.429  17.034  0.00  0.00    +0.048 A 
ATOM      6  C   UNL     1      15.038  32.253  16.287  0.00  0.00    +0.116 A 
ATOM      7  N   UNL     1      15.936  31.850  15.323  0.00  0.00    -0.223 NA
ATOM      8  C   UNL     1      17.080  32.582  15.064  0.00  0.00    +0.220 A 
ATOM      9  N   UNL     1      18.001  32.191  14.104  0.00  0.00    -0.283 N 
ATOM     36  H   UNL     1      18.830  32.762  13.938  0.00  0.00    +0.155 HD
ATOM     37  N   UNL     1      17.331  33.709  15.762  0.00  0.00    -0.214 NA
BRANCH   4   3
ATOM      1  C   UNL     1      16.338  37.631  18.544  0.00  0.00    +0.020 A 
ATOM      2  C   UNL     1      15.905  36.431  17.865  0.00  0.00    +0.013 A 
ATOM      3  C   UNL     1      16.870  35.422  17.446  0.00  0.00    +0.019 A 
ATOM     38  C   UNL     1      18.277  35.659  17.732  0.00  0.00    +0.120 A 
ATOM     39  N   UNL     1      18.665  36.824  18.386  0.00  0.00    -0.263 NA
ATOM     40  C   UNL     1      17.746  37.803  18.792  0.00  0.00    +0.111 A 
ENDBRANCH   4   3
ENDBRANCH  10   9
BRANCH  12  13
ATOM     13  N   UNL     1      18.498  27.259  13.677  0.00  0.00    -0.281 N 
ATOM     14  C   UNL     1      19.766  26.702  13.632  0.00  0.00    +0.248 C 
ATOM     30  O   UNL     1      20.688  27.138  12.959  0.00  0.00    -0.270 OA
ATOM     31  H   UNL     1      17.775  26.691  14.119  0.00  0.00    +0.155 HD
BRANCH  14  15
ATOM     15  C   UNL     1      20.046  25.477  14.440  0.00  0.00    +0.037 A 
ATOM     16  C   UNL     1      20.246  24.174  13.801  0.00  0.00    +0.013 A 
ATOM     17  C   UNL     1      20.497  23.005  14.605  0.00  0.00    +0.005 A 
ATOM     18  C   UNL     1      20.552  23.134  16.059  0.00  0.00    -0.033 A 
ATOM     28  C   UNL     1      20.355  24.439  16.667  0.00  0.00    +0.005 A 
ATOM     29  C   UNL     1      20.107  25.588  15.882  0.00  0.00    +0.013 A 
BRANCH  18  19
ATOM     19  C   UNL     1      20.794  21.936  16.997  0.00  0.00    +0.119 C 
BRANCH  19  20
ATOM     20  N   UNL     1      22.209  21.514  17.215  0.00  0.00    -0.302 NA
ATOM     21  C   UNL     1      22.629  20.394  16.259  0.00  0.00    +0.066 C 
ATOM     22  C   UNL     1      24.119  19.980  16.486  0.00  0.00    -0.064 C 
ATOM     23  N   UNL     1      24.310  19.549  17.941  0.00  0.00    +0.379 N 
ATOM     24  C   UNL     1      25.697  19.105  18.144  0.00  0.00    -0.096 C 
ATOM     25  H   UNL     1      23.644  18.675  18.125  0.00  0.00    -0.082 HD
ATOM     26  C   UNL     1      23.893  20.656  18.899  0.00  0.00    -0.064 C 
ATOM     27  C   UNL     1      22.419  21.080  18.645  0.00  0.00    +0.066 C 
ENDBRANCH  19  20
ENDBRANCH  18  19
ENDBRANCH  14  15
ENDBRANCH  12  13
TORSDOF 6
ENDMDL
