MODEL 1
REMARK VINA RESULT:      -8.8      0.000      0.000
REMARK  Name = C:\Users\Docking\Desktop\test protocol\1iep_ligandH.pdb
REMARK  8 active torsions:
REMARK  status: ('A' for Active; 'I' for Inactive)
REMARK    1  A    between atoms: _5  and  _11
REMARK    2  A    between atoms: _19  and  _21
REMARK    3  A    between atoms: _22  and  _66
REMARK    4  A    between atoms: _27  and  _30
REMARK    5  A    between atoms: _32  and  _33
REMARK    6  A    between atoms: _38  and  _43
REMARK    7  A    between atoms: _43  and  _46
REMARK    8  A    between atoms: _53  and  _55
REMARK                            x       y       z     vdW  Elec       q    Type
REMARK                         _______ _______ _______ _____ _____    ______ ____
ROOT
ATOM     10  C   UNL     1      22.173   3.691  24.663  0.00  0.00    +0.038 A 
ATOM     11  C   UNL     1      22.856   3.018  25.708  0.00  0.00    +0.047 A 
ATOM     12  C   UNL     1      24.199   3.412  26.105  0.00  0.00    +0.035 A 
ATOM     32  C   UNL     1      24.816   4.497  25.418  0.00  0.00    +0.024 A 
ATOM     33  C   UNL     1      24.137   5.191  24.352  0.00  0.00    +0.007 A 
ATOM     34  C   UNL     1      22.813   4.806  23.954  0.00  0.00    -0.029 A 
ATOM     35  C   UNL     1      22.136   5.581  22.801  0.00  0.00    +0.045 C 
ENDROOT
BRANCH  10   9
ATOM      4  C   UNL     1      19.145   0.840  22.268  0.00  0.00    +0.077 A 
ATOM      5  C   UNL     1      20.219   0.145  21.618  0.00  0.00    +0.048 A 
ATOM      6  C   UNL     1      21.536   0.557  21.923  0.00  0.00    +0.116 A 
ATOM      7  N   UNL     1      21.751   1.587  22.812  0.00  0.00    -0.223 NA
ATOM      8  C   UNL     1      20.692   2.238  23.419  0.00  0.00    +0.220 A 
ATOM      9  N   UNL     1      20.885   3.271  24.323  0.00  0.00    -0.283 N 
ATOM     36  H   UNL     1      20.078   3.730  24.744  0.00  0.00    +0.155 HD
ATOM     37  N   UNL     1      19.425   1.864  23.144  0.00  0.00    -0.214 NA
BRANCH   4   3
ATOM      1  C   UNL     1      15.289   1.180  21.704  0.00  0.00    +0.020 A 
ATOM      2  C   UNL     1      16.672   1.544  21.911  0.00  0.00    +0.013 A 
ATOM      3  C   UNL     1      17.698   0.519  22.052  0.00  0.00    +0.019 A 
ATOM     38  C   UNL     1      17.289  -0.876  21.976  0.00  0.00    +0.120 A 
ATOM     39  N   UNL     1      15.950  -1.196  21.777  0.00  0.00    -0.263 NA
ATOM     40  C   UNL     1      14.953  -0.218  21.642  0.00  0.00    +0.111 A 
ENDBRANCH   4   3
ENDBRANCH  10   9
BRANCH  12  13
ATOM     13  N   UNL     1      24.944   2.761  27.154  0.00  0.00    -0.281 N 
ATOM     14  C   UNL     1      26.292   2.439  27.168  0.00  0.00    +0.248 C 
ATOM     30  O   UNL     1      27.020   2.471  26.187  0.00  0.00    -0.270 OA
ATOM     31  H   UNL     1      24.414   2.506  27.988  0.00  0.00    +0.155 HD
BRANCH  14  15
ATOM     15  C   UNL     1      26.918   2.006  28.454  0.00  0.00    +0.037 A 
ATOM     16  C   UNL     1      26.857   0.610  28.896  0.00  0.00    +0.013 A 
ATOM     17  C   UNL     1      27.454   0.222  30.149  0.00  0.00    +0.005 A 
ATOM     18  C   UNL     1      28.120   1.232  30.969  0.00  0.00    -0.033 A 
ATOM     28  C   UNL     1      28.170   2.608  30.503  0.00  0.00    +0.005 A 
ATOM     29  C   UNL     1      27.584   2.993  29.276  0.00  0.00    +0.013 A 
BRANCH  18  19
ATOM     19  C   UNL     1      28.766   0.912  32.330  0.00  0.00    +0.119 C 
BRANCH  19  20
ATOM     20  N   UNL     1      30.117   0.277  32.312  0.00  0.00    -0.302 NA
ATOM     21  C   UNL     1      30.418  -0.469  33.615  0.00  0.00    +0.066 C 
ATOM     22  C   UNL     1      31.827  -1.145  33.571  0.00  0.00    -0.064 C 
ATOM     23  N   UNL     1      32.892  -0.082  33.298  0.00  0.00    +0.379 N 
ATOM     24  C   UNL     1      34.223  -0.706  33.313  0.00  0.00    -0.096 C 
ATOM     25  H   UNL     1      32.855   0.656  34.132  0.00  0.00    -0.082 HD
ATOM     26  C   UNL     1      32.599   0.666  32.005  0.00  0.00    -0.064 C 
ATOM     27  C   UNL     1      31.185   1.310  32.048  0.00  0.00    +0.066 C 
ENDBRANCH  19  20
ENDBRANCH  18  19
ENDBRANCH  14  15
ENDBRANCH  12  13
TORSDOF 6
ENDMDL
MODEL 2
REMARK VINA RESULT:      -8.6      1.791      2.814
REMARK  Name = C:\Users\Docking\Desktop\test protocol\1iep_ligandH.pdb
REMARK  8 active torsions:
REMARK  status: ('A' for Active; 'I' for Inactive)
REMARK    1  A    between atoms: _5  and  _11
REMARK    2  A    between atoms: _19  and  _21
REMARK    3  A    between atoms: _22  and  _66
REMARK    4  A    between atoms: _27  and  _30
REMARK    5  A    between atoms: _32  and  _33
REMARK    6  A    between atoms: _38  and  _43
REMARK    7  A    between atoms: _43  and  _46
REMARK    8  A    between atoms: _53  and  _55
REMARK                            x       y       z     vdW  Elec       q    Type
REMARK                         _______ _______ _______ _____ _____    ______ ____
ROOT
ATOM     10  C   UNL     1      22.159   3.714  24.617  0.00  0.00    +0.038 A 
ATOM     11  C   UNL     1      22.839   3.032  25.658  0.00  0.00    +0.047 A 
ATOM     12  C   UNL     1      24.183   3.420  26.059  0.00  0.00    +0.035 A 
ATOM     32  C   UNL     1      24.803   4.509  25.380  0.00  0.00    +0.024 A 
ATOM     33  C   UNL     1      24.126   5.213  24.319  0.00  0.00    +0.007 A 
ATOM     34  C   UNL     1      22.802   4.833  23.917  0.00  0.00    -0.029 A 
ATOM     35  C   UNL     1      22.126   5.619  22.769  0.00  0.00    +0.045 C 
ENDROOT
BRANCH  10   9
ATOM      4  C   UNL     1      19.126   0.850  22.243  0.00  0.00    +0.077 A 
ATOM      5  C   UNL     1      20.199   0.136  21.614  0.00  0.00    +0.048 A 
ATOM      6  C   UNL     1      21.517   0.541  21.923  0.00  0.00    +0.116 A 
ATOM      7  N   UNL     1      21.733   1.585  22.797  0.00  0.00    -0.223 NA
ATOM      8  C   UNL     1      20.676   2.253  23.385  0.00  0.00    +0.220 A 
ATOM      9  N   UNL     1      20.870   3.300  24.273  0.00  0.00    -0.283 N 
ATOM     36  H   UNL     1      20.063   3.773  24.680  0.00  0.00    +0.155 HD
ATOM     37  N   UNL     1      19.408   1.886  23.105  0.00  0.00    -0.214 NA
BRANCH   4   3
ATOM      1  C   UNL     1      15.781  -1.060  21.560  0.00  0.00    +0.020 A 
ATOM      2  C   UNL     1      17.189  -0.812  21.768  0.00  0.00    +0.013 A 
ATOM      3  C   UNL     1      17.679   0.538  22.020  0.00  0.00    +0.019 A 
ATOM     38  C   UNL     1      16.709   1.623  22.057  0.00  0.00    +0.120 A 
ATOM     39  N   UNL     1      15.360   1.354  21.851  0.00  0.00    -0.263 NA
ATOM     40  C   UNL     1      14.877   0.060  21.606  0.00  0.00    +0.111 A 
ENDBRANCH   4   3
ENDBRANCH  10   9
BRANCH  12  13
ATOM     13  N   UNL     1      24.926   2.759  27.103  0.00  0.00    -0.281 N 
ATOM     14  C   UNL     1      26.276   2.447  27.120  0.00  0.00    +0.248 C 
ATOM     30  O   UNL     1      27.010   2.498  26.145  0.00  0.00    -0.270 OA
ATOM     31  H   UNL     1      24.393   2.489  27.929  0.00  0.00    +0.155 HD
BRANCH  14  15
ATOM     15  C   UNL     1      26.897   2.000  28.404  0.00  0.00    +0.037 A 
ATOM     16  C   UNL     1      26.838   0.599  28.829  0.00  0.00    +0.013 A 
ATOM     17  C   UNL     1      27.430   0.197  30.081  0.00  0.00    +0.005 A 
ATOM     18  C   UNL     1      28.089   1.199  30.916  0.00  0.00    -0.033 A 
ATOM     28  C   UNL     1      28.137   2.581  30.467  0.00  0.00    +0.005 A 
ATOM     29  C   UNL     1      27.557   2.979  29.242  0.00  0.00    +0.013 A 
BRANCH  18  19
ATOM     19  C   UNL     1      28.729   0.865  32.276  0.00  0.00    +0.119 C 
BRANCH  19  20
ATOM     20  N   UNL     1      28.002   1.310  33.502  0.00  0.00    -0.302 NA
ATOM     21  C   UNL     1      28.357   0.456  34.722  0.00  0.00    +0.066 C 
ATOM     22  C   UNL     1      27.605   0.951  36.001  0.00  0.00    -0.064 C 
ATOM     23  N   UNL     1      26.098   0.927  35.743  0.00  0.00    +0.379 N 
ATOM     24  C   UNL     1      25.385   1.336  36.963  0.00  0.00    -0.096 C 
ATOM     25  H   UNL     1      25.809  -0.126  35.520  0.00  0.00    -0.082 HD
ATOM     26  C   UNL     1      25.736   1.772  34.530  0.00  0.00    -0.064 C 
ATOM     27  C   UNL     1      26.511   1.291  33.271  0.00  0.00    +0.066 C 
ENDBRANCH  19  20
ENDBRANCH  18  19
ENDBRANCH  14  15
ENDBRANCH  12  13
TORSDOF 6
ENDMDL
MODEL 3
REMARK VINA RESULT:      -8.6      2.166     12.951
REMARK  Name = C:\Users\Docking\Desktop\test protocol\1iep_ligandH.pdb
REMARK  8 active torsions:
REMARK  status: ('A' for Active; 'I' for Inactive)
REMARK    1  A    between atoms: _5  and  _11
REMARK    2  A    between atoms: _19  and  _21
REMARK    3  A    between atoms: _22  and  _66
REMARK    4  A    between atoms: _27  and  _30
REMARK    5  A    between atoms: _32  and  _33
REMARK    6  A    between atoms: _38  and  _43
REMARK    7  A    between atoms: _43  and  _46
REMARK    8  A    between atoms: _53  and  _55
REMARK                            x       y       z     vdW  Elec       q    Type
REMARK                         _______ _______ _______ _____ _____    ______ ____
ROOT
ATOM     10  C   UNL     1      26.226   4.090  26.989  0.00  0.00    +0.038 A 
ATOM     11  C   UNL     1      25.130   3.309  26.540  0.00  0.00    +0.047 A 
ATOM     12  C   UNL     1      24.506   3.557  25.250  0.00  0.00    +0.035 A 
ATOM     32  C   UNL     1      25.026   4.609  24.440  0.00  0.00    +0.024 A 
ATOM     33  C   UNL     1      26.138   5.414  24.880  0.00  0.00    +0.007 A 
ATOM     34  C   UNL     1      26.756   5.175  26.153  0.00  0.00    -0.029 A 
ATOM     35  C   UNL     1      27.941   6.073  26.577  0.00  0.00    +0.045 C 
ENDROOT
BRANCH  10   9
ATOM      4  C   UNL     1      27.660   1.020  30.387  0.00  0.00    +0.077 A 
ATOM      5  C   UNL     1      27.232  -0.117  29.624  0.00  0.00    +0.048 A 
ATOM      6  C   UNL     1      26.641   0.132  28.365  0.00  0.00    +0.116 A 
ATOM      7  N   UNL     1      26.494   1.425  27.913  0.00  0.00    -0.223 NA
ATOM      8  C   UNL     1      26.917   2.499  28.675  0.00  0.00    +0.220 A 
ATOM      9  N   UNL     1      26.786   3.808  28.236  0.00  0.00    -0.283 N 
ATOM     36  H   UNL     1      27.104   4.573  28.831  0.00  0.00    +0.155 HD
ATOM     37  N   UNL     1      27.483   2.288  29.881  0.00  0.00    -0.214 NA
BRANCH   4   3
ATOM      1  C   UNL     1      30.295   0.536  33.238  0.00  0.00    +0.020 A 
ATOM      2  C   UNL     1      29.721   0.622  31.915  0.00  0.00    +0.013 A 
ATOM      3  C   UNL     1      28.306   0.919  31.734  0.00  0.00    +0.019 A 
ATOM     38  C   UNL     1      27.492   1.127  32.923  0.00  0.00    +0.120 A 
ATOM     39  N   UNL     1      28.072   1.038  34.184  0.00  0.00    -0.263 NA
ATOM     40  C   UNL     1      29.433   0.750  34.370  0.00  0.00    +0.111 A 
ENDBRANCH   4   3
ENDBRANCH  10   9
BRANCH  12  13
ATOM     13  N   UNL     1      23.386   2.802  24.746  0.00  0.00    -0.281 N 
ATOM     14  C   UNL     1      22.052   2.921  25.096  0.00  0.00    +0.248 C 
ATOM     30  O   UNL     1      21.643   3.555  26.058  0.00  0.00    -0.270 OA
ATOM     31  H   UNL     1      23.604   2.092  24.046  0.00  0.00    +0.155 HD
BRANCH  14  15
ATOM     15  C   UNL     1      21.022   2.225  24.265  0.00  0.00    +0.037 A 
ATOM     16  C   UNL     1      19.599   2.291  24.607  0.00  0.00    +0.013 A 
ATOM     17  C   UNL     1      18.628   1.596  23.799  0.00  0.00    +0.005 A 
ATOM     18  C   UNL     1      19.079   0.830  22.639  0.00  0.00    -0.033 A 
ATOM     28  C   UNL     1      20.496   0.786  22.320  0.00  0.00    +0.005 A 
ATOM     29  C   UNL     1      21.450   1.465  23.111  0.00  0.00    +0.013 A 
BRANCH  18  19
ATOM     19  C   UNL     1      18.116   0.040  21.733  0.00  0.00    +0.119 C 
BRANCH  19  20
ATOM     20  N   UNL     1      16.668   0.050  22.101  0.00  0.00    -0.302 NA
ATOM     21  C   UNL     1      16.313  -1.082  23.069  0.00  0.00    +0.066 C 
ATOM     22  C   UNL     1      14.800  -1.043  23.460  0.00  0.00    -0.064 C 
ATOM     23  N   UNL     1      13.946  -1.126  22.194  0.00  0.00    +0.379 N 
ATOM     24  C   UNL     1      12.523  -1.148  22.562  0.00  0.00    -0.096 C 
ATOM     25  H   UNL     1      14.181  -2.092  21.691  0.00  0.00    -0.082 HD
ATOM     26  C   UNL     1      14.295  -0.005  21.225  0.00  0.00    -0.064 C 
ATOM     27  C   UNL     1      15.806  -0.035  20.865  0.00  0.00    +0.066 C 
ENDBRANCH  19  20
ENDBRANCH  18  19
ENDBRANCH  14  15
ENDBRANCH  12  13
TORSDOF 6
ENDMDL
MODEL 4
REMARK VINA RESULT:      -8.4      2.325     13.175
REMARK  Name = C:\Users\Docking\Desktop\test protocol\1iep_ligandH.pdb
REMARK  8 active torsions:
REMARK  status: ('A' for Active; 'I' for Inactive)
REMARK    1  A    between atoms: _5  and  _11
REMARK    2  A    between atoms: _19  and  _21
REMARK    3  A    between atoms: _22  and  _66
REMARK    4  A    between atoms: _27  and  _30
REMARK    5  A    between atoms: _32  and  _33
REMARK    6  A    between atoms: _38  and  _43
REMARK    7  A    between atoms: _43  and  _46
REMARK    8  A    between atoms: _53  and  _55
REMARK                            x       y       z     vdW  Elec       q    Type
REMARK                         _______ _______ _______ _____ _____    ______ ____
ROOT
ATOM     10  C   UNL     1      24.212   4.062  26.777  0.00  0.00    +0.038 A 
ATOM     11  C   UNL     1      23.070   3.344  26.342  0.00  0.00    +0.047 A 
ATOM     12  C   UNL     1      22.471   3.598  25.041  0.00  0.00    +0.035 A 
ATOM     32  C   UNL     1      23.065   4.590  24.207  0.00  0.00    +0.024 A 
ATOM     33  C   UNL     1      24.226   5.331  24.634  0.00  0.00    +0.007 A 
ATOM     34  C   UNL     1      24.819   5.086  25.917  0.00  0.00    -0.029 A 
ATOM     35  C   UNL     1      26.059   5.914  26.326  0.00  0.00    +0.045 C 
ENDROOT
BRANCH  10   9
ATOM      4  C   UNL     1      26.756   1.304  29.771  0.00  0.00    +0.077 A 
ATOM      5  C   UNL     1      27.022   0.336  28.747  0.00  0.00    +0.048 A 
ATOM      6  C   UNL     1      26.480   0.581  27.465  0.00  0.00    +0.116 A 
ATOM      7  N   UNL     1      25.730   1.714  27.236  0.00  0.00    -0.223 NA
ATOM      8  C   UNL     1      25.491   2.627  28.246  0.00  0.00    +0.220 A 
ATOM      9  N   UNL     1      24.746   3.777  28.036  0.00  0.00    -0.283 N 
ATOM     36  H   UNL     1      24.585   4.422  28.809  0.00  0.00    +0.155 HD
ATOM     37  N   UNL     1      25.996   2.415  29.479  0.00  0.00    -0.214 NA
BRANCH   4   3
ATOM      1  C   UNL     1      29.090   0.789  32.867  0.00  0.00    +0.020 A 
ATOM      2  C   UNL     1      28.653   0.891  31.494  0.00  0.00    +0.013 A 
ATOM      3  C   UNL     1      27.262   1.187  31.175  0.00  0.00    +0.019 A 
ATOM     38  C   UNL     1      26.332   1.378  32.278  0.00  0.00    +0.120 A 
ATOM     39  N   UNL     1      26.782   1.273  33.590  0.00  0.00    -0.263 NA
ATOM     40  C   UNL     1      28.117   0.986  33.909  0.00  0.00    +0.111 A 
ENDBRANCH   4   3
ENDBRANCH  10   9
BRANCH  12  13
ATOM     13  N   UNL     1      21.306   2.906  24.548  0.00  0.00    -0.281 N 
ATOM     14  C   UNL     1      21.259   1.844  23.659  0.00  0.00    +0.248 C 
ATOM     30  O   UNL     1      22.204   1.466  22.984  0.00  0.00    -0.270 OA
ATOM     31  H   UNL     1      20.408   3.238  24.898  0.00  0.00    +0.155 HD
BRANCH  14  15
ATOM     15  C   UNL     1      19.971   1.106  23.484  0.00  0.00    +0.037 A 
ATOM     16  C   UNL     1      18.865   1.273  24.431  0.00  0.00    +0.013 A 
ATOM     17  C   UNL     1      17.640   0.536  24.248  0.00  0.00    +0.005 A 
ATOM     18  C   UNL     1      17.514  -0.375  23.112  0.00  0.00    -0.033 A 
ATOM     28  C   UNL     1      18.625  -0.517  22.186  0.00  0.00    +0.005 A 
ATOM     29  C   UNL     1      19.828   0.203  22.362  0.00  0.00    +0.013 A 
BRANCH  18  19
ATOM     19  C   UNL     1      16.251  -1.217  22.851  0.00  0.00    +0.119 C 
BRANCH  19  20
ATOM     20  N   UNL     1      14.964  -0.482  22.672  0.00  0.00    -0.302 NA
ATOM     21  C   UNL     1      13.824  -1.414  22.252  0.00  0.00    +0.066 C 
ATOM     22  C   UNL     1      12.479  -0.632  22.091  0.00  0.00    -0.064 C 
ATOM     23  N   UNL     1      12.665   0.491  21.069  0.00  0.00    +0.379 N 
ATOM     24  C   UNL     1      11.387   1.191  20.872  0.00  0.00    -0.096 C 
ATOM     25  H   UNL     1      12.947   0.021  20.098  0.00  0.00    -0.082 HD
ATOM     26  C   UNL     1      13.799   1.421  21.477  0.00  0.00    -0.064 C 
ATOM     27  C   UNL     1      15.123   0.629  21.664  0.00  0.00    +0.066 C 
ENDBRANCH  19  20
ENDBRANCH  18  19
ENDBRANCH  14  15
ENDBRANCH  12  13
TORSDOF 6
ENDMDL
MODEL 5
REMARK VINA RESULT:      -8.2      5.938     16.288
REMARK  Name = C:\Users\Docking\Desktop\test protocol\1iep_ligandH.pdb
REMARK  8 active torsions:
REMARK  status: ('A' for Active; 'I' for Inactive)
REMARK    1  A    between atoms: _5  and  _11
REMARK    2  A    between atoms: _19  and  _21
REMARK    3  A    between atoms: _22  and  _66
REMARK    4  A    between atoms: _27  and  _30
REMARK    5  A    between atoms: _32  and  _33
REMARK    6  A    between atoms: _38  and  _43
REMARK    7  A    between atoms: _43  and  _46
REMARK    8  A    between atoms: _53  and  _55
REMARK                            x       y       z     vdW  Elec       q    Type
REMARK                         _______ _______ _______ _____ _____    ______ ____
ROOT
ATOM     10  C   UNL     1      17.752   0.590  23.200  0.00  0.00    +0.038 A 
ATOM     11  C   UNL     1      16.616   1.434  23.102  0.00  0.00    +0.047 A 
ATOM     12  C   UNL     1      15.547   1.148  22.158  0.00  0.00    +0.035 A 
ATOM     32  C   UNL     1      15.665  -0.007  21.332  0.00  0.00    +0.024 A 
ATOM     33  C   UNL     1      16.814  -0.875  21.418  0.00  0.00    +0.007 A 
ATOM     34  C   UNL     1      17.873  -0.597  22.345  0.00  0.00    -0.029 A 
ATOM     35  C   UNL     1      19.084  -1.558  22.391  0.00  0.00    +0.045 C 
ENDROOT
BRANCH  10   9
ATOM      4  C   UNL     1      21.517   3.205  24.625  0.00  0.00    +0.077 A 
ATOM      5  C   UNL     1      21.513   3.977  23.416  0.00  0.00    +0.048 A 
ATOM      6  C   UNL     1      20.531   3.665  22.450  0.00  0.00    +0.116 A 
ATOM      7  N   UNL     1      19.624   2.654  22.686  0.00  0.00    -0.223 NA
ATOM      8  C   UNL     1      19.656   1.928  23.862  0.00  0.00    +0.220 A 
ATOM      9  N   UNL     1      18.750   0.912  24.124  0.00  0.00    -0.283 N 
ATOM     36  H   UNL     1      18.811   0.395  25.000  0.00  0.00    +0.155 HD
ATOM     37  N   UNL     1      20.586   2.205  24.800  0.00  0.00    -0.214 NA
BRANCH   4   3
ATOM      1  C   UNL     1      24.748   3.116  26.828  0.00  0.00    +0.020 A 
ATOM      2  C   UNL     1      23.847   2.882  25.724  0.00  0.00    +0.013 A 
ATOM      3  C   UNL     1      22.491   3.417  25.742  0.00  0.00    +0.019 A 
ATOM     38  C   UNL     1      22.075   4.191  26.902  0.00  0.00    +0.120 A 
ATOM     39  N   UNL     1      22.965   4.399  27.952  0.00  0.00    -0.263 NA
ATOM     40  C   UNL     1      24.271   3.888  27.946  0.00  0.00    +0.111 A 
ENDBRANCH   4   3
ENDBRANCH  10   9
BRANCH  12  13
ATOM     13  N   UNL     1      14.373   1.972  22.008  0.00  0.00    -0.281 N 
ATOM     14  C   UNL     1      14.049   2.808  20.952  0.00  0.00    +0.248 C 
ATOM     30  O   UNL     1      14.826   3.138  20.068  0.00  0.00    -0.270 OA
ATOM     31  H   UNL     1      13.699   1.935  22.773  0.00  0.00    +0.155 HD
BRANCH  14  15
ATOM     15  C   UNL     1      12.666   3.370  20.873  0.00  0.00    +0.037 A 
ATOM     16  C   UNL     1      12.413   4.684  20.277  0.00  0.00    +0.013 A 
ATOM     17  C   UNL     1      11.071   5.210  20.230  0.00  0.00    +0.005 A 
ATOM     18  C   UNL     1       9.972   4.419  20.779  0.00  0.00    -0.033 A 
ATOM     28  C   UNL     1      10.252   3.117  21.360  0.00  0.00    +0.005 A 
ATOM     29  C   UNL     1      11.565   2.598  21.409  0.00  0.00    +0.013 A 
BRANCH  18  19
ATOM     19  C   UNL     1       8.513   4.911  20.790  0.00  0.00    +0.119 C 
BRANCH  19  20
ATOM     20  N   UNL     1       8.273   6.332  21.181  0.00  0.00    -0.302 NA
ATOM     21  C   UNL     1       8.514   6.565  22.675  0.00  0.00    +0.066 C 
ATOM     22  C   UNL     1       8.280   8.062  23.063  0.00  0.00    -0.064 C 
ATOM     23  N   UNL     1       6.858   8.471  22.673  0.00  0.00    +0.379 N 
ATOM     24  C   UNL     1       6.616   9.860  23.088  0.00  0.00    -0.096 C 
ATOM     25  H   UNL     1       6.152   7.820  23.240  0.00  0.00    -0.082 HD
ATOM     26  C   UNL     1       6.609   8.239  21.189  0.00  0.00    -0.064 C 
ATOM     27  C   UNL     1       6.873   6.755  20.809  0.00  0.00    +0.066 C 
ENDBRANCH  19  20
ENDBRANCH  18  19
ENDBRANCH  14  15
ENDBRANCH  12  13
TORSDOF 6
ENDMDL
