MODEL 1
REMARK VINA RESULT:      -9.7      0.000      0.000
REMARK  Name = C:\Users\Docking\Desktop\test protocol\1iep_ligandH.pdb
REMARK  8 active torsions:
REMARK  status: ('A' for Active; 'I' for Inactive)
REMARK    1  A    between atoms: _5  and  _11
REMARK    2  A    between atoms: _19  and  _21
REMARK    3  A    between atoms: _22  and  _66
REMARK    4  A    between atoms: _27  and  _30
REMARK    5  A    between atoms: _32  and  _33
REMARK    6  A    between atoms: _38  and  _43
REMARK    7  A    between atoms: _43  and  _46
REMARK    8  A    between atoms: _53  and  _55
REMARK                            x       y       z     vdW  Elec       q    Type
REMARK                         _______ _______ _______ _____ _____    ______ ____
ROOT
ATOM     10  C   UNL     1      -4.409  -3.184  -1.552  0.00  0.00    +0.038 A 
ATOM     11  C   UNL     1      -3.070  -3.194  -2.021  0.00  0.00    +0.047 A 
ATOM     12  C   UNL     1      -1.987  -2.653  -1.215  0.00  0.00    +0.035 A 
ATOM     32  C   UNL     1      -2.302  -2.111   0.065  0.00  0.00    +0.024 A 
ATOM     33  C   UNL     1      -3.658  -2.092   0.557  0.00  0.00    +0.007 A 
ATOM     34  C   UNL     1      -4.731  -2.622  -0.235  0.00  0.00    -0.029 A 
ATOM     35  C   UNL     1      -6.166  -2.570   0.340  0.00  0.00    +0.045 C 
ENDROOT
BRANCH  10   9
ATOM      4  C   UNL     1      -7.034  -6.859  -3.177  0.00  0.00    +0.077 A 
ATOM      5  C   UNL     1      -6.334  -7.801  -2.352  0.00  0.00    +0.048 A 
ATOM      6  C   UNL     1      -5.300  -7.300  -1.529  0.00  0.00    +0.116 A 
ATOM      7  N   UNL     1      -4.998  -5.956  -1.538  0.00  0.00    -0.223 NA
ATOM      8  C   UNL     1      -5.692  -5.075  -2.347  0.00  0.00    +0.220 A 
ATOM      9  N   UNL     1      -5.410  -3.717  -2.367  0.00  0.00    -0.283 N 
ATOM     36  H   UNL     1      -5.939  -3.101  -2.983  0.00  0.00    +0.155 HD
ATOM     37  N   UNL     1      -6.682  -5.528  -3.143  0.00  0.00    -0.214 NA
BRANCH   4   3
ATOM      1  C   UNL     1     -10.383  -6.806  -5.198  0.00  0.00    +0.020 A 
ATOM      2  C   UNL     1      -9.330  -6.398  -4.296  0.00  0.00    +0.013 A 
ATOM      3  C   UNL     1      -8.153  -7.234  -4.098  0.00  0.00    +0.019 A 
ATOM     38  C   UNL     1      -8.071  -8.487  -4.834  0.00  0.00    +0.120 A 
ATOM     39  N   UNL     1      -9.101  -8.855  -5.694  0.00  0.00    -0.263 NA
ATOM     40  C   UNL     1     -10.239  -8.059  -5.892  0.00  0.00    +0.111 A 
ENDBRANCH   4   3
ENDBRANCH  10   9
BRANCH  12  13
ATOM     13  N   UNL     1      -0.610  -2.628  -1.642  0.00  0.00    -0.281 N 
ATOM     14  C   UNL     1       0.433  -3.426  -1.200  0.00  0.00    +0.248 C 
ATOM     30  O   UNL     1       0.384  -4.143  -0.212  0.00  0.00    -0.270 OA
ATOM     31  H   UNL     1      -0.375  -1.939  -2.356  0.00  0.00    +0.155 HD
BRANCH  14  15
ATOM     15  C   UNL     1       1.721  -3.416  -1.958  0.00  0.00    +0.037 A 
ATOM     16  C   UNL     1       2.014  -2.372  -2.944  0.00  0.00    +0.013 A 
ATOM     17  C   UNL     1       3.257  -2.396  -3.674  0.00  0.00    +0.005 A 
ATOM     18  C   UNL     1       4.218  -3.466  -3.419  0.00  0.00    -0.033 A 
ATOM     28  C   UNL     1       3.903  -4.486  -2.431  0.00  0.00    +0.005 A 
ATOM     29  C   UNL     1       2.686  -4.467  -1.715  0.00  0.00    +0.013 A 
BRANCH  18  19
ATOM     19  C   UNL     1       5.559  -3.582  -4.166  0.00  0.00    +0.119 C 
BRANCH  19  20
ATOM     20  N   UNL     1       5.728  -4.741  -5.092  0.00  0.00    -0.302 NA
ATOM     21  C   UNL     1       5.983  -6.048  -4.337  0.00  0.00    +0.066 C 
ATOM     22  C   UNL     1       6.135  -7.254  -5.320  0.00  0.00    -0.064 C 
ATOM     23  N   UNL     1       7.271  -6.967  -6.303  0.00  0.00    +0.379 N 
ATOM     24  C   UNL     1       7.455  -8.123  -7.192  0.00  0.00    -0.096 C 
ATOM     25  H   UNL     1       8.208  -6.843  -5.711  0.00  0.00    -0.082 HD
ATOM     26  C   UNL     1       7.028  -5.667  -7.057  0.00  0.00    -0.064 C 
ATOM     27  C   UNL     1       6.849  -4.480  -6.069  0.00  0.00    +0.066 C 
ENDBRANCH  19  20
ENDBRANCH  18  19
ENDBRANCH  14  15
ENDBRANCH  12  13
TORSDOF 6
ENDMDL
MODEL 2
REMARK VINA RESULT:      -9.5      1.992     11.500
REMARK  Name = C:\Users\Docking\Desktop\test protocol\1iep_ligandH.pdb
REMARK  8 active torsions:
REMARK  status: ('A' for Active; 'I' for Inactive)
REMARK    1  A    between atoms: _5  and  _11
REMARK    2  A    between atoms: _19  and  _21
REMARK    3  A    between atoms: _22  and  _66
REMARK    4  A    between atoms: _27  and  _30
REMARK    5  A    between atoms: _32  and  _33
REMARK    6  A    between atoms: _38  and  _43
REMARK    7  A    between atoms: _43  and  _46
REMARK    8  A    between atoms: _53  and  _55
REMARK                            x       y       z     vdW  Elec       q    Type
REMARK                         _______ _______ _______ _____ _____    ______ ____
ROOT
ATOM     10  C   UNL     1       1.686  -5.150  -0.367  0.00  0.00    +0.038 A 
ATOM     11  C   UNL     1       0.317  -5.088  -0.736  0.00  0.00    +0.047 A 
ATOM     12  C   UNL     1      -0.689  -4.585   0.187  0.00  0.00    +0.035 A 
ATOM     32  C   UNL     1      -0.265  -4.150   1.477  0.00  0.00    +0.024 A 
ATOM     33  C   UNL     1       1.121  -4.208   1.868  0.00  0.00    +0.007 A 
ATOM     34  C   UNL     1       2.117  -4.705   0.964  0.00  0.00    -0.029 A 
ATOM     35  C   UNL     1       3.588  -4.750   1.440  0.00  0.00    +0.045 C 
ENDROOT
BRANCH  10   9
ATOM      4  C   UNL     1       4.683  -4.575  -4.071  0.00  0.00    +0.077 A 
ATOM      5  C   UNL     1       4.362  -3.182  -4.191  0.00  0.00    +0.048 A 
ATOM      6  C   UNL     1       3.415  -2.654  -3.284  0.00  0.00    +0.116 A 
ATOM      7  N   UNL     1       2.839  -3.467  -2.333  0.00  0.00    -0.223 NA
ATOM      8  C   UNL     1       3.170  -4.807  -2.246  0.00  0.00    +0.220 A 
ATOM      9  N   UNL     1       2.609  -5.642  -1.292  0.00  0.00    -0.283 N 
ATOM     36  H   UNL     1       2.874  -6.627  -1.265  0.00  0.00    +0.155 HD
ATOM     37  N   UNL     1       4.070  -5.336  -3.101  0.00  0.00    -0.214 NA
BRANCH   4   3
ATOM      1  C   UNL     1       7.445  -5.305  -6.743  0.00  0.00    +0.020 A 
ATOM      2  C   UNL     1       6.510  -4.579  -5.915  0.00  0.00    +0.013 A 
ATOM      3  C   UNL     1       5.667  -5.278  -4.954  0.00  0.00    +0.019 A 
ATOM     38  C   UNL     1       5.795  -6.724  -4.854  0.00  0.00    +0.120 A 
ATOM     39  N   UNL     1       6.702  -7.397  -5.666  0.00  0.00    -0.263 NA
ATOM     40  C   UNL     1       7.518  -6.735  -6.596  0.00  0.00    +0.111 A 
ENDBRANCH   4   3
ENDBRANCH  10   9
BRANCH  12  13
ATOM     13  N   UNL     1      -2.093  -4.506  -0.129  0.00  0.00    -0.281 N 
ATOM     14  C   UNL     1      -2.736  -3.570  -0.923  0.00  0.00    +0.248 C 
ATOM     30  O   UNL     1      -2.229  -2.529  -1.312  0.00  0.00    -0.270 OA
ATOM     31  H   UNL     1      -2.685  -5.227   0.283  0.00  0.00    +0.155 HD
BRANCH  14  15
ATOM     15  C   UNL     1      -4.151  -3.822  -1.333  0.00  0.00    +0.037 A 
ATOM     16  C   UNL     1      -5.151  -4.285  -0.367  0.00  0.00    +0.013 A 
ATOM     17  C   UNL     1      -6.505  -4.536  -0.792  0.00  0.00    +0.005 A 
ATOM     18  C   UNL     1      -6.868  -4.322  -2.191  0.00  0.00    -0.033 A 
ATOM     28  C   UNL     1      -5.858  -3.856  -3.127  0.00  0.00    +0.005 A 
ATOM     29  C   UNL     1      -4.529  -3.611  -2.714  0.00  0.00    +0.013 A 
BRANCH  18  19
ATOM     19  C   UNL     1      -8.284  -4.585  -2.737  0.00  0.00    +0.119 C 
BRANCH  19  20
ATOM     20  N   UNL     1      -8.452  -5.731  -3.680  0.00  0.00    -0.302 NA
ATOM     21  C   UNL     1      -9.746  -6.506  -3.416  0.00  0.00    +0.066 C 
ATOM     22  C   UNL     1      -9.916  -7.688  -4.425  0.00  0.00    -0.064 C 
ATOM     23  N   UNL     1      -8.702  -8.614  -4.333  0.00  0.00    +0.379 N 
ATOM     24  C   UNL     1      -8.886  -9.757  -5.238  0.00  0.00    -0.096 C 
ATOM     25  H   UNL     1      -8.658  -9.010  -3.292  0.00  0.00    -0.082 HD
ATOM     26  C   UNL     1      -7.411  -7.850  -4.590  0.00  0.00    -0.064 C 
ATOM     27  C   UNL     1      -7.266  -6.660  -3.601  0.00  0.00    +0.066 C 
ENDBRANCH  19  20
ENDBRANCH  18  19
ENDBRANCH  14  15
ENDBRANCH  12  13
TORSDOF 6
ENDMDL
MODEL 3
REMARK VINA RESULT:      -9.5      1.943     11.435
REMARK  Name = C:\Users\Docking\Desktop\test protocol\1iep_ligandH.pdb
REMARK  8 active torsions:
REMARK  status: ('A' for Active; 'I' for Inactive)
REMARK    1  A    between atoms: _5  and  _11
REMARK    2  A    between atoms: _19  and  _21
REMARK    3  A    between atoms: _22  and  _66
REMARK    4  A    between atoms: _27  and  _30
REMARK    5  A    between atoms: _32  and  _33
REMARK    6  A    between atoms: _38  and  _43
REMARK    7  A    between atoms: _43  and  _46
REMARK    8  A    between atoms: _53  and  _55
REMARK                            x       y       z     vdW  Elec       q    Type
REMARK                         _______ _______ _______ _____ _____    ______ ____
ROOT
ATOM     10  C   UNL     1       2.302  -5.409  -0.392  0.00  0.00    +0.038 A 
ATOM     11  C   UNL     1       0.933  -5.259  -0.734  0.00  0.00    +0.047 A 
ATOM     12  C   UNL     1      -0.021  -4.697   0.210  0.00  0.00    +0.035 A 
ATOM     32  C   UNL     1       0.454  -4.296   1.492  0.00  0.00    +0.024 A 
ATOM     33  C   UNL     1       1.841  -4.442   1.857  0.00  0.00    +0.007 A 
ATOM     34  C   UNL     1       2.786  -4.997   0.931  0.00  0.00    -0.029 A 
ATOM     35  C   UNL     1       4.260  -5.137   1.378  0.00  0.00    +0.045 C 
ENDROOT
BRANCH  10   9
ATOM      4  C   UNL     1       5.097  -5.048  -4.277  0.00  0.00    +0.077 A 
ATOM      5  C   UNL     1       4.770  -3.662  -4.456  0.00  0.00    +0.048 A 
ATOM      6  C   UNL     1       3.874  -3.082  -3.531  0.00  0.00    +0.116 A 
ATOM      7  N   UNL     1       3.349  -3.840  -2.506  0.00  0.00    -0.223 NA
ATOM      8  C   UNL     1       3.684  -5.174  -2.363  0.00  0.00    +0.220 A 
ATOM      9  N   UNL     1       3.174  -5.954  -1.336  0.00  0.00    -0.283 N 
ATOM     36  H   UNL     1       3.440  -6.936  -1.270  0.00  0.00    +0.155 HD
ATOM     37  N   UNL     1       4.537  -5.752  -3.235  0.00  0.00    -0.214 NA
BRANCH   4   3
ATOM      1  C   UNL     1       7.887  -5.920  -6.876  0.00  0.00    +0.020 A 
ATOM      2  C   UNL     1       7.007  -5.145  -6.032  0.00  0.00    +0.013 A 
ATOM      3  C   UNL     1       6.032  -5.802  -5.171  0.00  0.00    +0.019 A 
ATOM     38  C   UNL     1       5.973  -7.256  -5.186  0.00  0.00    +0.120 A 
ATOM     39  N   UNL     1       6.833  -7.976  -6.010  0.00  0.00    -0.263 NA
ATOM     40  C   UNL     1       7.774  -7.355  -6.844  0.00  0.00    +0.111 A 
ENDBRANCH   4   3
ENDBRANCH  10   9
BRANCH  12  13
ATOM     13  N   UNL     1      -1.423  -4.528  -0.078  0.00  0.00    -0.281 N 
ATOM     14  C   UNL     1      -2.035  -3.481  -0.747  0.00  0.00    +0.248 C 
ATOM     30  O   UNL     1      -1.491  -2.420  -1.015  0.00  0.00    -0.270 OA
ATOM     31  H   UNL     1      -2.040  -5.271   0.251  0.00  0.00    +0.155 HD
BRANCH  14  15
ATOM     15  C   UNL     1      -3.462  -3.628  -1.168  0.00  0.00    +0.037 A 
ATOM     16  C   UNL     1      -4.501  -4.014  -0.209  0.00  0.00    +0.013 A 
ATOM     17  C   UNL     1      -5.867  -4.166  -0.645  0.00  0.00    +0.005 A 
ATOM     18  C   UNL     1      -6.202  -3.929  -2.047  0.00  0.00    -0.033 A 
ATOM     28  C   UNL     1      -5.152  -3.542  -2.975  0.00  0.00    +0.005 A 
ATOM     29  C   UNL     1      -3.813  -3.393  -2.552  0.00  0.00    +0.013 A 
BRANCH  18  19
ATOM     19  C   UNL     1      -7.629  -4.088  -2.604  0.00  0.00    +0.119 C 
BRANCH  19  20
ATOM     20  N   UNL     1      -8.034  -5.448  -3.068  0.00  0.00    -0.302 NA
ATOM     21  C   UNL     1      -6.840  -6.403  -3.162  0.00  0.00    +0.066 C 
ATOM     22  C   UNL     1      -7.286  -7.827  -3.627  0.00  0.00    -0.064 C 
ATOM     23  N   UNL     1      -8.001  -7.720  -4.975  0.00  0.00    +0.379 N 
ATOM     24  C   UNL     1      -8.370  -9.064  -5.443  0.00  0.00    -0.096 C 
ATOM     25  H   UNL     1      -7.278  -7.293  -5.709  0.00  0.00    -0.082 HD
ATOM     26  C   UNL     1      -9.188  -6.771  -4.892  0.00  0.00    -0.064 C 
ATOM     27  C   UNL     1      -8.739  -5.366  -4.400  0.00  0.00    +0.066 C 
ENDBRANCH  19  20
ENDBRANCH  18  19
ENDBRANCH  14  15
ENDBRANCH  12  13
TORSDOF 6
ENDMDL
MODEL 4
REMARK VINA RESULT:      -9.3      2.666      4.164
REMARK  Name = C:\Users\Docking\Desktop\test protocol\1iep_ligandH.pdb
REMARK  8 active torsions:
REMARK  status: ('A' for Active; 'I' for Inactive)
REMARK    1  A    between atoms: _5  and  _11
REMARK    2  A    between atoms: _19  and  _21
REMARK    3  A    between atoms: _22  and  _66
REMARK    4  A    between atoms: _27  and  _30
REMARK    5  A    between atoms: _32  and  _33
REMARK    6  A    between atoms: _38  and  _43
REMARK    7  A    between atoms: _43  and  _46
REMARK    8  A    between atoms: _53  and  _55
REMARK                            x       y       z     vdW  Elec       q    Type
REMARK                         _______ _______ _______ _____ _____    ______ ____
ROOT
ATOM     10  C   UNL     1      -6.801  -5.633  -1.501  0.00  0.00    +0.038 A 
ATOM     11  C   UNL     1      -5.463  -5.469  -1.942  0.00  0.00    +0.047 A 
ATOM     12  C   UNL     1      -4.722  -4.248  -1.660  0.00  0.00    +0.035 A 
ATOM     32  C   UNL     1      -5.376  -3.217  -0.925  0.00  0.00    +0.024 A 
ATOM     33  C   UNL     1      -6.736  -3.367  -0.471  0.00  0.00    +0.007 A 
ATOM     34  C   UNL     1      -7.472  -4.567  -0.748  0.00  0.00    -0.029 A 
ATOM     35  C   UNL     1      -8.929  -4.670  -0.242  0.00  0.00    +0.045 C 
ENDROOT
BRANCH  10   9
ATOM      4  C   UNL     1      -9.594  -8.331  -4.321  0.00  0.00    +0.077 A 
ATOM      5  C   UNL     1      -9.769  -7.267  -5.267  0.00  0.00    +0.048 A 
ATOM      6  C   UNL     1      -9.129  -6.039  -4.987  0.00  0.00    +0.116 A 
ATOM      7  N   UNL     1      -8.373  -5.897  -3.844  0.00  0.00    -0.223 NA
ATOM      8  C   UNL     1      -8.226  -6.943  -2.952  0.00  0.00    +0.220 A 
ATOM      9  N   UNL     1      -7.464  -6.825  -1.800  0.00  0.00    -0.283 N 
ATOM     36  H   UNL     1      -7.387  -7.618  -1.163  0.00  0.00    +0.155 HD
ATOM     37  N   UNL     1      -8.829  -8.126  -3.195  0.00  0.00    -0.214 NA
BRANCH   4   3
ATOM      1  C   UNL     1     -10.871 -11.696  -5.855  0.00  0.00    +0.020 A 
ATOM      2  C   UNL     1     -10.271 -10.385  -5.758  0.00  0.00    +0.013 A 
ATOM      3  C   UNL     1     -10.205  -9.690  -4.478  0.00  0.00    +0.019 A 
ATOM     38  C   UNL     1     -10.757 -10.354  -3.308  0.00  0.00    +0.120 A 
ATOM     39  N   UNL     1     -11.330 -11.616  -3.432  0.00  0.00    -0.263 NA
ATOM     40  C   UNL     1     -11.401 -12.294  -4.658  0.00  0.00    +0.111 A 
ENDBRANCH   4   3
ENDBRANCH  10   9
BRANCH  12  13
ATOM     13  N   UNL     1      -3.364  -4.021  -2.088  0.00  0.00    -0.281 N 
ATOM     14  C   UNL     1      -2.900  -3.066  -2.978  0.00  0.00    +0.248 C 
ATOM     30  O   UNL     1      -3.616  -2.396  -3.707  0.00  0.00    -0.270 OA
ATOM     31  H   UNL     1      -2.660  -4.640  -1.687  0.00  0.00    +0.155 HD
BRANCH  14  15
ATOM     15  C   UNL     1      -1.428  -2.832  -3.082  0.00  0.00    +0.037 A 
ATOM     16  C   UNL     1      -0.856  -2.080  -4.202  0.00  0.00    +0.013 A 
ATOM     17  C   UNL     1       0.570  -1.883  -4.288  0.00  0.00    +0.005 A 
ATOM     18  C   UNL     1       1.433  -2.438  -3.248  0.00  0.00    -0.033 A 
ATOM     28  C   UNL     1       0.839  -3.175  -2.145  0.00  0.00    +0.005 A 
ATOM     29  C   UNL     1      -0.558  -3.371  -2.059  0.00  0.00    +0.013 A 
BRANCH  18  19
ATOM     19  C   UNL     1       2.967  -2.295  -3.270  0.00  0.00    +0.119 C 
BRANCH  19  20
ATOM     20  N   UNL     1       3.751  -3.201  -2.378  0.00  0.00    -0.302 NA
ATOM     21  C   UNL     1       4.278  -2.473  -1.139  0.00  0.00    +0.066 C 
ATOM     22  C   UNL     1       5.076  -3.441  -0.206  0.00  0.00    -0.064 C 
ATOM     23  N   UNL     1       6.226  -4.070  -0.994  0.00  0.00    +0.379 N 
ATOM     24  C   UNL     1       7.014  -4.936  -0.105  0.00  0.00    -0.096 C 
ATOM     25  H   UNL     1       6.891  -3.244  -1.339  0.00  0.00    -0.082 HD
ATOM     26  C   UNL     1       5.712  -4.794  -2.230  0.00  0.00    -0.064 C 
ATOM     27  C   UNL     1       4.894  -3.830  -3.135  0.00  0.00    +0.066 C 
ENDBRANCH  19  20
ENDBRANCH  18  19
ENDBRANCH  14  15
ENDBRANCH  12  13
TORSDOF 6
ENDMDL
MODEL 5
REMARK VINA RESULT:      -9.1      3.091     12.525
REMARK  Name = C:\Users\Docking\Desktop\test protocol\1iep_ligandH.pdb
REMARK  8 active torsions:
REMARK  status: ('A' for Active; 'I' for Inactive)
REMARK    1  A    between atoms: _5  and  _11
REMARK    2  A    between atoms: _19  and  _21
REMARK    3  A    between atoms: _22  and  _66
REMARK    4  A    between atoms: _27  and  _30
REMARK    5  A    between atoms: _32  and  _33
REMARK    6  A    between atoms: _38  and  _43
REMARK    7  A    between atoms: _43  and  _46
REMARK    8  A    between atoms: _53  and  _55
REMARK                            x       y       z     vdW  Elec       q    Type
REMARK                         _______ _______ _______ _____ _____    ______ ____
ROOT
ATOM     10  C   UNL     1       1.586  -2.741  -2.140  0.00  0.00    +0.038 A 
ATOM     11  C   UNL     1       0.391  -3.421  -1.794  0.00  0.00    +0.047 A 
ATOM     12  C   UNL     1      -0.788  -3.350  -2.643  0.00  0.00    +0.035 A 
ATOM     32  C   UNL     1      -0.713  -2.580  -3.840  0.00  0.00    +0.024 A 
ATOM     33  C   UNL     1       0.494  -1.881  -4.207  0.00  0.00    +0.007 A 
ATOM     34  C   UNL     1       1.659  -1.945  -3.372  0.00  0.00    -0.029 A 
ATOM     35  C   UNL     1       2.923  -1.171  -3.812  0.00  0.00    +0.045 C 
ENDROOT
BRANCH  10   9
ATOM      4  C   UNL     1       5.822  -4.633  -0.907  0.00  0.00    +0.077 A 
ATOM      5  C   UNL     1       5.827  -5.510  -2.042  0.00  0.00    +0.048 A 
ATOM      6  C   UNL     1       4.718  -5.449  -2.915  0.00  0.00    +0.116 A 
ATOM      7  N   UNL     1       3.686  -4.571  -2.662  0.00  0.00    -0.223 NA
ATOM      8  C   UNL     1       3.711  -3.739  -1.558  0.00  0.00    +0.220 A 
ATOM      9  N   UNL     1       2.688  -2.843  -1.288  0.00  0.00    -0.283 N 
ATOM     36  H   UNL     1       2.741  -2.252  -0.459  0.00  0.00    +0.155 HD
ATOM     37  N   UNL     1       4.759  -3.780  -0.708  0.00  0.00    -0.214 NA
BRANCH   4   3
ATOM      1  C   UNL     1       8.745  -3.369   1.364  0.00  0.00    +0.020 A 
ATOM      2  C   UNL     1       7.690  -3.369   0.376  0.00  0.00    +0.013 A 
ATOM      3  C   UNL     1       6.924  -4.578   0.105  0.00  0.00    +0.019 A 
ATOM     38  C   UNL     1       7.251  -5.780   0.856  0.00  0.00    +0.120 A 
ATOM     39  N   UNL     1       8.273  -5.751   1.800  0.00  0.00    -0.263 NA
ATOM     40  C   UNL     1       9.019  -4.594   2.069  0.00  0.00    +0.111 A 
ENDBRANCH   4   3
ENDBRANCH  10   9
BRANCH  12  13
ATOM     13  N   UNL     1      -2.032  -4.012  -2.339  0.00  0.00    -0.281 N 
ATOM     14  C   UNL     1      -3.308  -3.472  -2.342  0.00  0.00    +0.248 C 
ATOM     30  O   UNL     1      -3.551  -2.275  -2.399  0.00  0.00    -0.270 OA
ATOM     31  H   UNL     1      -1.965  -5.000  -2.092  0.00  0.00    +0.155 HD
BRANCH  14  15
ATOM     15  C   UNL     1      -4.482  -4.392  -2.253  0.00  0.00    +0.037 A 
ATOM     16  C   UNL     1      -5.713  -4.127  -3.003  0.00  0.00    +0.013 A 
ATOM     17  C   UNL     1      -6.837  -5.022  -2.887  0.00  0.00    +0.005 A 
ATOM     18  C   UNL     1      -6.735  -6.191  -2.017  0.00  0.00    -0.033 A 
ATOM     28  C   UNL     1      -5.501  -6.432  -1.288  0.00  0.00    +0.005 A 
ATOM     29  C   UNL     1      -4.397  -5.557  -1.399  0.00  0.00    +0.013 A 
BRANCH  18  19
ATOM     19  C   UNL     1      -7.892  -7.188  -1.816  0.00  0.00    +0.119 C 
BRANCH  19  20
ATOM     20  N   UNL     1      -8.283  -8.026  -2.988  0.00  0.00    -0.302 NA
ATOM     21  C   UNL     1      -9.549  -7.502  -3.672  0.00  0.00    +0.066 C 
ATOM     22  C   UNL     1      -9.931  -8.378  -4.910  0.00  0.00    -0.064 C 
ATOM     23  N   UNL     1     -10.118  -9.829  -4.465  0.00  0.00    +0.379 N 
ATOM     24  C   UNL     1     -10.534 -10.645  -5.615  0.00  0.00    -0.096 C 
ATOM     25  H   UNL     1     -10.945  -9.850  -3.718  0.00  0.00    -0.082 HD
ATOM     26  C   UNL     1      -8.865 -10.358  -3.780  0.00  0.00    -0.064 C 
ATOM     27  C   UNL     1      -8.477  -9.463  -2.570  0.00  0.00    +0.066 C 
ENDBRANCH  19  20
ENDBRANCH  18  19
ENDBRANCH  14  15
ENDBRANCH  12  13
TORSDOF 6
ENDMDL
