MODEL 1
REMARK VINA RESULT:      -7.0      0.000      0.000
REMARK  Name = C:\Users\Docking\Desktop\test protocol\1iep_ligandH.pdb
REMARK  8 active torsions:
REMARK  status: ('A' for Active; 'I' for Inactive)
REMARK    1  A    between atoms: _5  and  _11
REMARK    2  A    between atoms: _19  and  _21
REMARK    3  A    between atoms: _22  and  _66
REMARK    4  A    between atoms: _27  and  _30
REMARK    5  A    between atoms: _32  and  _33
REMARK    6  A    between atoms: _38  and  _43
REMARK    7  A    between atoms: _43  and  _46
REMARK    8  A    between atoms: _53  and  _55
REMARK                            x       y       z     vdW  Elec       q    Type
REMARK                         _______ _______ _______ _____ _____    ______ ____
ROOT
ATOM     10  C   UNL     1     -19.035  -7.281  19.895  0.00  0.00    +0.038 A 
ATOM     11  C   UNL     1     -18.346  -6.163  19.358  0.00  0.00    +0.047 A 
ATOM     12  C   UNL     1     -18.940  -4.836  19.372  0.00  0.00    +0.035 A 
ATOM     32  C   UNL     1     -20.237  -4.682  19.943  0.00  0.00    +0.024 A 
ATOM     33  C   UNL     1     -20.952  -5.807  20.493  0.00  0.00    +0.007 A 
ATOM     34  C   UNL     1     -20.372  -7.120  20.479  0.00  0.00    -0.029 A 
ATOM     35  C   UNL     1     -21.186  -8.291  21.076  0.00  0.00    +0.045 C 
ENDROOT
BRANCH  10   9
ATOM      4  C   UNL     1     -15.962 -10.541  21.618  0.00  0.00    +0.077 A 
ATOM      5  C   UNL     1     -15.532  -9.666  22.670  0.00  0.00    +0.048 A 
ATOM      6  C   UNL     1     -16.121  -8.383  22.728  0.00  0.00    +0.116 A 
ATOM      7  N   UNL     1     -17.068  -8.013  21.799  0.00  0.00    -0.223 NA
ATOM      8  C   UNL     1     -17.460  -8.881  20.796  0.00  0.00    +0.220 A 
ATOM      9  N   UNL     1     -18.417  -8.533  19.855  0.00  0.00    -0.283 N 
ATOM     36  H   UNL     1     -18.673  -9.199  19.126  0.00  0.00    +0.155 HD
ATOM     37  N   UNL     1     -16.911 -10.111  20.717  0.00  0.00    -0.214 NA
BRANCH   4   3
ATOM      1  C   UNL     1     -15.070 -14.307  22.185  0.00  0.00    +0.020 A 
ATOM      2  C   UNL     1     -15.597 -12.983  22.420  0.00  0.00    +0.013 A 
ATOM      3  C   UNL     1     -15.436 -11.929  21.425  0.00  0.00    +0.019 A 
ATOM     38  C   UNL     1     -14.731 -12.252  20.194  0.00  0.00    +0.120 A 
ATOM     39  N   UNL     1     -14.233 -13.536  19.996  0.00  0.00    -0.263 NA
ATOM     40  C   UNL     1     -14.380 -14.557  20.946  0.00  0.00    +0.111 A 
ENDBRANCH   4   3
ENDBRANCH  10   9
BRANCH  12  13
ATOM     13  N   UNL     1     -18.293  -3.665  18.834  0.00  0.00    -0.281 N 
ATOM     14  C   UNL     1     -18.480  -3.084  17.591  0.00  0.00    +0.248 C 
ATOM     30  O   UNL     1     -19.081  -3.609  16.665  0.00  0.00    -0.270 OA
ATOM     31  H   UNL     1     -17.613  -3.210  19.444  0.00  0.00    +0.155 HD
BRANCH  14  15
ATOM     15  C   UNL     1     -17.904  -1.728  17.333  0.00  0.00    +0.037 A 
ATOM     16  C   UNL     1     -16.465  -1.481  17.445  0.00  0.00    +0.013 A 
ATOM     17  C   UNL     1     -15.938  -0.160  17.208  0.00  0.00    +0.005 A 
ATOM     18  C   UNL     1     -16.852   0.923  16.855  0.00  0.00    -0.033 A 
ATOM     28  C   UNL     1     -18.275   0.649  16.747  0.00  0.00    +0.005 A 
ATOM     29  C   UNL     1     -18.796  -0.644  16.979  0.00  0.00    +0.013 A 
BRANCH  18  19
ATOM     19  C   UNL     1     -16.380   2.368  16.606  0.00  0.00    +0.119 C 
BRANCH  19  20
ATOM     20  N   UNL     1     -14.968   2.697  16.962  0.00  0.00    -0.302 NA
ATOM     21  C   UNL     1     -14.836   3.169  18.413  0.00  0.00    +0.066 C 
ATOM     22  C   UNL     1     -13.349   3.487  18.775  0.00  0.00    -0.064 C 
ATOM     23  N   UNL     1     -12.807   4.544  17.811  0.00  0.00    +0.379 N 
ATOM     24  C   UNL     1     -11.428   4.888  18.185  0.00  0.00    -0.096 C 
ATOM     25  H   UNL     1     -13.429   5.461  17.931  0.00  0.00    -0.082 HD
ATOM     26  C   UNL     1     -12.937   4.085  16.366  0.00  0.00    -0.064 C 
ATOM     27  C   UNL     1     -14.414   3.742  16.025  0.00  0.00    +0.066 C 
ENDBRANCH  19  20
ENDBRANCH  18  19
ENDBRANCH  14  15
ENDBRANCH  12  13
TORSDOF 6
ENDMDL
MODEL 2
REMARK VINA RESULT:      -6.8     32.962     37.870
REMARK  Name = C:\Users\Docking\Desktop\test protocol\1iep_ligandH.pdb
REMARK  8 active torsions:
REMARK  status: ('A' for Active; 'I' for Inactive)
REMARK    1  A    between atoms: _5  and  _11
REMARK    2  A    between atoms: _19  and  _21
REMARK    3  A    between atoms: _22  and  _66
REMARK    4  A    between atoms: _27  and  _30
REMARK    5  A    between atoms: _32  and  _33
REMARK    6  A    between atoms: _38  and  _43
REMARK    7  A    between atoms: _43  and  _46
REMARK    8  A    between atoms: _53  and  _55
REMARK                            x       y       z     vdW  Elec       q    Type
REMARK                         _______ _______ _______ _____ _____    ______ ____
ROOT
ATOM     10  C   UNL     1      12.140   9.084   6.795  0.00  0.00    +0.038 A 
ATOM     11  C   UNL     1      12.897   9.948   5.963  0.00  0.00    +0.047 A 
ATOM     12  C   UNL     1      12.267  11.047   5.249  0.00  0.00    +0.035 A 
ATOM     32  C   UNL     1      10.864  11.239   5.407  0.00  0.00    +0.024 A 
ATOM     33  C   UNL     1      10.079  10.370   6.248  0.00  0.00    +0.007 A 
ATOM     34  C   UNL     1      10.695   9.282   6.953  0.00  0.00    -0.029 A 
ATOM     35  C   UNL     1       9.803   8.378   7.835  0.00  0.00    +0.045 C 
ENDROOT
BRANCH  10   9
ATOM      4  C   UNL     1      14.209   4.754   6.872  0.00  0.00    +0.077 A 
ATOM      5  C   UNL     1      13.936   4.533   5.482  0.00  0.00    +0.048 A 
ATOM      6  C   UNL     1      13.254   5.555   4.784  0.00  0.00    +0.116 A 
ATOM      7  N   UNL     1      12.880   6.708   5.438  0.00  0.00    -0.223 NA
ATOM      8  C   UNL     1      13.157   6.889   6.781  0.00  0.00    +0.220 A 
ATOM      9  N   UNL     1      12.797   8.044   7.457  0.00  0.00    -0.283 N 
ATOM     36  H   UNL     1      13.013   8.136   8.450  0.00  0.00    +0.155 HD
ATOM     37  N   UNL     1      13.806   5.927   7.470  0.00  0.00    -0.214 NA
BRANCH   4   3
ATOM      1  C   UNL     1      15.432   2.717   9.981  0.00  0.00    +0.020 A 
ATOM      2  C   UNL     1      14.716   3.688   9.184  0.00  0.00    +0.013 A 
ATOM      3  C   UNL     1      14.924   3.768   7.744  0.00  0.00    +0.019 A 
ATOM     38  C   UNL     1      15.870   2.845   7.136  0.00  0.00    +0.120 A 
ATOM     39  N   UNL     1      16.546   1.922   7.928  0.00  0.00    -0.263 NA
ATOM     40  C   UNL     1      16.355   1.837   9.315  0.00  0.00    +0.111 A 
ENDBRANCH   4   3
ENDBRANCH  10   9
BRANCH  12  13
ATOM     13  N   UNL     1      12.983  11.952   4.384  0.00  0.00    -0.281 N 
ATOM     14  C   UNL     1      13.299  11.781   3.046  0.00  0.00    +0.248 C 
ATOM     30  O   UNL     1      13.198  10.723   2.442  0.00  0.00    -0.270 OA
ATOM     31  H   UNL     1      13.295  12.825   4.810  0.00  0.00    +0.155 HD
BRANCH  14  15
ATOM     15  C   UNL     1      13.814  12.950   2.270  0.00  0.00    +0.037 A 
ATOM     16  C   UNL     1      13.095  13.462   1.101  0.00  0.00    +0.013 A 
ATOM     17  C   UNL     1      13.623  14.580   0.360  0.00  0.00    +0.005 A 
ATOM     18  C   UNL     1      14.877  15.195   0.788  0.00  0.00    -0.033 A 
ATOM     28  C   UNL     1      15.567  14.670   1.955  0.00  0.00    +0.005 A 
ATOM     29  C   UNL     1      15.053  13.573   2.683  0.00  0.00    +0.013 A 
BRANCH  18  19
ATOM     19  C   UNL     1      15.525  16.378   0.045  0.00  0.00    +0.119 C 
BRANCH  19  20
ATOM     20  N   UNL     1      17.016  16.395  -0.046  0.00  0.00    -0.302 NA
ATOM     21  C   UNL     1      17.636  17.460   0.862  0.00  0.00    +0.066 C 
ATOM     22  C   UNL     1      19.196  17.448   0.771  0.00  0.00    -0.064 C 
ATOM     23  N   UNL     1      19.621  17.663  -0.683  0.00  0.00    +0.379 N 
ATOM     24  C   UNL     1      21.088  17.710  -0.763  0.00  0.00    -0.096 C 
ATOM     25  H   UNL     1      19.232  18.656  -1.005  0.00  0.00    -0.082 HD
ATOM     26  C   UNL     1      19.007  16.609  -1.594  0.00  0.00    -0.064 C 
ATOM     27  C   UNL     1      17.457  16.610  -1.473  0.00  0.00    +0.066 C 
ENDBRANCH  19  20
ENDBRANCH  18  19
ENDBRANCH  14  15
ENDBRANCH  12  13
TORSDOF 6
ENDMDL
MODEL 3
REMARK VINA RESULT:      -6.7     29.249     36.006
REMARK  Name = C:\Users\Docking\Desktop\test protocol\1iep_ligandH.pdb
REMARK  8 active torsions:
REMARK  status: ('A' for Active; 'I' for Inactive)
REMARK    1  A    between atoms: _5  and  _11
REMARK    2  A    between atoms: _19  and  _21
REMARK    3  A    between atoms: _22  and  _66
REMARK    4  A    between atoms: _27  and  _30
REMARK    5  A    between atoms: _32  and  _33
REMARK    6  A    between atoms: _38  and  _43
REMARK    7  A    between atoms: _43  and  _46
REMARK    8  A    between atoms: _53  and  _55
REMARK                            x       y       z     vdW  Elec       q    Type
REMARK                         _______ _______ _______ _____ _____    ______ ____
ROOT
ATOM     10  C   UNL     1      11.198   8.830   7.012  0.00  0.00    +0.038 A 
ATOM     11  C   UNL     1      11.818   9.398   5.870  0.00  0.00    +0.047 A 
ATOM     12  C   UNL     1      12.045  10.832   5.771  0.00  0.00    +0.035 A 
ATOM     32  C   UNL     1      11.628  11.658   6.855  0.00  0.00    +0.024 A 
ATOM     33  C   UNL     1      10.995  11.098   8.023  0.00  0.00    +0.007 A 
ATOM     34  C   UNL     1      10.767   9.684   8.125  0.00  0.00    -0.029 A 
ATOM     35  C   UNL     1      10.077   9.140   9.398  0.00  0.00    +0.045 C 
ENDROOT
BRANCH  10   9
ATOM      4  C   UNL     1       8.525   4.906   6.314  0.00  0.00    +0.077 A 
ATOM      5  C   UNL     1       7.407   5.677   5.851  0.00  0.00    +0.048 A 
ATOM      6  C   UNL     1       7.559   7.081   5.815  0.00  0.00    +0.116 A 
ATOM      7  N   UNL     1       8.744   7.660   6.213  0.00  0.00    -0.223 NA
ATOM      8  C   UNL     1       9.802   6.887   6.656  0.00  0.00    +0.220 A 
ATOM      9  N   UNL     1      11.005   7.448   7.054  0.00  0.00    -0.283 N 
ATOM     36  H   UNL     1      11.759   6.844   7.381  0.00  0.00    +0.155 HD
ATOM     37  N   UNL     1       9.681   5.544   6.702  0.00  0.00    -0.214 NA
BRANCH   4   3
ATOM      1  C   UNL     1       7.362   1.171   6.344  0.00  0.00    +0.020 A 
ATOM      2  C   UNL     1       7.312   2.611   6.245  0.00  0.00    +0.013 A 
ATOM      3  C   UNL     1       8.520   3.411   6.407  0.00  0.00    +0.019 A 
ATOM     38  C   UNL     1       9.772   2.717   6.668  0.00  0.00    +0.120 A 
ATOM     39  N   UNL     1       9.789   1.329   6.759  0.00  0.00    -0.263 NA
ATOM     40  C   UNL     1       8.633   0.549   6.608  0.00  0.00    +0.111 A 
ENDBRANCH   4   3
ENDBRANCH  10   9
BRANCH  12  13
ATOM     13  N   UNL     1      12.662  11.466   4.633  0.00  0.00    -0.281 N 
ATOM     14  C   UNL     1      12.041  12.115   3.578  0.00  0.00    +0.248 C 
ATOM     30  O   UNL     1      10.843  12.062   3.344  0.00  0.00    -0.270 OA
ATOM     31  H   UNL     1      13.682  11.433   4.601  0.00  0.00    +0.155 HD
BRANCH  14  15
ATOM     15  C   UNL     1      12.874  12.928   2.640  0.00  0.00    +0.037 A 
ATOM     16  C   UNL     1      14.324  13.040   2.813  0.00  0.00    +0.013 A 
ATOM     17  C   UNL     1      15.101  13.844   1.904  0.00  0.00    +0.005 A 
ATOM     18  C   UNL     1      14.428  14.543   0.812  0.00  0.00    -0.033 A 
ATOM     28  C   UNL     1      12.988  14.411   0.661  0.00  0.00    +0.005 A 
ATOM     29  C   UNL     1      12.223  13.624   1.550  0.00  0.00    +0.013 A 
BRANCH  18  19
ATOM     19  C   UNL     1      15.174  15.441  -0.193  0.00  0.00    +0.119 C 
BRANCH  19  20
ATOM     20  N   UNL     1      16.544  15.901   0.187  0.00  0.00    -0.302 NA
ATOM     21  C   UNL     1      16.503  17.092   1.148  0.00  0.00    +0.066 C 
ATOM     22  C   UNL     1      17.944  17.546   1.553  0.00  0.00    -0.064 C 
ATOM     23  N   UNL     1      18.739  17.893   0.293  0.00  0.00    +0.379 N 
ATOM     24  C   UNL     1      20.075  18.375   0.674  0.00  0.00    -0.096 C 
ATOM     25  H   UNL     1      18.211  18.730  -0.220  0.00  0.00    -0.082 HD
ATOM     26  C   UNL     1      18.782  16.715  -0.669  0.00  0.00    -0.064 C 
ATOM     27  C   UNL     1      17.345  16.253  -1.042  0.00  0.00    +0.066 C 
ENDBRANCH  19  20
ENDBRANCH  18  19
ENDBRANCH  14  15
ENDBRANCH  12  13
TORSDOF 6
ENDMDL
MODEL 4
REMARK VINA RESULT:      -6.6     33.342     36.855
REMARK  Name = C:\Users\Docking\Desktop\test protocol\1iep_ligandH.pdb
REMARK  8 active torsions:
REMARK  status: ('A' for Active; 'I' for Inactive)
REMARK    1  A    between atoms: _5  and  _11
REMARK    2  A    between atoms: _19  and  _21
REMARK    3  A    between atoms: _22  and  _66
REMARK    4  A    between atoms: _27  and  _30
REMARK    5  A    between atoms: _32  and  _33
REMARK    6  A    between atoms: _38  and  _43
REMARK    7  A    between atoms: _43  and  _46
REMARK    8  A    between atoms: _53  and  _55
REMARK                            x       y       z     vdW  Elec       q    Type
REMARK                         _______ _______ _______ _____ _____    ______ ____
ROOT
ATOM     10  C   UNL     1      12.411   9.456   7.168  0.00  0.00    +0.038 A 
ATOM     11  C   UNL     1      12.662  10.201   5.988  0.00  0.00    +0.047 A 
ATOM     12  C   UNL     1      11.918  11.416   5.693  0.00  0.00    +0.035 A 
ATOM     32  C   UNL     1      10.928  11.845   6.625  0.00  0.00    +0.024 A 
ATOM     33  C   UNL     1      10.659  11.098   7.829  0.00  0.00    +0.007 A 
ATOM     34  C   UNL     1      11.388   9.897   8.123  0.00  0.00    -0.029 A 
ATOM     35  C   UNL     1      11.054   9.134   9.426  0.00  0.00    +0.045 C 
ENDROOT
BRANCH  10   9
ATOM      4  C   UNL     1      13.245   4.768   6.559  0.00  0.00    +0.077 A 
ATOM      5  C   UNL     1      12.085   4.609   5.730  0.00  0.00    +0.048 A 
ATOM      6  C   UNL     1      11.297   5.757   5.490  0.00  0.00    +0.116 A 
ATOM      7  N   UNL     1      11.652   6.968   6.043  0.00  0.00    -0.223 NA
ATOM      8  C   UNL     1      12.775   7.087   6.840  0.00  0.00    +0.220 A 
ATOM      9  N   UNL     1      13.155   8.296   7.400  0.00  0.00    -0.283 N 
ATOM     36  H   UNL     1      13.987   8.341   7.989  0.00  0.00    +0.155 HD
ATOM     37  N   UNL     1      13.544   6.005   7.085  0.00  0.00    -0.214 NA
BRANCH   4   3
ATOM      1  C   UNL     1      15.813   2.492   8.436  0.00  0.00    +0.020 A 
ATOM      2  C   UNL     1      14.924   3.595   8.154  0.00  0.00    +0.013 A 
ATOM      3  C   UNL     1      14.179   3.650   6.902  0.00  0.00    +0.019 A 
ATOM     38  C   UNL     1      14.358   2.563   5.950  0.00  0.00    +0.120 A 
ATOM     39  N   UNL     1      15.222   1.515   6.249  0.00  0.00    -0.263 NA
ATOM     40  C   UNL     1      15.946   1.452   7.449  0.00  0.00    +0.111 A 
ENDBRANCH   4   3
ENDBRANCH  10   9
BRANCH  12  13
ATOM     13  N   UNL     1      12.123  12.211   4.508  0.00  0.00    -0.281 N 
ATOM     14  C   UNL     1      11.354  12.235   3.356  0.00  0.00    +0.248 C 
ATOM     30  O   UNL     1      10.488  11.416   3.085  0.00  0.00    -0.270 OA
ATOM     31  H   UNL     1      12.934  12.830   4.519  0.00  0.00    +0.155 HD
BRANCH  14  15
ATOM     15  C   UNL     1      11.590  13.318   2.353  0.00  0.00    +0.037 A 
ATOM     16  C   UNL     1      10.610  14.388   2.145  0.00  0.00    +0.013 A 
ATOM     17  C   UNL     1      10.854  15.411   1.159  0.00  0.00    +0.005 A 
ATOM     18  C   UNL     1      12.086  15.369   0.375  0.00  0.00    -0.033 A 
ATOM     28  C   UNL     1      13.043  14.300   0.605  0.00  0.00    +0.005 A 
ATOM     29  C   UNL     1      12.807  13.295   1.570  0.00  0.00    +0.013 A 
BRANCH  18  19
ATOM     19  C   UNL     1      12.420  16.407  -0.713  0.00  0.00    +0.119 C 
BRANCH  19  20
ATOM     20  N   UNL     1      13.824  16.913  -0.768  0.00  0.00    -0.302 NA
ATOM     21  C   UNL     1      14.146  17.842   0.406  0.00  0.00    +0.066 C 
ATOM     22  C   UNL     1      15.626  18.344   0.345  0.00  0.00    -0.064 C 
ATOM     23  N   UNL     1      15.867  19.053  -0.989  0.00  0.00    +0.379 N 
ATOM     24  C   UNL     1      17.240  19.576  -1.025  0.00  0.00    -0.096 C 
ATOM     25  H   UNL     1      15.171  19.923  -1.040  0.00  0.00    -0.082 HD
ATOM     26  C   UNL     1      15.546  18.137  -2.162  0.00  0.00    -0.064 C 
ATOM     27  C   UNL     1      14.082  17.620  -2.076  0.00  0.00    +0.066 C 
ENDBRANCH  19  20
ENDBRANCH  18  19
ENDBRANCH  14  15
ENDBRANCH  12  13
TORSDOF 6
ENDMDL
MODEL 5
REMARK VINA RESULT:      -6.6     13.921     15.461
REMARK  Name = C:\Users\Docking\Desktop\test protocol\1iep_ligandH.pdb
REMARK  8 active torsions:
REMARK  status: ('A' for Active; 'I' for Inactive)
REMARK    1  A    between atoms: _5  and  _11
REMARK    2  A    between atoms: _19  and  _21
REMARK    3  A    between atoms: _22  and  _66
REMARK    4  A    between atoms: _27  and  _30
REMARK    5  A    between atoms: _32  and  _33
REMARK    6  A    between atoms: _38  and  _43
REMARK    7  A    between atoms: _43  and  _46
REMARK    8  A    between atoms: _53  and  _55
REMARK                            x       y       z     vdW  Elec       q    Type
REMARK                         _______ _______ _______ _____ _____    ______ ____
ROOT
ATOM     10  C   UNL     1      -6.514  -4.455  28.915  0.00  0.00    +0.038 A 
ATOM     11  C   UNL     1      -7.091  -3.164  29.022  0.00  0.00    +0.047 A 
ATOM     12  C   UNL     1      -7.893  -2.791  30.177  0.00  0.00    +0.035 A 
ATOM     32  C   UNL     1      -8.084  -3.758  31.207  0.00  0.00    +0.024 A 
ATOM     33  C   UNL     1      -7.506  -5.075  31.114  0.00  0.00    +0.007 A 
ATOM     34  C   UNL     1      -6.716  -5.449  29.976  0.00  0.00    -0.029 A 
ATOM     35  C   UNL     1      -6.125  -6.878  29.927  0.00  0.00    +0.045 C 
ENDROOT
BRANCH  10   9
ATOM      4  C   UNL     1      -2.347  -4.632  26.539  0.00  0.00    +0.077 A 
ATOM      5  C   UNL     1      -1.630  -4.044  27.634  0.00  0.00    +0.048 A 
ATOM      6  C   UNL     1      -2.372  -3.704  28.788  0.00  0.00    +0.116 A 
ATOM      7  N   UNL     1      -3.729  -3.939  28.832  0.00  0.00    -0.223 NA
ATOM      8  C   UNL     1      -4.390  -4.506  27.758  0.00  0.00    +0.220 A 
ATOM      9  N   UNL     1      -5.753  -4.759  27.784  0.00  0.00    -0.283 N 
ATOM     36  H   UNL     1      -6.205  -5.172  26.969  0.00  0.00    +0.155 HD
ATOM     37  N   UNL     1      -3.704  -4.839  26.645  0.00  0.00    -0.214 NA
BRANCH   4   3
ATOM      1  C   UNL     1       0.189  -5.010  23.585  0.00  0.00    +0.020 A 
ATOM      2  C   UNL     1      -0.389  -4.576  24.837  0.00  0.00    +0.013 A 
ATOM      3  C   UNL     1      -1.703  -5.049  25.254  0.00  0.00    +0.019 A 
ATOM     38  C   UNL     1      -2.411  -5.967  24.375  0.00  0.00    +0.120 A 
ATOM     39  N   UNL     1      -1.831  -6.366  23.175  0.00  0.00    -0.263 NA
ATOM     40  C   UNL     1      -0.568  -5.917  22.763  0.00  0.00    +0.111 A 
ENDBRANCH   4   3
ENDBRANCH  10   9
BRANCH  12  13
ATOM     13  N   UNL     1      -8.510  -1.498  30.337  0.00  0.00    -0.281 N 
ATOM     14  C   UNL     1      -9.796  -1.120  29.988  0.00  0.00    +0.248 C 
ATOM     30  O   UNL     1     -10.545  -1.783  29.285  0.00  0.00    -0.270 OA
ATOM     31  H   UNL     1      -7.929  -0.774  30.758  0.00  0.00    +0.155 HD
BRANCH  14  15
ATOM     15  C   UNL     1     -10.321   0.191  30.477  0.00  0.00    +0.037 A 
ATOM     16  C   UNL     1     -11.649   0.297  31.089  0.00  0.00    +0.013 A 
ATOM     17  C   UNL     1     -12.138   1.577  31.537  0.00  0.00    +0.005 A 
ATOM     18  C   UNL     1     -11.298   2.761  31.377  0.00  0.00    -0.033 A 
ATOM     28  C   UNL     1      -9.983   2.626  30.772  0.00  0.00    +0.005 A 
ATOM     29  C   UNL     1      -9.500   1.374  30.330  0.00  0.00    +0.013 A 
BRANCH  18  19
ATOM     19  C   UNL     1     -11.747   4.170  31.807  0.00  0.00    +0.119 C 
BRANCH  19  20
ATOM     20  N   UNL     1     -13.107   4.615  31.380  0.00  0.00    -0.302 NA
ATOM     21  C   UNL     1     -13.227   4.709  29.856  0.00  0.00    +0.066 C 
ATOM     22  C   UNL     1     -14.663   5.153  29.425  0.00  0.00    -0.064 C 
ATOM     23  N   UNL     1     -14.996   6.496  30.079  0.00  0.00    +0.379 N 
ATOM     24  C   UNL     1     -16.322   6.944  29.630  0.00  0.00    -0.096 C 
ATOM     25  H   UNL     1     -14.248   7.240  29.721  0.00  0.00    -0.082 HD
ATOM     26  C   UNL     1     -14.876   6.412  31.594  0.00  0.00    -0.064 C 
ATOM     27  C   UNL     1     -13.454   5.941  32.010  0.00  0.00    +0.066 C 
ENDBRANCH  19  20
ENDBRANCH  18  19
ENDBRANCH  14  15
ENDBRANCH  12  13
TORSDOF 6
ENDMDL
