MODEL 1
REMARK VINA RESULT:      -9.8      0.000      0.000
REMARK  Name = C:\Users\Docking\Desktop\test protocol\1iep_ligandH.pdb
REMARK  8 active torsions:
REMARK  status: ('A' for Active; 'I' for Inactive)
REMARK    1  A    between atoms: _5  and  _11
REMARK    2  A    between atoms: _19  and  _21
REMARK    3  A    between atoms: _22  and  _66
REMARK    4  A    between atoms: _27  and  _30
REMARK    5  A    between atoms: _32  and  _33
REMARK    6  A    between atoms: _38  and  _43
REMARK    7  A    between atoms: _43  and  _46
REMARK    8  A    between atoms: _53  and  _55
REMARK                            x       y       z     vdW  Elec       q    Type
REMARK                         _______ _______ _______ _____ _____    ______ ____
ROOT
ATOM     10  C   UNL     1       8.907  10.349  33.833  0.00  0.00    +0.038 A 
ATOM     11  C   UNL     1      10.112  11.062  34.059  0.00  0.00    +0.047 A 
ATOM     12  C   UNL     1      10.455  11.560  35.382  0.00  0.00    +0.035 A 
ATOM     32  C   UNL     1       9.549  11.311  36.454  0.00  0.00    +0.024 A 
ATOM     33  C   UNL     1       8.319  10.589  36.242  0.00  0.00    +0.007 A 
ATOM     34  C   UNL     1       7.974  10.098  34.939  0.00  0.00    -0.029 A 
ATOM     35  C   UNL     1       6.639   9.335  34.768  0.00  0.00    +0.045 C 
ENDROOT
BRANCH  10   9
ATOM      4  C   UNL     1       9.376   7.162  30.275  0.00  0.00    +0.077 A 
ATOM      5  C   UNL     1      10.275   6.349  31.043  0.00  0.00    +0.048 A 
ATOM      6  C   UNL     1      10.597   6.790  32.346  0.00  0.00    +0.116 A 
ATOM      7  N   UNL     1      10.054   7.958  32.835  0.00  0.00    -0.223 NA
ATOM      8  C   UNL     1       9.191   8.719  32.068  0.00  0.00    +0.220 A 
ATOM      9  N   UNL     1       8.627   9.894  32.543  0.00  0.00    -0.283 N 
ATOM     36  H   UNL     1       8.001  10.431  31.943  0.00  0.00    +0.155 HD
ATOM     37  N   UNL     1       8.869   8.321  30.820  0.00  0.00    -0.214 NA
BRANCH   4   3
ATOM      1  C   UNL     1       9.304   5.795  26.611  0.00  0.00    +0.020 A 
ATOM      2  C   UNL     1       9.776   6.093  27.944  0.00  0.00    +0.013 A 
ATOM      3  C   UNL     1       8.938   6.827  28.883  0.00  0.00    +0.019 A 
ATOM     38  C   UNL     1       7.617   7.249  28.440  0.00  0.00    +0.120 A 
ATOM     39  N   UNL     1       7.191   6.949  27.150  0.00  0.00    -0.263 NA
ATOM     40  C   UNL     1       7.989   6.244  26.236  0.00  0.00    +0.111 A 
ENDBRANCH   4   3
ENDBRANCH  10   9
BRANCH  12  13
ATOM     13  N   UNL     1      11.661  12.297  35.670  0.00  0.00    -0.281 N 
ATOM     14  C   UNL     1      12.958  11.816  35.732  0.00  0.00    +0.248 C 
ATOM     30  O   UNL     1      13.256  10.632  35.760  0.00  0.00    -0.270 OA
ATOM     31  H   UNL     1      11.543  13.294  35.849  0.00  0.00    +0.155 HD
BRANCH  14  15
ATOM     15  C   UNL     1      14.088  12.793  35.786  0.00  0.00    +0.037 A 
ATOM     16  C   UNL     1      14.468  13.447  37.041  0.00  0.00    +0.013 A 
ATOM     17  C   UNL     1      15.551  14.399  37.061  0.00  0.00    +0.005 A 
ATOM     18  C   UNL     1      16.263  14.700  35.822  0.00  0.00    -0.033 A 
ATOM     28  C   UNL     1      15.868  14.033  34.592  0.00  0.00    +0.005 A 
ATOM     29  C   UNL     1      14.807  13.101  34.568  0.00  0.00    +0.013 A 
BRANCH  18  19
ATOM     19  C   UNL     1      17.417  15.718  35.746  0.00  0.00    +0.119 C 
BRANCH  19  20
ATOM     20  N   UNL     1      17.057  17.166  35.803  0.00  0.00    -0.302 NA
ATOM     21  C   UNL     1      15.594  17.410  35.419  0.00  0.00    +0.066 C 
ATOM     22  C   UNL     1      15.228  18.927  35.506  0.00  0.00    -0.064 C 
ATOM     23  N   UNL     1      16.166  19.728  34.601  0.00  0.00    +0.379 N 
ATOM     24  C   UNL     1      15.788  21.148  34.636  0.00  0.00    -0.096 C 
ATOM     25  H   UNL     1      16.021  19.364  33.557  0.00  0.00    -0.082 HD
ATOM     26  C   UNL     1      17.623  19.489  34.974  0.00  0.00    -0.064 C 
ATOM     27  C   UNL     1      17.968  17.975  34.913  0.00  0.00    +0.066 C 
ENDBRANCH  19  20
ENDBRANCH  18  19
ENDBRANCH  14  15
ENDBRANCH  12  13
TORSDOF 6
ENDMDL
MODEL 2
REMARK VINA RESULT:      -9.7      7.187     10.213
REMARK  Name = C:\Users\Docking\Desktop\test protocol\1iep_ligandH.pdb
REMARK  8 active torsions:
REMARK  status: ('A' for Active; 'I' for Inactive)
REMARK    1  A    between atoms: _5  and  _11
REMARK    2  A    between atoms: _19  and  _21
REMARK    3  A    between atoms: _22  and  _66
REMARK    4  A    between atoms: _27  and  _30
REMARK    5  A    between atoms: _32  and  _33
REMARK    6  A    between atoms: _38  and  _43
REMARK    7  A    between atoms: _43  and  _46
REMARK    8  A    between atoms: _53  and  _55
REMARK                            x       y       z     vdW  Elec       q    Type
REMARK                         _______ _______ _______ _____ _____    ______ ____
ROOT
ATOM     10  C   UNL     1       6.428   9.758  36.650  0.00  0.00    +0.038 A 
ATOM     11  C   UNL     1       6.995  10.025  37.922  0.00  0.00    +0.047 A 
ATOM     12  C   UNL     1       6.330  10.902  38.874  0.00  0.00    +0.035 A 
ATOM     32  C   UNL     1       5.086  11.488  38.498  0.00  0.00    +0.024 A 
ATOM     33  C   UNL     1       4.496  11.228  37.208  0.00  0.00    +0.007 A 
ATOM     34  C   UNL     1       5.149  10.367  36.264  0.00  0.00    -0.029 A 
ATOM     35  C   UNL     1       4.473  10.129  34.894  0.00  0.00    +0.045 C 
ENDROOT
BRANCH  10   9
ATOM      4  C   UNL     1       9.474   8.975  33.025  0.00  0.00    +0.077 A 
ATOM      5  C   UNL     1       9.707  10.379  32.840  0.00  0.00    +0.048 A 
ATOM      6  C   UNL     1       9.018  11.269  33.693  0.00  0.00    +0.116 A 
ATOM      7  N   UNL     1       8.163  10.781  34.657  0.00  0.00    -0.223 NA
ATOM      8  C   UNL     1       7.959   9.422  34.808  0.00  0.00    +0.220 A 
ATOM      9  N   UNL     1       7.109   8.909  35.775  0.00  0.00    -0.283 N 
ATOM     36  H   UNL     1       6.980   7.900  35.850  0.00  0.00    +0.155 HD
ATOM     37  N   UNL     1       8.604   8.551  34.004  0.00  0.00    -0.214 NA
BRANCH   4   3
ATOM      1  C   UNL     1      12.021   6.315  31.708  0.00  0.00    +0.020 A 
ATOM      2  C   UNL     1      11.432   7.343  32.534  0.00  0.00    +0.013 A 
ATOM      3  C   UNL     1      10.131   7.910  32.203  0.00  0.00    +0.019 A 
ATOM     38  C   UNL     1       9.447   7.410  31.020  0.00  0.00    +0.120 A 
ATOM     39  N   UNL     1      10.040   6.421  30.242  0.00  0.00    -0.263 NA
ATOM     40  C   UNL     1      11.292   5.869  30.550  0.00  0.00    +0.111 A 
ENDBRANCH   4   3
ENDBRANCH  10   9
BRANCH  12  13
ATOM     13  N   UNL     1       6.862  11.216  40.177  0.00  0.00    -0.281 N 
ATOM     14  C   UNL     1       7.365  12.427  40.622  0.00  0.00    +0.248 C 
ATOM     30  O   UNL     1       7.633  13.373  39.896  0.00  0.00    -0.270 OA
ATOM     31  H   UNL     1       6.868  10.452  40.853  0.00  0.00    +0.155 HD
BRANCH  14  15
ATOM     15  C   UNL     1       7.622  12.610  42.083  0.00  0.00    +0.037 A 
ATOM     16  C   UNL     1       8.936  12.323  42.665  0.00  0.00    +0.013 A 
ATOM     17  C   UNL     1       9.152  12.491  44.080  0.00  0.00    +0.005 A 
ATOM     18  C   UNL     1       8.051  12.950  44.923  0.00  0.00    -0.033 A 
ATOM     28  C   UNL     1       6.759  13.232  44.319  0.00  0.00    +0.005 A 
ATOM     29  C   UNL     1       6.543  13.067  42.932  0.00  0.00    +0.013 A 
BRANCH  18  19
ATOM     19  C   UNL     1       8.185  13.137  46.446  0.00  0.00    +0.119 C 
BRANCH  19  20
ATOM     20  N   UNL     1       7.348  12.261  47.319  0.00  0.00    -0.302 NA
ATOM     21  C   UNL     1       6.183  13.027  47.953  0.00  0.00    +0.066 C 
ATOM     22  C   UNL     1       5.305  12.091  48.845  0.00  0.00    -0.064 C 
ATOM     23  N   UNL     1       6.180  11.448  49.922  0.00  0.00    +0.379 N 
ATOM     24  C   UNL     1       5.346  10.612  50.798  0.00  0.00    -0.096 C 
ATOM     25  H   UNL     1       6.608  12.269  50.544  0.00  0.00    -0.082 HD
ATOM     26  C   UNL     1       7.342  10.687  49.300  0.00  0.00    -0.064 C 
ATOM     27  C   UNL     1       8.192  11.619  48.393  0.00  0.00    +0.066 C 
ENDBRANCH  19  20
ENDBRANCH  18  19
ENDBRANCH  14  15
ENDBRANCH  12  13
TORSDOF 6
ENDMDL
MODEL 3
REMARK VINA RESULT:      -9.4      6.974      9.552
REMARK  Name = C:\Users\Docking\Desktop\test protocol\1iep_ligandH.pdb
REMARK  8 active torsions:
REMARK  status: ('A' for Active; 'I' for Inactive)
REMARK    1  A    between atoms: _5  and  _11
REMARK    2  A    between atoms: _19  and  _21
REMARK    3  A    between atoms: _22  and  _66
REMARK    4  A    between atoms: _27  and  _30
REMARK    5  A    between atoms: _32  and  _33
REMARK    6  A    between atoms: _38  and  _43
REMARK    7  A    between atoms: _43  and  _46
REMARK    8  A    between atoms: _53  and  _55
REMARK                            x       y       z     vdW  Elec       q    Type
REMARK                         _______ _______ _______ _____ _____    ______ ____
ROOT
ATOM     10  C   UNL     1       6.491   9.756  36.679  0.00  0.00    +0.038 A 
ATOM     11  C   UNL     1       6.851  10.037  38.022  0.00  0.00    +0.047 A 
ATOM     12  C   UNL     1       6.026  10.893  38.858  0.00  0.00    +0.035 A 
ATOM     32  C   UNL     1       4.838  11.446  38.296  0.00  0.00    +0.024 A 
ATOM     33  C   UNL     1       4.458  11.171  36.933  0.00  0.00    +0.007 A 
ATOM     34  C   UNL     1       5.270  10.329  36.101  0.00  0.00    -0.029 A 
ATOM     35  C   UNL     1       4.816  10.075  34.645  0.00  0.00    +0.045 C 
ENDROOT
BRANCH  10   9
ATOM      4  C   UNL     1      10.064   9.062  33.549  0.00  0.00    +0.077 A 
ATOM      5  C   UNL     1      10.279  10.472  33.391  0.00  0.00    +0.048 A 
ATOM      6  C   UNL     1       9.444  11.342  34.128  0.00  0.00    +0.116 A 
ATOM      7  N   UNL     1       8.470  10.829  34.958  0.00  0.00    -0.223 NA
ATOM      8  C   UNL     1       8.288   9.464  35.086  0.00  0.00    +0.220 A 
ATOM      9  N   UNL     1       7.321   8.927  35.920  0.00  0.00    -0.283 N 
ATOM     36  H   UNL     1       7.213   7.914  35.981  0.00  0.00    +0.155 HD
ATOM     37  N   UNL     1       9.072   8.613  34.392  0.00  0.00    -0.214 NA
BRANCH   4   3
ATOM      1  C   UNL     1      13.014   6.770  32.391  0.00  0.00    +0.020 A 
ATOM      2  C   UNL     1      12.284   7.794  33.102  0.00  0.00    +0.013 A 
ATOM      3  C   UNL     1      10.867   8.016  32.841  0.00  0.00    +0.019 A 
ATOM     38  C   UNL     1      10.214   7.178  31.847  0.00  0.00    +0.120 A 
ATOM     39  N   UNL     1      10.943   6.201  31.176  0.00  0.00    -0.263 NA
ATOM     40  C   UNL     1      12.307   5.979  31.418  0.00  0.00    +0.111 A 
ENDBRANCH   4   3
ENDBRANCH  10   9
BRANCH  12  13
ATOM     13  N   UNL     1       6.345  11.221  40.226  0.00  0.00    -0.281 N 
ATOM     14  C   UNL     1       7.272  12.140  40.688  0.00  0.00    +0.248 C 
ATOM     30  O   UNL     1       8.125  12.671  39.991  0.00  0.00    -0.270 OA
ATOM     31  H   UNL     1       5.824  10.712  40.941  0.00  0.00    +0.155 HD
BRANCH  14  15
ATOM     15  C   UNL     1       7.260  12.513  42.135  0.00  0.00    +0.037 A 
ATOM     16  C   UNL     1       6.002  12.741  42.851  0.00  0.00    +0.013 A 
ATOM     17  C   UNL     1       6.020  13.117  44.242  0.00  0.00    +0.005 A 
ATOM     18  C   UNL     1       7.301  13.266  44.928  0.00  0.00    -0.033 A 
ATOM     28  C   UNL     1       8.534  13.029  44.195  0.00  0.00    +0.005 A 
ATOM     29  C   UNL     1       8.521  12.661  42.831  0.00  0.00    +0.013 A 
BRANCH  18  19
ATOM     19  C   UNL     1       7.416  13.684  46.406  0.00  0.00    +0.119 C 
BRANCH  19  20
ATOM     20  N   UNL     1       6.804  14.989  46.796  0.00  0.00    -0.302 NA
ATOM     21  C   UNL     1       5.323  14.844  47.159  0.00  0.00    +0.066 C 
ATOM     22  C   UNL     1       4.705  16.215  47.587  0.00  0.00    -0.064 C 
ATOM     23  N   UNL     1       4.889  17.229  46.456  0.00  0.00    +0.379 N 
ATOM     24  C   UNL     1       4.258  18.503  46.832  0.00  0.00    -0.096 C 
ATOM     25  H   UNL     1       4.354  16.837  45.560  0.00  0.00    -0.082 HD
ATOM     26  C   UNL     1       6.358  17.377  46.087  0.00  0.00    -0.064 C 
ATOM     27  C   UNL     1       6.970  16.004  45.692  0.00  0.00    +0.066 C 
ENDBRANCH  19  20
ENDBRANCH  18  19
ENDBRANCH  14  15
ENDBRANCH  12  13
TORSDOF 6
ENDMDL
MODEL 4
REMARK VINA RESULT:      -9.4      9.568     16.336
REMARK  Name = C:\Users\Docking\Desktop\test protocol\1iep_ligandH.pdb
REMARK  8 active torsions:
REMARK  status: ('A' for Active; 'I' for Inactive)
REMARK    1  A    between atoms: _5  and  _11
REMARK    2  A    between atoms: _19  and  _21
REMARK    3  A    between atoms: _22  and  _66
REMARK    4  A    between atoms: _27  and  _30
REMARK    5  A    between atoms: _32  and  _33
REMARK    6  A    between atoms: _38  and  _43
REMARK    7  A    between atoms: _43  and  _46
REMARK    8  A    between atoms: _53  and  _55
REMARK                            x       y       z     vdW  Elec       q    Type
REMARK                         _______ _______ _______ _____ _____    ______ ____
ROOT
ATOM     10  C   UNL     1       3.421   7.311  31.379  0.00  0.00    +0.038 A 
ATOM     11  C   UNL     1       2.124   6.929  30.952  0.00  0.00    +0.047 A 
ATOM     12  C   UNL     1       0.933   7.483  31.577  0.00  0.00    +0.035 A 
ATOM     32  C   UNL     1       1.101   8.427  32.632  0.00  0.00    +0.024 A 
ATOM     33  C   UNL     1       2.412   8.826  33.079  0.00  0.00    +0.007 A 
ATOM     34  C   UNL     1       3.590   8.281  32.468  0.00  0.00    -0.029 A 
ATOM     35  C   UNL     1       4.971   8.740  32.992  0.00  0.00    +0.045 C 
ENDROOT
BRANCH  10   9
ATOM      4  C   UNL     1       7.545   7.673  28.950  0.00  0.00    +0.077 A 
ATOM      5  C   UNL     1       7.471   9.105  28.921  0.00  0.00    +0.048 A 
ATOM      6  C   UNL     1       6.352   9.710  29.536  0.00  0.00    +0.116 A 
ATOM      7  N   UNL     1       5.385   8.930  30.133  0.00  0.00    -0.223 NA
ATOM      8  C   UNL     1       5.487   7.551  30.142  0.00  0.00    +0.220 A 
ATOM      9  N   UNL     1       4.530   6.747  30.743  0.00  0.00    -0.283 N 
ATOM     36  H   UNL     1       4.638   5.734  30.722  0.00  0.00    +0.155 HD
ATOM     37  N   UNL     1       6.545   6.950  29.560  0.00  0.00    -0.214 NA
BRANCH   4   3
ATOM      1  C   UNL     1       9.832   5.789  26.396  0.00  0.00    +0.020 A 
ATOM      2  C   UNL     1       8.725   6.549  26.929  0.00  0.00    +0.013 A 
ATOM      3  C   UNL     1       8.668   6.888  28.346  0.00  0.00    +0.019 A 
ATOM     38  C   UNL     1       9.756   6.440  29.202  0.00  0.00    +0.120 A 
ATOM     39  N   UNL     1      10.808   5.708  28.661  0.00  0.00    -0.263 NA
ATOM     40  C   UNL     1      10.873   5.375  27.300  0.00  0.00    +0.111 A 
ENDBRANCH   4   3
ENDBRANCH  10   9
BRANCH  12  13
ATOM     13  N   UNL     1      -0.410   7.127  31.192  0.00  0.00    -0.281 N 
ATOM     14  C   UNL     1      -1.073   5.932  31.421  0.00  0.00    +0.248 C 
ATOM     30  O   UNL     1      -0.534   4.906  31.807  0.00  0.00    -0.270 OA
ATOM     31  H   UNL     1      -0.936   7.842  30.690  0.00  0.00    +0.155 HD
BRANCH  14  15
ATOM     15  C   UNL     1      -2.545   5.864  31.172  0.00  0.00    +0.037 A 
ATOM     16  C   UNL     1      -3.120   6.290  29.893  0.00  0.00    +0.013 A 
ATOM     17  C   UNL     1      -4.545   6.230  29.685  0.00  0.00    +0.005 A 
ATOM     18  C   UNL     1      -5.405   5.739  30.758  0.00  0.00    -0.033 A 
ATOM     28  C   UNL     1      -4.808   5.318  32.015  0.00  0.00    +0.005 A 
ATOM     29  C   UNL     1      -3.412   5.376  32.223  0.00  0.00    +0.013 A 
BRANCH  18  19
ATOM     19  C   UNL     1      -6.938   5.661  30.632  0.00  0.00    +0.119 C 
BRANCH  19  20
ATOM     20  N   UNL     1      -7.691   6.951  30.618  0.00  0.00    -0.302 NA
ATOM     21  C   UNL     1      -8.078   7.374  29.198  0.00  0.00    +0.066 C 
ATOM     22  C   UNL     1      -8.884   8.714  29.204  0.00  0.00    -0.064 C 
ATOM     23  N   UNL     1      -8.053   9.803  29.886  0.00  0.00    +0.379 N 
ATOM     24  C   UNL     1      -8.784  11.078  29.842  0.00  0.00    -0.096 C 
ATOM     25  H   UNL     1      -7.115   9.930  29.298  0.00  0.00    -0.082 HD
ATOM     26  C   UNL     1      -7.661   9.388  31.297  0.00  0.00    -0.064 C 
ATOM     27  C   UNL     1      -6.887   8.041  31.283  0.00  0.00    +0.066 C 
ENDBRANCH  19  20
ENDBRANCH  18  19
ENDBRANCH  14  15
ENDBRANCH  12  13
TORSDOF 6
ENDMDL
MODEL 5
REMARK VINA RESULT:      -9.4     10.038     17.227
REMARK  Name = C:\Users\Docking\Desktop\test protocol\1iep_ligandH.pdb
REMARK  8 active torsions:
REMARK  status: ('A' for Active; 'I' for Inactive)
REMARK    1  A    between atoms: _5  and  _11
REMARK    2  A    between atoms: _19  and  _21
REMARK    3  A    between atoms: _22  and  _66
REMARK    4  A    between atoms: _27  and  _30
REMARK    5  A    between atoms: _32  and  _33
REMARK    6  A    between atoms: _38  and  _43
REMARK    7  A    between atoms: _43  and  _46
REMARK    8  A    between atoms: _53  and  _55
REMARK                            x       y       z     vdW  Elec       q    Type
REMARK                         _______ _______ _______ _____ _____    ______ ____
ROOT
ATOM     10  C   UNL     1       3.435   7.366  31.400  0.00  0.00    +0.038 A 
ATOM     11  C   UNL     1       2.131   7.008  30.973  0.00  0.00    +0.047 A 
ATOM     12  C   UNL     1       0.949   7.569  31.610  0.00  0.00    +0.035 A 
ATOM     32  C   UNL     1       1.133   8.495  32.678  0.00  0.00    +0.024 A 
ATOM     33  C   UNL     1       2.452   8.870  33.125  0.00  0.00    +0.007 A 
ATOM     34  C   UNL     1       3.621   8.317  32.502  0.00  0.00    -0.029 A 
ATOM     35  C   UNL     1       5.009   8.750  33.027  0.00  0.00    +0.045 C 
ENDROOT
BRANCH  10   9
ATOM      4  C   UNL     1       7.528   7.707  28.917  0.00  0.00    +0.077 A 
ATOM      5  C   UNL     1       7.458   9.140  28.883  0.00  0.00    +0.048 A 
ATOM      6  C   UNL     1       6.348   9.750  29.511  0.00  0.00    +0.116 A 
ATOM      7  N   UNL     1       5.387   8.975  30.123  0.00  0.00    -0.223 NA
ATOM      8  C   UNL     1       5.484   7.595  30.135  0.00  0.00    +0.220 A 
ATOM      9  N   UNL     1       4.534   6.797  30.752  0.00  0.00    -0.283 N 
ATOM     36  H   UNL     1       4.638   5.783  30.733  0.00  0.00    +0.155 HD
ATOM     37  N   UNL     1       6.533   6.989  29.542  0.00  0.00    -0.214 NA
BRANCH   4   3
ATOM      1  C   UNL     1       9.808   5.860  26.330  0.00  0.00    +0.020 A 
ATOM      2  C   UNL     1       8.712   6.628  26.874  0.00  0.00    +0.013 A 
ATOM      3  C   UNL     1       8.640   6.917  28.301  0.00  0.00    +0.019 A 
ATOM     38  C   UNL     1       9.703   6.411  29.156  0.00  0.00    +0.120 A 
ATOM     39  N   UNL     1      10.746   5.673  28.604  0.00  0.00    -0.263 NA
ATOM     40  C   UNL     1      10.824   5.387  27.233  0.00  0.00    +0.111 A 
ENDBRANCH   4   3
ENDBRANCH  10   9
BRANCH  12  13
ATOM     13  N   UNL     1      -0.400   7.236  31.225  0.00  0.00    -0.281 N 
ATOM     14  C   UNL     1      -1.060   6.030  31.393  0.00  0.00    +0.248 C 
ATOM     30  O   UNL     1      -0.517   4.983  31.709  0.00  0.00    -0.270 OA
ATOM     31  H   UNL     1      -0.932   7.980  30.774  0.00  0.00    +0.155 HD
BRANCH  14  15
ATOM     15  C   UNL     1      -2.536   5.977  31.162  0.00  0.00    +0.037 A 
ATOM     16  C   UNL     1      -3.149   6.643  30.009  0.00  0.00    +0.013 A 
ATOM     17  C   UNL     1      -4.577   6.590  29.820  0.00  0.00    +0.005 A 
ATOM     18  C   UNL     1      -5.402   5.868  30.785  0.00  0.00    -0.033 A 
ATOM     28  C   UNL     1      -4.767   5.212  31.916  0.00  0.00    +0.005 A 
ATOM     29  C   UNL     1      -3.368   5.262  32.106  0.00  0.00    +0.013 A 
BRANCH  18  19
ATOM     19  C   UNL     1      -6.936   5.778  30.673  0.00  0.00    +0.119 C 
BRANCH  19  20
ATOM     20  N   UNL     1      -7.651   4.975  31.709  0.00  0.00    -0.302 NA
ATOM     21  C   UNL     1      -8.040   3.586  31.193  0.00  0.00    +0.066 C 
ATOM     22  C   UNL     1      -8.767   2.752  32.297  0.00  0.00    -0.064 C 
ATOM     23  N   UNL     1     -10.001   3.515  32.779  0.00  0.00    +0.379 N 
ATOM     24  C   UNL     1     -10.720   2.707  33.776  0.00  0.00    -0.096 C 
ATOM     25  H   UNL     1     -10.678   3.653  31.904  0.00  0.00    -0.082 HD
ATOM     26  C   UNL     1      -9.624   4.898  33.292  0.00  0.00    -0.064 C 
ATOM     27  C   UNL     1      -8.876   5.708  32.197  0.00  0.00    +0.066 C 
ENDBRANCH  19  20
ENDBRANCH  18  19
ENDBRANCH  14  15
ENDBRANCH  12  13
TORSDOF 6
ENDMDL
