MODEL 1
REMARK VINA RESULT:     -10.9      0.000      0.000
REMARK  Name = C:\Users\Docking\Desktop\test protocol\1iep_ligandH.pdb
REMARK  8 active torsions:
REMARK  status: ('A' for Active; 'I' for Inactive)
REMARK    1  A    between atoms: _5  and  _11
REMARK    2  A    between atoms: _19  and  _21
REMARK    3  A    between atoms: _22  and  _66
REMARK    4  A    between atoms: _27  and  _30
REMARK    5  A    between atoms: _32  and  _33
REMARK    6  A    between atoms: _38  and  _43
REMARK    7  A    between atoms: _43  and  _46
REMARK    8  A    between atoms: _53  and  _55
REMARK                            x       y       z     vdW  Elec       q    Type
REMARK                         _______ _______ _______ _____ _____    ______ ____
ROOT
ATOM     10  C   UNL     1       6.739  10.882  33.048  0.00  0.00    +0.038 A 
ATOM     11  C   UNL     1       7.894  10.198  33.507  0.00  0.00    +0.047 A 
ATOM     12  C   UNL     1       9.193  10.850  33.535  0.00  0.00    +0.035 A 
ATOM     32  C   UNL     1       9.281  12.202  33.090  0.00  0.00    +0.024 A 
ATOM     33  C   UNL     1       8.118  12.911  32.618  0.00  0.00    +0.007 A 
ATOM     34  C   UNL     1       6.833  12.272  32.586  0.00  0.00    -0.029 A 
ATOM     35  C   UNL     1       5.622  13.079  32.065  0.00  0.00    +0.045 C 
ENDROOT
BRANCH  10   9
ATOM      4  C   UNL     1       3.426   8.141  30.914  0.00  0.00    +0.077 A 
ATOM      5  C   UNL     1       4.183   8.070  29.698  0.00  0.00    +0.048 A 
ATOM      6  C   UNL     1       5.417   8.758  29.660  0.00  0.00    +0.116 A 
ATOM      7  N   UNL     1       5.851   9.462  30.762  0.00  0.00    -0.223 NA
ATOM      8  C   UNL     1       5.095   9.512  31.919  0.00  0.00    +0.220 A 
ATOM      9  N   UNL     1       5.516  10.207  33.043  0.00  0.00    -0.283 N 
ATOM     36  H   UNL     1       4.927  10.225  33.874  0.00  0.00    +0.155 HD
ATOM     37  N   UNL     1       3.913   8.864  31.980  0.00  0.00    -0.214 NA
BRANCH   4   3
ATOM      1  C   UNL     1       0.267   5.896  30.386  0.00  0.00    +0.020 A 
ATOM      2  C   UNL     1       1.547   6.522  30.148  0.00  0.00    +0.013 A 
ATOM      3  C   UNL     1       2.105   7.464  31.111  0.00  0.00    +0.019 A 
ATOM     38  C   UNL     1       1.338   7.751  32.313  0.00  0.00    +0.120 A 
ATOM     39  N   UNL     1       0.108   7.133  32.514  0.00  0.00    -0.263 NA
ATOM     40  C   UNL     1      -0.441   6.227  31.595  0.00  0.00    +0.111 A 
ENDBRANCH   4   3
ENDBRANCH  10   9
BRANCH  12  13
ATOM     13  N   UNL     1      10.402  10.204  33.984  0.00  0.00    -0.281 N 
ATOM     14  C   UNL     1      10.901  10.133  35.274  0.00  0.00    +0.248 C 
ATOM     30  O   UNL     1      10.490  10.800  36.212  0.00  0.00    -0.270 OA
ATOM     31  H   UNL     1      10.957   9.744  33.263  0.00  0.00    +0.155 HD
BRANCH  14  15
ATOM     15  C   UNL     1      12.028   9.194  35.562  0.00  0.00    +0.037 A 
ATOM     16  C   UNL     1      12.001   7.807  35.091  0.00  0.00    +0.013 A 
ATOM     17  C   UNL     1      13.094   6.918  35.396  0.00  0.00    +0.005 A 
ATOM     18  C   UNL     1      14.224   7.415  36.177  0.00  0.00    -0.033 A 
ATOM     28  C   UNL     1      14.228   8.797  36.627  0.00  0.00    +0.005 A 
ATOM     29  C   UNL     1      13.158   9.671  36.330  0.00  0.00    +0.013 A 
BRANCH  18  19
ATOM     19  C   UNL     1      15.424   6.531  36.568  0.00  0.00    +0.119 C 
BRANCH  19  20
ATOM     20  N   UNL     1      15.713   6.376  38.024  0.00  0.00    -0.302 NA
ATOM     21  C   UNL     1      17.174   6.692  38.357  0.00  0.00    +0.066 C 
ATOM     22  C   UNL     1      17.454   6.547  39.888  0.00  0.00    -0.064 C 
ATOM     23  N   UNL     1      17.089   5.131  40.338  0.00  0.00    +0.379 N 
ATOM     24  C   UNL     1      17.405   4.973  41.765  0.00  0.00    -0.096 C 
ATOM     25  H   UNL     1      17.731   4.419  39.769  0.00  0.00    -0.082 HD
ATOM     26  C   UNL     1      15.639   4.808  40.009  0.00  0.00    -0.064 C 
ATOM     27  C   UNL     1      15.364   4.984  38.489  0.00  0.00    +0.066 C 
ENDBRANCH  19  20
ENDBRANCH  18  19
ENDBRANCH  14  15
ENDBRANCH  12  13
TORSDOF 6
ENDMDL
MODEL 2
REMARK VINA RESULT:     -10.8      1.571      2.032
REMARK  Name = C:\Users\Docking\Desktop\test protocol\1iep_ligandH.pdb
REMARK  8 active torsions:
REMARK  status: ('A' for Active; 'I' for Inactive)
REMARK    1  A    between atoms: _5  and  _11
REMARK    2  A    between atoms: _19  and  _21
REMARK    3  A    between atoms: _22  and  _66
REMARK    4  A    between atoms: _27  and  _30
REMARK    5  A    between atoms: _32  and  _33
REMARK    6  A    between atoms: _38  and  _43
REMARK    7  A    between atoms: _43  and  _46
REMARK    8  A    between atoms: _53  and  _55
REMARK                            x       y       z     vdW  Elec       q    Type
REMARK                         _______ _______ _______ _____ _____    ______ ____
ROOT
ATOM     10  C   UNL     1       7.406   9.993  34.851  0.00  0.00    +0.038 A 
ATOM     11  C   UNL     1       8.543   9.192  35.127  0.00  0.00    +0.047 A 
ATOM     12  C   UNL     1       9.779   9.783  35.615  0.00  0.00    +0.035 A 
ATOM     32  C   UNL     1       9.821  11.194  35.814  0.00  0.00    +0.024 A 
ATOM     33  C   UNL     1       8.675  12.023  35.538  0.00  0.00    +0.007 A 
ATOM     34  C   UNL     1       7.453  11.446  35.053  0.00  0.00    -0.029 A 
ATOM     35  C   UNL     1       6.258  12.384  34.768  0.00  0.00    +0.045 C 
ENDROOT
BRANCH  10   9
ATOM      4  C   UNL     1       4.511   8.550  31.305  0.00  0.00    +0.077 A 
ATOM      5  C   UNL     1       5.371   9.102  30.298  0.00  0.00    +0.048 A 
ATOM      6  C   UNL     1       6.545   9.755  30.735  0.00  0.00    +0.116 A 
ATOM      7  N   UNL     1       6.828   9.844  32.081  0.00  0.00    -0.223 NA
ATOM      8  C   UNL     1       5.976   9.302  33.026  0.00  0.00    +0.220 A 
ATOM      9  N   UNL     1       6.245   9.372  34.384  0.00  0.00    -0.283 N 
ATOM     36  H   UNL     1       5.587   8.967  35.050  0.00  0.00    +0.155 HD
ATOM     37  N   UNL     1       4.848   8.674  32.634  0.00  0.00    -0.214 NA
BRANCH   4   3
ATOM      1  C   UNL     1       1.847   6.217  29.642  0.00  0.00    +0.020 A 
ATOM      2  C   UNL     1       3.101   6.890  29.893  0.00  0.00    +0.013 A 
ATOM      3  C   UNL     1       3.236   7.826  31.001  0.00  0.00    +0.019 A 
ATOM     38  C   UNL     1       2.074   8.061  31.845  0.00  0.00    +0.120 A 
ATOM     39  N   UNL     1       0.879   7.400  31.579  0.00  0.00    -0.263 NA
ATOM     40  C   UNL     1       0.737   6.498  30.514  0.00  0.00    +0.111 A 
ENDBRANCH   4   3
ENDBRANCH  10   9
BRANCH  12  13
ATOM     13  N   UNL     1      10.969   9.021  35.905  0.00  0.00    -0.281 N 
ATOM     14  C   UNL     1      11.788   8.349  35.013  0.00  0.00    +0.248 C 
ATOM     30  O   UNL     1      11.500   8.121  33.847  0.00  0.00    -0.270 OA
ATOM     31  H   UNL     1      11.240   8.972  36.887  0.00  0.00    +0.155 HD
BRANCH  14  15
ATOM     15  C   UNL     1      13.112   7.843  35.488  0.00  0.00    +0.037 A 
ATOM     16  C   UNL     1      13.695   6.614  34.944  0.00  0.00    +0.013 A 
ATOM     17  C   UNL     1      14.966   6.139  35.432  0.00  0.00    +0.005 A 
ATOM     18  C   UNL     1      15.662   6.896  36.470  0.00  0.00    -0.033 A 
ATOM     28  C   UNL     1      15.063   8.114  36.988  0.00  0.00    +0.005 A 
ATOM     29  C   UNL     1      13.817   8.582  36.513  0.00  0.00    +0.013 A 
BRANCH  18  19
ATOM     19  C   UNL     1      17.012   6.452  37.064  0.00  0.00    +0.119 C 
BRANCH  19  20
ATOM     20  N   UNL     1      16.975   5.670  38.336  0.00  0.00    -0.302 NA
ATOM     21  C   UNL     1      15.567   5.161  38.657  0.00  0.00    +0.066 C 
ATOM     22  C   UNL     1      15.550   4.326  39.979  0.00  0.00    -0.064 C 
ATOM     23  N   UNL     1      16.091   5.182  41.126  0.00  0.00    +0.379 N 
ATOM     24  C   UNL     1      16.023   4.419  42.381  0.00  0.00    -0.096 C 
ATOM     25  H   UNL     1      15.423   6.067  41.231  0.00  0.00    -0.082 HD
ATOM     26  C   UNL     1      17.490   5.694  40.814  0.00  0.00    -0.064 C 
ATOM     27  C   UNL     1      17.501   6.497  39.483  0.00  0.00    +0.066 C 
ENDBRANCH  19  20
ENDBRANCH  18  19
ENDBRANCH  14  15
ENDBRANCH  12  13
TORSDOF 6
ENDMDL
MODEL 3
REMARK VINA RESULT:     -10.5      1.762      2.170
REMARK  Name = C:\Users\Docking\Desktop\test protocol\1iep_ligandH.pdb
REMARK  8 active torsions:
REMARK  status: ('A' for Active; 'I' for Inactive)
REMARK    1  A    between atoms: _5  and  _11
REMARK    2  A    between atoms: _19  and  _21
REMARK    3  A    between atoms: _22  and  _66
REMARK    4  A    between atoms: _27  and  _30
REMARK    5  A    between atoms: _32  and  _33
REMARK    6  A    between atoms: _38  and  _43
REMARK    7  A    between atoms: _43  and  _46
REMARK    8  A    between atoms: _53  and  _55
REMARK                            x       y       z     vdW  Elec       q    Type
REMARK                         _______ _______ _______ _____ _____    ______ ____
ROOT
ATOM     10  C   UNL     1       5.436   9.851  33.831  0.00  0.00    +0.038 A 
ATOM     11  C   UNL     1       6.580   9.038  34.031  0.00  0.00    +0.047 A 
ATOM     12  C   UNL     1       7.905   9.622  34.166  0.00  0.00    +0.035 A 
ATOM     32  C   UNL     1       8.028  11.041  34.097  0.00  0.00    +0.024 A 
ATOM     33  C   UNL     1       6.876  11.883  33.893  0.00  0.00    +0.007 A 
ATOM     34  C   UNL     1       5.566  11.312  33.756  0.00  0.00    -0.029 A 
ATOM     35  C   UNL     1       4.367  12.262  33.533  0.00  0.00    +0.045 C 
ENDROOT
BRANCH  10   9
ATOM      4  C   UNL     1       2.144   7.424  31.319  0.00  0.00    +0.077 A 
ATOM      5  C   UNL     1       2.970   7.401  30.146  0.00  0.00    +0.048 A 
ATOM      6  C   UNL     1       4.232   8.032  30.229  0.00  0.00    +0.116 A 
ATOM      7  N   UNL     1       4.628   8.636  31.402  0.00  0.00    -0.223 NA
ATOM      8  C   UNL     1       3.807   8.642  32.514  0.00  0.00    +0.220 A 
ATOM      9  N   UNL     1       4.188   9.237  33.707  0.00  0.00    -0.283 N 
ATOM     36  H   UNL     1       3.550   9.226  34.503  0.00  0.00    +0.155 HD
ATOM     37  N   UNL     1       2.596   8.047  32.461  0.00  0.00    -0.214 NA
BRANCH   4   3
ATOM      1  C   UNL     1      -1.425   6.376  32.529  0.00  0.00    +0.020 A 
ATOM      2  C   UNL     1      -0.124   7.003  32.510  0.00  0.00    +0.013 A 
ATOM      3  C   UNL     1       0.786   6.797  31.390  0.00  0.00    +0.019 A 
ATOM     38  C   UNL     1       0.345   5.945  30.296  0.00  0.00    +0.120 A 
ATOM     39  N   UNL     1      -0.913   5.352  30.343  0.00  0.00    -0.263 NA
ATOM     40  C   UNL     1      -1.796   5.542  31.416  0.00  0.00    +0.111 A 
ENDBRANCH   4   3
ENDBRANCH  10   9
BRANCH  12  13
ATOM     13  N   UNL     1       9.104   8.846  34.363  0.00  0.00    -0.281 N 
ATOM     14  C   UNL     1       9.862   8.193  33.404  0.00  0.00    +0.248 C 
ATOM     30  O   UNL     1       9.502   7.998  32.253  0.00  0.00    -0.270 OA
ATOM     31  H   UNL     1       9.435   8.769  35.325  0.00  0.00    +0.155 HD
BRANCH  14  15
ATOM     15  C   UNL     1      11.209   7.666  33.784  0.00  0.00    +0.037 A 
ATOM     16  C   UNL     1      12.246   7.434  32.776  0.00  0.00    +0.013 A 
ATOM     17  C   UNL     1      13.530   6.910  33.167  0.00  0.00    +0.005 A 
ATOM     18  C   UNL     1      13.785   6.616  34.575  0.00  0.00    -0.033 A 
ATOM     28  C   UNL     1      12.740   6.860  35.555  0.00  0.00    +0.005 A 
ATOM     29  C   UNL     1      11.479   7.373  35.175  0.00  0.00    +0.013 A 
BRANCH  18  19
ATOM     19  C   UNL     1      15.119   6.034  35.080  0.00  0.00    +0.119 C 
BRANCH  19  20
ATOM     20  N   UNL     1      15.444   6.224  36.525  0.00  0.00    -0.302 NA
ATOM     21  C   UNL     1      16.879   6.720  36.730  0.00  0.00    +0.066 C 
ATOM     22  C   UNL     1      17.195   6.935  38.246  0.00  0.00    -0.064 C 
ATOM     23  N   UNL     1      16.960   5.627  39.004  0.00  0.00    +0.379 N 
ATOM     24  C   UNL     1      17.312   5.810  40.419  0.00  0.00    -0.096 C 
ATOM     25  H   UNL     1      17.651   4.862  38.579  0.00  0.00    -0.082 HD
ATOM     26  C   UNL     1      15.537   5.126  38.802  0.00  0.00    -0.064 C 
ATOM     27  C   UNL     1      15.223   4.943  37.291  0.00  0.00    +0.066 C 
ENDBRANCH  19  20
ENDBRANCH  18  19
ENDBRANCH  14  15
ENDBRANCH  12  13
TORSDOF 6
ENDMDL
MODEL 4
REMARK VINA RESULT:      -9.9      5.817      8.812
REMARK  Name = C:\Users\Docking\Desktop\test protocol\1iep_ligandH.pdb
REMARK  8 active torsions:
REMARK  status: ('A' for Active; 'I' for Inactive)
REMARK    1  A    between atoms: _5  and  _11
REMARK    2  A    between atoms: _19  and  _21
REMARK    3  A    between atoms: _22  and  _66
REMARK    4  A    between atoms: _27  and  _30
REMARK    5  A    between atoms: _32  and  _33
REMARK    6  A    between atoms: _38  and  _43
REMARK    7  A    between atoms: _43  and  _46
REMARK    8  A    between atoms: _53  and  _55
REMARK                            x       y       z     vdW  Elec       q    Type
REMARK                         _______ _______ _______ _____ _____    ______ ____
ROOT
ATOM     10  C   UNL     1      11.911  10.014  34.926  0.00  0.00    +0.038 A 
ATOM     11  C   UNL     1      12.640   9.365  35.955  0.00  0.00    +0.047 A 
ATOM     12  C   UNL     1      13.115   8.000  35.794  0.00  0.00    +0.035 A 
ATOM     32  C   UNL     1      12.830   7.325  34.571  0.00  0.00    +0.024 A 
ATOM     33  C   UNL     1      12.090   7.969  33.515  0.00  0.00    +0.007 A 
ATOM     34  C   UNL     1      11.617   9.316  33.669  0.00  0.00    -0.029 A 
ATOM     35  C   UNL     1      10.822   9.954  32.506  0.00  0.00    +0.045 C 
ENDROOT
BRANCH  10   9
ATOM      4  C   UNL     1      12.503  14.766  34.599  0.00  0.00    +0.077 A 
ATOM      5  C   UNL     1      13.793  14.623  33.987  0.00  0.00    +0.048 A 
ATOM      6  C   UNL     1      14.270  13.309  33.781  0.00  0.00    +0.116 A 
ATOM      7  N   UNL     1      13.507  12.227  34.161  0.00  0.00    -0.223 NA
ATOM      8  C   UNL     1      12.268  12.401  34.750  0.00  0.00    +0.220 A 
ATOM      9  N   UNL     1      11.480  11.327  35.134  0.00  0.00    -0.283 N 
ATOM     36  H   UNL     1      10.575  11.496  35.572  0.00  0.00    +0.155 HD
ATOM     37  N   UNL     1      11.790  13.645  34.960  0.00  0.00    -0.214 NA
BRANCH   4   3
ATOM      1  C   UNL     1      11.869  18.611  34.942  0.00  0.00    +0.020 A 
ATOM      2  C   UNL     1      12.535  17.361  34.654  0.00  0.00    +0.013 A 
ATOM      3  C   UNL     1      11.860  16.089  34.880  0.00  0.00    +0.019 A 
ATOM     38  C   UNL     1      10.502  16.116  35.402  0.00  0.00    +0.120 A 
ATOM     39  N   UNL     1       9.887  17.335  35.671  0.00  0.00    -0.263 NA
ATOM     40  C   UNL     1      10.526  18.565  35.459  0.00  0.00    +0.111 A 
ENDBRANCH   4   3
ENDBRANCH  10   9
BRANCH  12  13
ATOM     13  N   UNL     1      13.853   7.286  36.807  0.00  0.00    -0.281 N 
ATOM     14  C   UNL     1      15.066   6.632  36.674  0.00  0.00    +0.248 C 
ATOM     30  O   UNL     1      15.601   6.378  35.605  0.00  0.00    -0.270 OA
ATOM     31  H   UNL     1      13.429   7.261  37.735  0.00  0.00    +0.155 HD
BRANCH  14  15
ATOM     15  C   UNL     1      15.783   6.182  37.906  0.00  0.00    +0.037 A 
ATOM     16  C   UNL     1      15.296   5.049  38.697  0.00  0.00    +0.013 A 
ATOM     17  C   UNL     1      15.997   4.647  39.891  0.00  0.00    +0.005 A 
ATOM     18  C   UNL     1      17.193   5.378  40.300  0.00  0.00    -0.033 A 
ATOM     28  C   UNL     1      17.657   6.495  39.494  0.00  0.00    +0.005 A 
ATOM     29  C   UNL     1      16.972   6.893  38.324  0.00  0.00    +0.013 A 
BRANCH  18  19
ATOM     19  C   UNL     1      17.992   5.032  41.571  0.00  0.00    +0.119 C 
BRANCH  19  20
ATOM     20  N   UNL     1      17.281   4.265  42.638  0.00  0.00    -0.302 NA
ATOM     21  C   UNL     1      17.240   5.030  43.964  0.00  0.00    +0.066 C 
ATOM     22  C   UNL     1      16.472   4.224  45.062  0.00  0.00    -0.064 C 
ATOM     23  N   UNL     1      17.136   2.858  45.245  0.00  0.00    +0.379 N 
ATOM     24  C   UNL     1      16.453   2.120  46.317  0.00  0.00    -0.096 C 
ATOM     25  H   UNL     1      18.187   3.034  45.572  0.00  0.00    -0.082 HD
ATOM     26  C   UNL     1      17.183   2.092  43.930  0.00  0.00    -0.064 C 
ATOM     27  C   UNL     1      17.922   2.914  42.838  0.00  0.00    +0.066 C 
ENDBRANCH  19  20
ENDBRANCH  18  19
ENDBRANCH  14  15
ENDBRANCH  12  13
TORSDOF 6
ENDMDL
MODEL 5
REMARK VINA RESULT:      -9.6      8.136      9.784
REMARK  Name = C:\Users\Docking\Desktop\test protocol\1iep_ligandH.pdb
REMARK  8 active torsions:
REMARK  status: ('A' for Active; 'I' for Inactive)
REMARK    1  A    between atoms: _5  and  _11
REMARK    2  A    between atoms: _19  and  _21
REMARK    3  A    between atoms: _22  and  _66
REMARK    4  A    between atoms: _27  and  _30
REMARK    5  A    between atoms: _32  and  _33
REMARK    6  A    between atoms: _38  and  _43
REMARK    7  A    between atoms: _43  and  _46
REMARK    8  A    between atoms: _53  and  _55
REMARK                            x       y       z     vdW  Elec       q    Type
REMARK                         _______ _______ _______ _____ _____    ______ ____
ROOT
ATOM     10  C   UNL     1       6.085   9.874  36.216  0.00  0.00    +0.038 A 
ATOM     11  C   UNL     1       6.593  10.126  37.516  0.00  0.00    +0.047 A 
ATOM     12  C   UNL     1       5.891  11.003  38.440  0.00  0.00    +0.035 A 
ATOM     32  C   UNL     1       4.673  11.605  38.009  0.00  0.00    +0.024 A 
ATOM     33  C   UNL     1       4.143  11.360  36.690  0.00  0.00    +0.007 A 
ATOM     34  C   UNL     1       4.832  10.498  35.773  0.00  0.00    -0.029 A 
ATOM     35  C   UNL     1       4.221  10.277  34.370  0.00  0.00    +0.045 C 
ENDROOT
BRANCH  10   9
ATOM      4  C   UNL     1       9.308   9.082  32.749  0.00  0.00    +0.077 A 
ATOM      5  C   UNL     1       9.572  10.484  32.593  0.00  0.00    +0.048 A 
ATOM      6  C   UNL     1       8.852  11.375  33.419  0.00  0.00    +0.116 A 
ATOM      7  N   UNL     1       7.939  10.891  34.330  0.00  0.00    -0.223 NA
ATOM      8  C   UNL     1       7.707   9.533  34.454  0.00  0.00    +0.220 A 
ATOM      9  N   UNL     1       6.799   9.023  35.369  0.00  0.00    -0.283 N 
ATOM     36  H   UNL     1       6.651   8.016  35.425  0.00  0.00    +0.155 HD
ATOM     37  N   UNL     1       8.381   8.661  33.676  0.00  0.00    -0.214 NA
BRANCH   4   3
ATOM      1  C   UNL     1      11.916   6.448  31.499  0.00  0.00    +0.020 A 
ATOM      2  C   UNL     1      11.300   7.479  32.303  0.00  0.00    +0.013 A 
ATOM      3  C   UNL     1       9.992   8.015  31.951  0.00  0.00    +0.019 A 
ATOM     38  C   UNL     1       9.328   7.483  30.771  0.00  0.00    +0.120 A 
ATOM     39  N   UNL     1       9.946   6.492  30.015  0.00  0.00    -0.263 NA
ATOM     40  C   UNL     1      11.206   5.969  30.343  0.00  0.00    +0.111 A 
ENDBRANCH   4   3
ENDBRANCH  10   9
BRANCH  12  13
ATOM     13  N   UNL     1       6.362  11.303  39.770  0.00  0.00    -0.281 N 
ATOM     14  C   UNL     1       7.085  12.408  40.188  0.00  0.00    +0.248 C 
ATOM     30  O   UNL     1       7.622  13.208  39.436  0.00  0.00    -0.270 OA
ATOM     31  H   UNL     1       6.136  10.616  40.490  0.00  0.00    +0.155 HD
BRANCH  14  15
ATOM     15  C   UNL     1       7.246  12.653  41.654  0.00  0.00    +0.037 A 
ATOM     16  C   UNL     1       8.528  12.429  42.326  0.00  0.00    +0.013 A 
ATOM     17  C   UNL     1       8.652  12.657  43.744  0.00  0.00    +0.005 A 
ATOM     18  C   UNL     1       7.488  13.113  44.499  0.00  0.00    -0.033 A 
ATOM     28  C   UNL     1       6.229  13.333  43.807  0.00  0.00    +0.005 A 
ATOM     29  C   UNL     1       6.104  13.110  42.417  0.00  0.00    +0.013 A 
BRANCH  18  19
ATOM     19  C   UNL     1       7.522  13.362  46.019  0.00  0.00    +0.119 C 
BRANCH  19  20
ATOM     20  N   UNL     1       6.759  12.414  46.884  0.00  0.00    -0.302 NA
ATOM     21  C   UNL     1       5.707  13.132  47.735  0.00  0.00    +0.066 C 
ATOM     22  C   UNL     1       4.903  12.122  48.617  0.00  0.00    -0.064 C 
ATOM     23  N   UNL     1       5.873  11.338  49.503  0.00  0.00    +0.379 N 
ATOM     24  C   UNL     1       5.115  10.429  50.375  0.00  0.00    -0.096 C 
ATOM     25  H   UNL     1       6.402  12.071  50.156  0.00  0.00    -0.082 HD
ATOM     26  C   UNL     1       6.923  10.623  48.665  0.00  0.00    -0.064 C 
ATOM     27  C   UNL     1       7.697  11.631  47.771  0.00  0.00    +0.066 C 
ENDBRANCH  19  20
ENDBRANCH  18  19
ENDBRANCH  14  15
ENDBRANCH  12  13
TORSDOF 6
ENDMDL
