MODEL 1
REMARK VINA RESULT:     -11.3      0.000      0.000
REMARK  Name = C:\Users\Docking\Desktop\test protocol\1iep_ligandH.pdb
REMARK  8 active torsions:
REMARK  status: ('A' for Active; 'I' for Inactive)
REMARK    1  A    between atoms: _5  and  _11
REMARK    2  A    between atoms: _19  and  _21
REMARK    3  A    between atoms: _22  and  _66
REMARK    4  A    between atoms: _27  and  _30
REMARK    5  A    between atoms: _32  and  _33
REMARK    6  A    between atoms: _38  and  _43
REMARK    7  A    between atoms: _43  and  _46
REMARK    8  A    between atoms: _53  and  _55
REMARK                            x       y       z     vdW  Elec       q    Type
REMARK                         _______ _______ _______ _____ _____    ______ ____
ROOT
ATOM     10  C   UNL     1      12.138   6.796  34.890  0.00  0.00    +0.038 A 
ATOM     11  C   UNL     1      12.945   6.378  35.979  0.00  0.00    +0.047 A 
ATOM     12  C   UNL     1      14.315   5.936  35.775  0.00  0.00    +0.035 A 
ATOM     32  C   UNL     1      14.834   5.936  34.447  0.00  0.00    +0.024 A 
ATOM     33  C   UNL     1      14.028   6.357  33.328  0.00  0.00    +0.007 A 
ATOM     34  C   UNL     1      12.675   6.791  33.524  0.00  0.00    -0.029 A 
ATOM     35  C   UNL     1      11.855   7.226  32.287  0.00  0.00    +0.045 C 
ENDROOT
BRANCH  10   9
ATOM      4  C   UNL     1       8.896  10.176  35.940  0.00  0.00    +0.077 A 
ATOM      5  C   UNL     1       9.900  11.199  36.016  0.00  0.00    +0.048 A 
ATOM      6  C   UNL     1      11.239  10.812  35.785  0.00  0.00    +0.116 A 
ATOM      7  N   UNL     1      11.541   9.498  35.500  0.00  0.00    -0.223 NA
ATOM      8  C   UNL     1      10.549   8.536  35.436  0.00  0.00    +0.220 A 
ATOM      9  N   UNL     1      10.829   7.210  35.144  0.00  0.00    -0.283 N 
ATOM     36  H   UNL     1      10.070   6.530  35.114  0.00  0.00    +0.155 HD
ATOM     37  N   UNL     1       9.263   8.880  35.654  0.00  0.00    -0.214 NA
BRANCH   4   3
ATOM      1  C   UNL     1       5.011  10.233  35.491  0.00  0.00    +0.020 A 
ATOM      2  C   UNL     1       6.407   9.963  35.235  0.00  0.00    +0.013 A 
ATOM      3  C   UNL     1       7.436  10.429  36.156  0.00  0.00    +0.019 A 
ATOM     38  C   UNL     1       7.016  11.170  37.335  0.00  0.00    +0.120 A 
ATOM     39  N   UNL     1       5.664  11.416  37.554  0.00  0.00    -0.263 NA
ATOM     40  C   UNL     1       4.665  10.974  36.674  0.00  0.00    +0.111 A 
ENDBRANCH   4   3
ENDBRANCH  10   9
BRANCH  12  13
ATOM     13  N   UNL     1      15.179   5.493  36.841  0.00  0.00    -0.281 N 
ATOM     14  C   UNL     1      15.989   6.265  37.658  0.00  0.00    +0.248 C 
ATOM     30  O   UNL     1      16.258   7.439  37.454  0.00  0.00    -0.270 OA
ATOM     31  H   UNL     1      15.195   4.488  37.015  0.00  0.00    +0.155 HD
BRANCH  14  15
ATOM     15  C   UNL     1      16.601   5.637  38.868  0.00  0.00    +0.037 A 
ATOM     16  C   UNL     1      16.476   4.200  39.125  0.00  0.00    +0.013 A 
ATOM     17  C   UNL     1      17.061   3.623  40.309  0.00  0.00    +0.005 A 
ATOM     18  C   UNL     1      17.779   4.484  41.246  0.00  0.00    -0.033 A 
ATOM     28  C   UNL     1      17.893   5.906  40.964  0.00  0.00    +0.005 A 
ATOM     29  C   UNL     1      17.319   6.475  39.805  0.00  0.00    +0.013 A 
BRANCH  18  19
ATOM     19  C   UNL     1      18.417   3.959  42.545  0.00  0.00    +0.119 C 
BRANCH  19  20
ATOM     20  N   UNL     1      17.537   3.194  43.478  0.00  0.00    -0.302 NA
ATOM     21  C   UNL     1      17.374   3.903  44.826  0.00  0.00    +0.066 C 
ATOM     22  C   UNL     1      16.432   3.100  45.781  0.00  0.00    -0.064 C 
ATOM     23  N   UNL     1      16.990   1.689  45.976  0.00  0.00    +0.379 N 
ATOM     24  C   UNL     1      16.138   0.951  46.919  0.00  0.00    -0.096 C 
ATOM     25  H   UNL     1      18.001   1.786  46.436  0.00  0.00    -0.082 HD
ATOM     26  C   UNL     1      17.158   0.978  44.641  0.00  0.00    -0.064 C 
ATOM     27  C   UNL     1      18.072   1.798  43.688  0.00  0.00    +0.066 C 
ENDBRANCH  19  20
ENDBRANCH  18  19
ENDBRANCH  14  15
ENDBRANCH  12  13
TORSDOF 6
ENDMDL
MODEL 2
REMARK VINA RESULT:     -10.6      3.433      5.337
REMARK  Name = C:\Users\Docking\Desktop\test protocol\1iep_ligandH.pdb
REMARK  8 active torsions:
REMARK  status: ('A' for Active; 'I' for Inactive)
REMARK    1  A    between atoms: _5  and  _11
REMARK    2  A    between atoms: _19  and  _21
REMARK    3  A    between atoms: _22  and  _66
REMARK    4  A    between atoms: _27  and  _30
REMARK    5  A    between atoms: _32  and  _33
REMARK    6  A    between atoms: _38  and  _43
REMARK    7  A    between atoms: _43  and  _46
REMARK    8  A    between atoms: _53  and  _55
REMARK                            x       y       z     vdW  Elec       q    Type
REMARK                         _______ _______ _______ _____ _____    ______ ____
ROOT
ATOM     10  C   UNL     1       9.296  10.768  34.119  0.00  0.00    +0.038 A 
ATOM     11  C   UNL     1      10.098   9.833  34.823  0.00  0.00    +0.047 A 
ATOM     12  C   UNL     1      11.443  10.174  35.260  0.00  0.00    +0.035 A 
ATOM     32  C   UNL     1      11.939  11.477  34.965  0.00  0.00    +0.024 A 
ATOM     33  C   UNL     1      11.139  12.439  34.250  0.00  0.00    +0.007 A 
ATOM     34  C   UNL     1       9.812  12.109  33.815  0.00  0.00    -0.029 A 
ATOM     35  C   UNL     1       9.001  13.178  33.046  0.00  0.00    +0.045 C 
ENDROOT
BRANCH  10   9
ATOM      4  C   UNL     1       6.248   8.754  31.007  0.00  0.00    +0.077 A 
ATOM      5  C   UNL     1       7.300   8.458  30.078  0.00  0.00    +0.048 A 
ATOM      6  C   UNL     1       8.610   8.847  30.435  0.00  0.00    +0.116 A 
ATOM      7  N   UNL     1       8.840   9.483  31.636  0.00  0.00    -0.223 NA
ATOM      8  C   UNL     1       7.803   9.756  32.508  0.00  0.00    +0.220 A 
ATOM      9  N   UNL     1       8.012  10.389  33.724  0.00  0.00    -0.283 N 
ATOM     36  H   UNL     1       7.219  10.578  34.337  0.00  0.00    +0.155 HD
ATOM     37  N   UNL     1       6.542   9.396  32.189  0.00  0.00    -0.214 NA
BRANCH   4   3
ATOM      1  C   UNL     1       2.924   7.546  29.335  0.00  0.00    +0.020 A 
ATOM      2  C   UNL     1       4.322   7.869  29.509  0.00  0.00    +0.013 A 
ATOM      3  C   UNL     1       4.811   8.404  30.773  0.00  0.00    +0.019 A 
ATOM     38  C   UNL     1       3.853   8.601  31.850  0.00  0.00    +0.120 A 
ATOM     39  N   UNL     1       2.513   8.283  31.654  0.00  0.00    -0.263 NA
ATOM     40  C   UNL     1       2.030   7.769  30.441  0.00  0.00    +0.111 A 
ENDBRANCH   4   3
ENDBRANCH  10   9
BRANCH  12  13
ATOM     13  N   UNL     1      12.306   9.263  35.970  0.00  0.00    -0.281 N 
ATOM     14  C   UNL     1      12.795   8.041  35.538  0.00  0.00    +0.248 C 
ATOM     30  O   UNL     1      12.390   7.444  34.552  0.00  0.00    -0.270 OA
ATOM     31  H   UNL     1      12.591   9.555  36.905  0.00  0.00    +0.155 HD
BRANCH  14  15
ATOM     15  C   UNL     1      13.882   7.380  36.323  0.00  0.00    +0.037 A 
ATOM     16  C   UNL     1      14.989   8.155  36.890  0.00  0.00    +0.013 A 
ATOM     17  C   UNL     1      16.034   7.490  37.628  0.00  0.00    +0.005 A 
ATOM     18  C   UNL     1      15.975   6.041  37.805  0.00  0.00    -0.033 A 
ATOM     28  C   UNL     1      14.863   5.298  37.237  0.00  0.00    +0.005 A 
ATOM     29  C   UNL     1      13.838   5.946  36.511  0.00  0.00    +0.013 A 
BRANCH  18  19
ATOM     19  C   UNL     1      17.057   5.247  38.560  0.00  0.00    +0.119 C 
BRANCH  19  20
ATOM     20  N   UNL     1      16.799   4.938  39.998  0.00  0.00    -0.302 NA
ATOM     21  C   UNL     1      17.647   5.807  40.932  0.00  0.00    +0.066 C 
ATOM     22  C   UNL     1      17.349   5.486  42.433  0.00  0.00    -0.064 C 
ATOM     23  N   UNL     1      17.603   4.001  42.696  0.00  0.00    +0.379 N 
ATOM     24  C   UNL     1      17.380   3.709  44.119  0.00  0.00    -0.096 C 
ATOM     25  H   UNL     1      18.677   3.798  42.473  0.00  0.00    -0.082 HD
ATOM     26  C   UNL     1      16.767   3.130  41.769  0.00  0.00    -0.064 C 
ATOM     27  C   UNL     1      17.049   3.477  40.280  0.00  0.00    +0.066 C 
ENDBRANCH  19  20
ENDBRANCH  18  19
ENDBRANCH  14  15
ENDBRANCH  12  13
TORSDOF 6
ENDMDL
MODEL 3
REMARK VINA RESULT:     -10.5      2.977      5.015
REMARK  Name = C:\Users\Docking\Desktop\test protocol\1iep_ligandH.pdb
REMARK  8 active torsions:
REMARK  status: ('A' for Active; 'I' for Inactive)
REMARK    1  A    between atoms: _5  and  _11
REMARK    2  A    between atoms: _19  and  _21
REMARK    3  A    between atoms: _22  and  _66
REMARK    4  A    between atoms: _27  and  _30
REMARK    5  A    between atoms: _32  and  _33
REMARK    6  A    between atoms: _38  and  _43
REMARK    7  A    between atoms: _43  and  _46
REMARK    8  A    between atoms: _53  and  _55
REMARK                            x       y       z     vdW  Elec       q    Type
REMARK                         _______ _______ _______ _____ _____    ______ ____
ROOT
ATOM     10  C   UNL     1       9.566  10.399  33.627  0.00  0.00    +0.038 A 
ATOM     11  C   UNL     1      10.386   9.515  34.373  0.00  0.00    +0.047 A 
ATOM     12  C   UNL     1      11.552   9.999  35.096  0.00  0.00    +0.035 A 
ATOM     32  C   UNL     1      11.853  11.391  35.038  0.00  0.00    +0.024 A 
ATOM     33  C   UNL     1      11.031  12.304  34.283  0.00  0.00    +0.007 A 
ATOM     34  C   UNL     1       9.881  11.831  33.566  0.00  0.00    -0.029 A 
ATOM     35  C   UNL     1       9.039  12.854  32.768  0.00  0.00    +0.045 C 
ENDROOT
BRANCH  10   9
ATOM      4  C   UNL     1       4.888   9.362  33.341  0.00  0.00    +0.077 A 
ATOM      5  C   UNL     1       4.634   9.874  34.657  0.00  0.00    +0.048 A 
ATOM      6  C   UNL     1       5.736  10.388  35.378  0.00  0.00    +0.116 A 
ATOM      7  N   UNL     1       6.993  10.386  34.814  0.00  0.00    -0.223 NA
ATOM      8  C   UNL     1       7.204   9.884  33.543  0.00  0.00    +0.220 A 
ATOM      9  N   UNL     1       8.459   9.880  32.953  0.00  0.00    -0.283 N 
ATOM     36  H   UNL     1       8.574   9.494  32.016  0.00  0.00    +0.155 HD
ATOM     37  N   UNL     1       6.169   9.386  32.835  0.00  0.00    -0.214 NA
BRANCH   4   3
ATOM      1  C   UNL     1       1.430   8.209  31.924  0.00  0.00    +0.020 A 
ATOM      2  C   UNL     1       2.415   8.775  32.816  0.00  0.00    +0.013 A 
ATOM      3  C   UNL     1       3.827   8.788  32.455  0.00  0.00    +0.019 A 
ATOM     38  C   UNL     1       4.212   8.217  31.173  0.00  0.00    +0.120 A 
ATOM     39  N   UNL     1       3.241   7.678  30.335  0.00  0.00    -0.263 NA
ATOM     40  C   UNL     1       1.880   7.658  30.672  0.00  0.00    +0.111 A 
ENDBRANCH   4   3
ENDBRANCH  10   9
BRANCH  12  13
ATOM     13  N   UNL     1      12.426   9.147  35.864  0.00  0.00    -0.281 N 
ATOM     14  C   UNL     1      12.850   7.865  35.558  0.00  0.00    +0.248 C 
ATOM     30  O   UNL     1      12.369   7.170  34.675  0.00  0.00    -0.270 OA
ATOM     31  H   UNL     1      12.775   9.537  36.740  0.00  0.00    +0.155 HD
BRANCH  14  15
ATOM     15  C   UNL     1      13.960   7.261  36.357  0.00  0.00    +0.037 A 
ATOM     16  C   UNL     1      13.993   5.825  36.647  0.00  0.00    +0.013 A 
ATOM     17  C   UNL     1      15.066   5.271  37.435  0.00  0.00    +0.005 A 
ATOM     18  C   UNL     1      16.116   6.155  37.936  0.00  0.00    -0.033 A 
ATOM     28  C   UNL     1      16.061   7.574  37.629  0.00  0.00    +0.005 A 
ATOM     29  C   UNL     1      15.011   8.121  36.858  0.00  0.00    +0.013 A 
BRANCH  18  19
ATOM     19  C   UNL     1      17.287   5.654  38.802  0.00  0.00    +0.119 C 
BRANCH  19  20
ATOM     20  N   UNL     1      16.970   5.217  40.195  0.00  0.00    -0.302 NA
ATOM     21  C   UNL     1      17.830   5.942  41.234  0.00  0.00    +0.066 C 
ATOM     22  C   UNL     1      17.470   5.489  42.686  0.00  0.00    -0.064 C 
ATOM     23  N   UNL     1      17.642   3.974  42.803  0.00  0.00    +0.379 N 
ATOM     24  C   UNL     1      17.360   3.553  44.183  0.00  0.00    -0.096 C 
ATOM     25  H   UNL     1      18.710   3.738  42.589  0.00  0.00    -0.082 HD
ATOM     26  C   UNL     1      16.793   3.245  41.771  0.00  0.00    -0.064 C 
ATOM     27  C   UNL     1      17.138   3.724  40.333  0.00  0.00    +0.066 C 
ENDBRANCH  19  20
ENDBRANCH  18  19
ENDBRANCH  14  15
ENDBRANCH  12  13
TORSDOF 6
ENDMDL
MODEL 4
REMARK VINA RESULT:      -9.3      9.220     14.777
REMARK  Name = C:\Users\Docking\Desktop\test protocol\1iep_ligandH.pdb
REMARK  8 active torsions:
REMARK  status: ('A' for Active; 'I' for Inactive)
REMARK    1  A    between atoms: _5  and  _11
REMARK    2  A    between atoms: _19  and  _21
REMARK    3  A    between atoms: _22  and  _66
REMARK    4  A    between atoms: _27  and  _30
REMARK    5  A    between atoms: _32  and  _33
REMARK    6  A    between atoms: _38  and  _43
REMARK    7  A    between atoms: _43  and  _46
REMARK    8  A    between atoms: _53  and  _55
REMARK                            x       y       z     vdW  Elec       q    Type
REMARK                         _______ _______ _______ _____ _____    ______ ____
ROOT
ATOM     10  C   UNL     1       6.197  13.004  44.952  0.00  0.00    +0.038 A 
ATOM     11  C   UNL     1       5.836  12.489  43.681  0.00  0.00    +0.047 A 
ATOM     12  C   UNL     1       6.846  12.170  42.684  0.00  0.00    +0.035 A 
ATOM     32  C   UNL     1       8.216  12.385  43.017  0.00  0.00    +0.024 A 
ATOM     33  C   UNL     1       8.600  12.908  44.304  0.00  0.00    +0.007 A 
ATOM     34  C   UNL     1       7.608  13.227  45.291  0.00  0.00    -0.029 A 
ATOM     35  C   UNL     1       8.078  13.791  46.652  0.00  0.00    +0.045 C 
ENDROOT
BRANCH  10   9
ATOM      4  C   UNL     1       3.378  11.824  48.653  0.00  0.00    +0.077 A 
ATOM      5  C   UNL     1       3.949  10.511  48.746  0.00  0.00    +0.048 A 
ATOM      6  C   UNL     1       4.961  10.177  47.819  0.00  0.00    +0.116 A 
ATOM      7  N   UNL     1       5.364  11.094  46.873  0.00  0.00    -0.223 NA
ATOM      8  C   UNL     1       4.791  12.351  46.809  0.00  0.00    +0.220 A 
ATOM      9  N   UNL     1       5.186  13.293  45.872  0.00  0.00    -0.283 N 
ATOM     36  H   UNL     1       4.734  14.206  45.853  0.00  0.00    +0.155 HD
ATOM     37  N   UNL     1       3.822  12.695  47.683  0.00  0.00    -0.214 NA
BRANCH   4   3
ATOM      1  C   UNL     1       0.439  11.981  51.230  0.00  0.00    +0.020 A 
ATOM      2  C   UNL     1       1.464  11.443  50.365  0.00  0.00    +0.013 A 
ATOM      3  C   UNL     1       2.302  12.327  49.565  0.00  0.00    +0.019 A 
ATOM     38  C   UNL     1       2.076  13.761  49.664  0.00  0.00    +0.120 A 
ATOM     39  N   UNL     1       1.080  14.250  50.504  0.00  0.00    -0.263 NA
ATOM     40  C   UNL     1       0.266  13.409  51.278  0.00  0.00    +0.111 A 
ENDBRANCH   4   3
ENDBRANCH  10   9
BRANCH  12  13
ATOM     13  N   UNL     1       6.539  11.653  41.373  0.00  0.00    -0.281 N 
ATOM     14  C   UNL     1       6.315  12.366  40.207  0.00  0.00    +0.248 C 
ATOM     30  O   UNL     1       6.132  13.574  40.160  0.00  0.00    -0.270 OA
ATOM     31  H   UNL     1       6.481  10.637  41.296  0.00  0.00    +0.155 HD
BRANCH  14  15
ATOM     15  C   UNL     1       6.272  11.630  38.907  0.00  0.00    +0.037 A 
ATOM     16  C   UNL     1       7.473  11.004  38.349  0.00  0.00    +0.013 A 
ATOM     17  C   UNL     1       7.408  10.314  37.085  0.00  0.00    +0.005 A 
ATOM     18  C   UNL     1       6.136  10.247  36.371  0.00  0.00    -0.033 A 
ATOM     28  C   UNL     1       4.959  10.873  36.950  0.00  0.00    +0.005 A 
ATOM     29  C   UNL     1       5.019  11.550  38.188  0.00  0.00    +0.013 A 
BRANCH  18  19
ATOM     19  C   UNL     1       5.979   9.550  35.006  0.00  0.00    +0.119 C 
BRANCH  19  20
ATOM     20  N   UNL     1       6.416  10.310  33.796  0.00  0.00    -0.302 NA
ATOM     21  C   UNL     1       5.314  10.383  32.735  0.00  0.00    +0.066 C 
ATOM     22  C   UNL     1       5.781  11.200  31.486  0.00  0.00    -0.064 C 
ATOM     23  N   UNL     1       7.047  10.566  30.909  0.00  0.00    +0.379 N 
ATOM     24  C   UNL     1       7.456  11.297  29.701  0.00  0.00    -0.096 C 
ATOM     25  H   UNL     1       6.795   9.523  30.605  0.00  0.00    -0.082 HD
ATOM     26  C   UNL     1       8.147  10.486  31.959  0.00  0.00    -0.064 C 
ATOM     27  C   UNL     1       7.663   9.697  33.208  0.00  0.00    +0.066 C 
ENDBRANCH  19  20
ENDBRANCH  18  19
ENDBRANCH  14  15
ENDBRANCH  12  13
TORSDOF 6
ENDMDL
MODEL 5
REMARK VINA RESULT:      -9.3      6.016     13.392
REMARK  Name = C:\Users\Docking\Desktop\test protocol\1iep_ligandH.pdb
REMARK  8 active torsions:
REMARK  status: ('A' for Active; 'I' for Inactive)
REMARK    1  A    between atoms: _5  and  _11
REMARK    2  A    between atoms: _19  and  _21
REMARK    3  A    between atoms: _22  and  _66
REMARK    4  A    between atoms: _27  and  _30
REMARK    5  A    between atoms: _32  and  _33
REMARK    6  A    between atoms: _38  and  _43
REMARK    7  A    between atoms: _43  and  _46
REMARK    8  A    between atoms: _53  and  _55
REMARK                            x       y       z     vdW  Elec       q    Type
REMARK                         _______ _______ _______ _____ _____    ______ ____
ROOT
ATOM     10  C   UNL     1      13.036  -0.531  48.945  0.00  0.00    +0.038 A 
ATOM     11  C   UNL     1      13.647   0.441  48.112  0.00  0.00    +0.047 A 
ATOM     12  C   UNL     1      15.057   0.354  47.763  0.00  0.00    +0.035 A 
ATOM     32  C   UNL     1      15.814  -0.737  48.279  0.00  0.00    +0.024 A 
ATOM     33  C   UNL     1      15.210  -1.733  49.128  0.00  0.00    +0.007 A 
ATOM     34  C   UNL     1      13.820  -1.652  49.477  0.00  0.00    -0.029 A 
ATOM     35  C   UNL     1      13.227  -2.744  50.397  0.00  0.00    +0.045 C 
ENDROOT
BRANCH  10   9
ATOM      4  C   UNL     1       9.354   1.810  50.945  0.00  0.00    +0.077 A 
ATOM      5  C   UNL     1      10.210   2.843  51.453  0.00  0.00    +0.048 A 
ATOM      6  C   UNL     1      11.593   2.731  51.184  0.00  0.00    +0.116 A 
ATOM      7  N   UNL     1      12.072   1.662  50.459  0.00  0.00    -0.223 NA
ATOM      8  C   UNL     1      11.220   0.681  49.985  0.00  0.00    +0.220 A 
ATOM      9  N   UNL     1      11.679  -0.399  49.248  0.00  0.00    -0.283 N 
ATOM     36  H   UNL     1      11.019  -1.105  48.923  0.00  0.00    +0.155 HD
ATOM     37  N   UNL     1       9.895   0.765  50.231  0.00  0.00    -0.214 NA
BRANCH   4   3
ATOM      1  C   UNL     1       5.696   2.846  51.864  0.00  0.00    +0.020 A 
ATOM      2  C   UNL     1       7.129   2.918  51.692  0.00  0.00    +0.013 A 
ATOM      3  C   UNL     1       7.870   1.789  51.144  0.00  0.00    +0.019 A 
ATOM     38  C   UNL     1       7.126   0.594  50.776  0.00  0.00    +0.120 A 
ATOM     39  N   UNL     1       5.747   0.553  50.954  0.00  0.00    -0.263 NA
ATOM     40  C   UNL     1       5.023   1.633  51.482  0.00  0.00    +0.111 A 
ENDBRANCH   4   3
ENDBRANCH  10   9
BRANCH  12  13
ATOM     13  N   UNL     1      15.733   1.316  46.928  0.00  0.00    -0.281 N 
ATOM     14  C   UNL     1      16.776   1.091  46.044  0.00  0.00    +0.248 C 
ATOM     30  O   UNL     1      17.431   0.061  45.995  0.00  0.00    -0.270 OA
ATOM     31  H   UNL     1      15.403   2.278  46.997  0.00  0.00    +0.155 HD
BRANCH  14  15
ATOM     15  C   UNL     1      17.155   2.174  45.086  0.00  0.00    +0.037 A 
ATOM     16  C   UNL     1      16.982   3.587  45.428  0.00  0.00    +0.013 A 
ATOM     17  C   UNL     1      17.340   4.611  44.479  0.00  0.00    +0.005 A 
ATOM     18  C   UNL     1      17.878   4.224  43.177  0.00  0.00    -0.033 A 
ATOM     28  C   UNL     1      18.045   2.814  42.865  0.00  0.00    +0.005 A 
ATOM     29  C   UNL     1      17.693   1.808  43.793  0.00  0.00    +0.013 A 
BRANCH  18  19
ATOM     19  C   UNL     1      18.267   5.248  42.094  0.00  0.00    +0.119 C 
BRANCH  19  20
ATOM     20  N   UNL     1      17.573   5.146  40.776  0.00  0.00    -0.302 NA
ATOM     21  C   UNL     1      17.860   6.355  39.881  0.00  0.00    +0.066 C 
ATOM     22  C   UNL     1      17.145   6.222  38.497  0.00  0.00    -0.064 C 
ATOM     23  N   UNL     1      15.640   6.055  38.718  0.00  0.00    +0.379 N 
ATOM     24  C   UNL     1      14.959   5.988  37.417  0.00  0.00    -0.096 C 
ATOM     25  H   UNL     1      15.274   6.966  39.245  0.00  0.00    -0.082 HD
ATOM     26  C   UNL     1      15.347   4.857  39.608  0.00  0.00    -0.064 C 
ATOM     27  C   UNL     1      16.086   4.985  40.970  0.00  0.00    +0.066 C 
ENDBRANCH  19  20
ENDBRANCH  18  19
ENDBRANCH  14  15
ENDBRANCH  12  13
TORSDOF 6
ENDMDL
