MODEL 1
REMARK VINA RESULT:     -10.8      0.000      0.000
REMARK  Name = C:\Users\Docking\Desktop\test protocol\1iep_ligandH.pdb
REMARK  8 active torsions:
REMARK  status: ('A' for Active; 'I' for Inactive)
REMARK    1  A    between atoms: _5  and  _11
REMARK    2  A    between atoms: _19  and  _21
REMARK    3  A    between atoms: _22  and  _66
REMARK    4  A    between atoms: _27  and  _30
REMARK    5  A    between atoms: _32  and  _33
REMARK    6  A    between atoms: _38  and  _43
REMARK    7  A    between atoms: _43  and  _46
REMARK    8  A    between atoms: _53  and  _55
REMARK                            x       y       z     vdW  Elec       q    Type
REMARK                         _______ _______ _______ _____ _____    ______ ____
ROOT
ATOM     10  C   UNL     1      13.382   8.101  34.938  0.00  0.00    +0.038 A 
ATOM     11  C   UNL     1      13.968   7.678  36.159  0.00  0.00    +0.047 A 
ATOM     12  C   UNL     1      14.430   6.311  36.338  0.00  0.00    +0.035 A 
ATOM     32  C   UNL     1      14.282   5.400  35.252  0.00  0.00    +0.024 A 
ATOM     33  C   UNL     1      13.687   5.812  34.005  0.00  0.00    +0.007 A 
ATOM     34  C   UNL     1      13.227   7.159  33.823  0.00  0.00    -0.029 A 
ATOM     35  C   UNL     1      12.592   7.544  32.467  0.00  0.00    +0.045 C 
ENDROOT
BRANCH  10   9
ATOM      4  C   UNL     1      10.044  11.525  35.344  0.00  0.00    +0.077 A 
ATOM      5  C   UNL     1       9.056  10.591  35.803  0.00  0.00    +0.048 A 
ATOM      6  C   UNL     1       9.446   9.238  35.915  0.00  0.00    +0.116 A 
ATOM      7  N   UNL     1      10.730   8.858  35.588  0.00  0.00    -0.223 NA
ATOM      8  C   UNL     1      11.657   9.784  35.147  0.00  0.00    +0.220 A 
ATOM      9  N   UNL     1      12.956   9.426  34.821  0.00  0.00    -0.283 N 
ATOM     36  H   UNL     1      13.608  10.137  34.492  0.00  0.00    +0.155 HD
ATOM     37  N   UNL     1      11.309  11.082  35.031  0.00  0.00    -0.214 NA
BRANCH   4   3
ATOM      1  C   UNL     1       8.583  15.130  35.763  0.00  0.00    +0.020 A 
ATOM      2  C   UNL     1       8.794  13.715  35.963  0.00  0.00    +0.013 A 
ATOM      3  C   UNL     1       9.785  12.991  35.177  0.00  0.00    +0.019 A 
ATOM     38  C   UNL     1      10.554  13.734  34.190  0.00  0.00    +0.120 A 
ATOM     39  N   UNL     1      10.329  15.096  34.019  0.00  0.00    -0.263 NA
ATOM     40  C   UNL     1       9.376  15.803  34.768  0.00  0.00    +0.111 A 
ENDBRANCH   4   3
ENDBRANCH  10   9
BRANCH  12  13
ATOM     13  N   UNL     1      15.025   5.822  37.557  0.00  0.00    -0.281 N 
ATOM     14  C   UNL     1      16.295   6.080  38.047  0.00  0.00    +0.248 C 
ATOM     30  O   UNL     1      17.193   6.600  37.401  0.00  0.00    -0.270 OA
ATOM     31  H   UNL     1      14.440   5.213  38.128  0.00  0.00    +0.155 HD
BRANCH  14  15
ATOM     15  C   UNL     1      16.620   5.689  39.453  0.00  0.00    +0.037 A 
ATOM     16  C   UNL     1      15.832   4.678  40.162  0.00  0.00    +0.013 A 
ATOM     17  C   UNL     1      16.156   4.332  41.523  0.00  0.00    +0.005 A 
ATOM     18  C   UNL     1      17.275   4.998  42.184  0.00  0.00    -0.033 A 
ATOM     28  C   UNL     1      18.043   5.994  41.456  0.00  0.00    +0.005 A 
ATOM     29  C   UNL     1      17.728   6.336  40.122  0.00  0.00    +0.013 A 
BRANCH  18  19
ATOM     19  C   UNL     1      17.679   4.707  43.642  0.00  0.00    +0.119 C 
BRANCH  19  20
ATOM     20  N   UNL     1      16.992   3.572  44.328  0.00  0.00    -0.302 NA
ATOM     21  C   UNL     1      16.820   3.828  45.828  0.00  0.00    +0.066 C 
ATOM     22  C   UNL     1      16.079   2.641  46.526  0.00  0.00    -0.064 C 
ATOM     23  N   UNL     1      16.855   1.345  46.283  0.00  0.00    +0.379 N 
ATOM     24  C   UNL     1      16.193   0.237  46.986  0.00  0.00    -0.096 C 
ATOM     25  H   UNL     1      17.870   1.470  46.728  0.00  0.00    -0.082 HD
ATOM     26  C   UNL     1      17.033   1.085  44.794  0.00  0.00    -0.064 C 
ATOM     27  C   UNL     1      17.744   2.283  44.104  0.00  0.00    +0.066 C 
ENDBRANCH  19  20
ENDBRANCH  18  19
ENDBRANCH  14  15
ENDBRANCH  12  13
TORSDOF 6
ENDMDL
MODEL 2
REMARK VINA RESULT:     -10.2      9.112     15.806
REMARK  Name = C:\Users\Docking\Desktop\test protocol\1iep_ligandH.pdb
REMARK  8 active torsions:
REMARK  status: ('A' for Active; 'I' for Inactive)
REMARK    1  A    between atoms: _5  and  _11
REMARK    2  A    between atoms: _19  and  _21
REMARK    3  A    between atoms: _22  and  _66
REMARK    4  A    between atoms: _27  and  _30
REMARK    5  A    between atoms: _32  and  _33
REMARK    6  A    between atoms: _38  and  _43
REMARK    7  A    between atoms: _43  and  _46
REMARK    8  A    between atoms: _53  and  _55
REMARK                            x       y       z     vdW  Elec       q    Type
REMARK                         _______ _______ _______ _____ _____    ______ ____
ROOT
ATOM     10  C   UNL     1       7.226  10.442  32.963  0.00  0.00    +0.038 A 
ATOM     11  C   UNL     1       6.040   9.668  32.903  0.00  0.00    +0.047 A 
ATOM     12  C   UNL     1       4.904  10.091  32.098  0.00  0.00    +0.035 A 
ATOM     32  C   UNL     1       5.013  11.308  31.365  0.00  0.00    +0.024 A 
ATOM     33  C   UNL     1       6.211  12.109  31.415  0.00  0.00    +0.007 A 
ATOM     34  C   UNL     1       7.333  11.697  32.209  0.00  0.00    -0.029 A 
ATOM     35  C   UNL     1       8.590  12.599  32.231  0.00  0.00    +0.045 C 
ENDROOT
BRANCH  10   9
ATOM      4  C   UNL     1      11.116   7.720  33.666  0.00  0.00    +0.077 A 
ATOM      5  C   UNL     1      11.013   7.132  32.361  0.00  0.00    +0.048 A 
ATOM      6  C   UNL     1       9.941   7.553  31.543  0.00  0.00    +0.116 A 
ATOM      7  N   UNL     1       9.044   8.492  32.005  0.00  0.00    -0.223 NA
ATOM      8  C   UNL     1       9.171   9.037  33.269  0.00  0.00    +0.220 A 
ATOM      9  N   UNL     1       8.286   9.989  33.752  0.00  0.00    -0.283 N 
ATOM     36  H   UNL     1       8.409  10.361  34.693  0.00  0.00    +0.155 HD
ATOM     37  N   UNL     1      10.186   8.651  34.071  0.00  0.00    -0.214 NA
BRANCH   4   3
ATOM      1  C   UNL     1      13.500   5.749  36.060  0.00  0.00    +0.020 A 
ATOM      2  C   UNL     1      12.444   6.023  35.113  0.00  0.00    +0.013 A 
ATOM      3  C   UNL     1      12.196   7.381  34.646  0.00  0.00    +0.019 A 
ATOM     38  C   UNL     1      13.043   8.448  35.159  0.00  0.00    +0.120 A 
ATOM     39  N   UNL     1      14.051   8.154  36.071  0.00  0.00    -0.263 NA
ATOM     40  C   UNL     1      14.298   6.852  36.530  0.00  0.00    +0.111 A 
ENDBRANCH   4   3
ENDBRANCH  10   9
BRANCH  12  13
ATOM     13  N   UNL     1       3.671   9.350  32.005  0.00  0.00    -0.281 N 
ATOM     14  C   UNL     1       3.292   8.446  31.025  0.00  0.00    +0.248 C 
ATOM     30  O   UNL     1       3.873   8.298  29.960  0.00  0.00    -0.270 OA
ATOM     31  H   UNL     1       2.995   9.510  32.752  0.00  0.00    +0.155 HD
BRANCH  14  15
ATOM     15  C   UNL     1       2.086   7.595  31.256  0.00  0.00    +0.037 A 
ATOM     16  C   UNL     1       1.243   7.776  32.440  0.00  0.00    +0.013 A 
ATOM     17  C   UNL     1       0.095   6.930  32.647  0.00  0.00    +0.005 A 
ATOM     18  C   UNL     1      -0.217   5.893  31.666  0.00  0.00    -0.033 A 
ATOM     28  C   UNL     1       0.633   5.738  30.497  0.00  0.00    +0.005 A 
ATOM     29  C   UNL     1       1.760   6.566  30.292  0.00  0.00    +0.013 A 
BRANCH  18  19
ATOM     19  C   UNL     1      -1.410   4.931  31.816  0.00  0.00    +0.119 C 
BRANCH  19  20
ATOM     20  N   UNL     1      -2.323   4.784  30.643  0.00  0.00    -0.302 NA
ATOM     21  C   UNL     1      -3.100   6.072  30.355  0.00  0.00    +0.066 C 
ATOM     22  C   UNL     1      -4.033   5.908  29.111  0.00  0.00    -0.064 C 
ATOM     23  N   UNL     1      -4.991   4.739  29.346  0.00  0.00    +0.379 N 
ATOM     24  C   UNL     1      -5.908   4.618  28.204  0.00  0.00    -0.096 C 
ATOM     25  H   UNL     1      -5.602   4.979  30.247  0.00  0.00    -0.082 HD
ATOM     26  C   UNL     1      -4.226   3.455  29.636  0.00  0.00    -0.064 C 
ATOM     27  C   UNL     1      -3.280   3.638  30.856  0.00  0.00    +0.066 C 
ENDBRANCH  19  20
ENDBRANCH  18  19
ENDBRANCH  14  15
ENDBRANCH  12  13
TORSDOF 6
ENDMDL
MODEL 3
REMARK VINA RESULT:     -10.2      1.822      2.735
REMARK  Name = C:\Users\Docking\Desktop\test protocol\1iep_ligandH.pdb
REMARK  8 active torsions:
REMARK  status: ('A' for Active; 'I' for Inactive)
REMARK    1  A    between atoms: _5  and  _11
REMARK    2  A    between atoms: _19  and  _21
REMARK    3  A    between atoms: _22  and  _66
REMARK    4  A    between atoms: _27  and  _30
REMARK    5  A    between atoms: _32  and  _33
REMARK    6  A    between atoms: _38  and  _43
REMARK    7  A    between atoms: _43  and  _46
REMARK    8  A    between atoms: _53  and  _55
REMARK                            x       y       z     vdW  Elec       q    Type
REMARK                         _______ _______ _______ _____ _____    ______ ____
ROOT
ATOM     10  C   UNL     1      11.034   9.511  34.365  0.00  0.00    +0.038 A 
ATOM     11  C   UNL     1      11.906   8.936  35.324  0.00  0.00    +0.047 A 
ATOM     12  C   UNL     1      12.379   7.567  35.185  0.00  0.00    +0.035 A 
ATOM     32  C   UNL     1      11.945   6.813  34.056  0.00  0.00    +0.024 A 
ATOM     33  C   UNL     1      11.058   7.382  33.072  0.00  0.00    +0.007 A 
ATOM     34  C   UNL     1      10.587   8.731  33.204  0.00  0.00    -0.029 A 
ATOM     35  C   UNL     1       9.632   9.287  32.123  0.00  0.00    +0.045 C 
ENDROOT
BRANCH  10   9
ATOM      4  C   UNL     1       8.212  12.806  36.418  0.00  0.00    +0.077 A 
ATOM      5  C   UNL     1       7.501  11.813  37.171  0.00  0.00    +0.048 A 
ATOM      6  C   UNL     1       7.888  10.466  36.996  0.00  0.00    +0.116 A 
ATOM      7  N   UNL     1       8.911  10.146  36.130  0.00  0.00    -0.223 NA
ATOM      8  C   UNL     1       9.575  11.128  35.417  0.00  0.00    +0.220 A 
ATOM      9  N   UNL     1      10.612  10.830  34.547  0.00  0.00    -0.283 N 
ATOM     36  H   UNL     1      11.071  11.582  34.034  0.00  0.00    +0.155 HD
ATOM     37  N   UNL     1       9.223  12.422  35.566  0.00  0.00    -0.214 NA
BRANCH   4   3
ATOM      1  C   UNL     1       6.803  16.278  37.542  0.00  0.00    +0.020 A 
ATOM      2  C   UNL     1       7.050  14.854  37.510  0.00  0.00    +0.013 A 
ATOM      3  C   UNL     1       7.922  14.273  36.497  0.00  0.00    +0.019 A 
ATOM     38  C   UNL     1       8.534  15.166  35.525  0.00  0.00    +0.120 A 
ATOM     39  N   UNL     1       8.277  16.532  35.580  0.00  0.00    -0.263 NA
ATOM     40  C   UNL     1       7.438  17.103  36.549  0.00  0.00    +0.111 A 
ENDBRANCH   4   3
ENDBRANCH  10   9
BRANCH  12  13
ATOM     13  N   UNL     1      13.258   6.926  36.131  0.00  0.00    -0.281 N 
ATOM     14  C   UNL     1      14.573   6.534  35.941  0.00  0.00    +0.248 C 
ATOM     30  O   UNL     1      15.128   6.481  34.854  0.00  0.00    -0.270 OA
ATOM     31  H   UNL     1      12.864   6.740  37.053  0.00  0.00    +0.155 HD
BRANCH  14  15
ATOM     15  C   UNL     1      15.385   6.128  37.129  0.00  0.00    +0.037 A 
ATOM     16  C   UNL     1      14.923   5.079  38.042  0.00  0.00    +0.013 A 
ATOM     17  C   UNL     1      15.717   4.718  39.189  0.00  0.00    +0.005 A 
ATOM     18  C   UNL     1      16.983   5.407  39.429  0.00  0.00    -0.033 A 
ATOM     28  C   UNL     1      17.420   6.440  38.505  0.00  0.00    +0.005 A 
ATOM     29  C   UNL     1      16.643   6.797  37.379  0.00  0.00    +0.013 A 
BRANCH  18  19
ATOM     19  C   UNL     1      17.885   5.102  40.640  0.00  0.00    +0.119 C 
BRANCH  19  20
ATOM     20  N   UNL     1      17.308   4.255  41.727  0.00  0.00    -0.302 NA
ATOM     21  C   UNL     1      17.390   4.940  43.094  0.00  0.00    +0.066 C 
ATOM     22  C   UNL     1      16.762   4.050  44.215  0.00  0.00    -0.064 C 
ATOM     23  N   UNL     1      17.470   2.695  44.244  0.00  0.00    +0.379 N 
ATOM     24  C   UNL     1      16.921   1.877  45.335  0.00  0.00    -0.096 C 
ATOM     25  H   UNL     1      18.546   2.881  44.470  0.00  0.00    -0.082 HD
ATOM     26  C   UNL     1      17.395   2.008  42.888  0.00  0.00    -0.064 C 
ATOM     27  C   UNL     1      17.996   2.914  41.776  0.00  0.00    +0.066 C 
ENDBRANCH  19  20
ENDBRANCH  18  19
ENDBRANCH  14  15
ENDBRANCH  12  13
TORSDOF 6
ENDMDL
MODEL 4
REMARK VINA RESULT:     -10.1      8.296     10.606
REMARK  Name = C:\Users\Docking\Desktop\test protocol\1iep_ligandH.pdb
REMARK  8 active torsions:
REMARK  status: ('A' for Active; 'I' for Inactive)
REMARK    1  A    between atoms: _5  and  _11
REMARK    2  A    between atoms: _19  and  _21
REMARK    3  A    between atoms: _22  and  _66
REMARK    4  A    between atoms: _27  and  _30
REMARK    5  A    between atoms: _32  and  _33
REMARK    6  A    between atoms: _38  and  _43
REMARK    7  A    between atoms: _43  and  _46
REMARK    8  A    between atoms: _53  and  _55
REMARK                            x       y       z     vdW  Elec       q    Type
REMARK                         _______ _______ _______ _____ _____    ______ ____
ROOT
ATOM     10  C   UNL     1       8.753  10.075  33.607  0.00  0.00    +0.038 A 
ATOM     11  C   UNL     1       9.950  10.806  33.819  0.00  0.00    +0.047 A 
ATOM     12  C   UNL     1      10.318  11.280  35.143  0.00  0.00    +0.035 A 
ATOM     32  C   UNL     1       9.444  10.990  36.232  0.00  0.00    +0.024 A 
ATOM     33  C   UNL     1       8.223  10.250  36.035  0.00  0.00    +0.007 A 
ATOM     34  C   UNL     1       7.854   9.781  34.730  0.00  0.00    -0.029 A 
ATOM     35  C   UNL     1       6.529   8.997  34.576  0.00  0.00    +0.045 C 
ENDROOT
BRANCH  10   9
ATOM      4  C   UNL     1       9.255   7.024  29.936  0.00  0.00    +0.077 A 
ATOM      5  C   UNL     1      10.226   6.240  30.644  0.00  0.00    +0.048 A 
ATOM      6  C   UNL     1      10.574   6.659  31.947  0.00  0.00    +0.116 A 
ATOM      7  N   UNL     1       9.988   7.781  32.493  0.00  0.00    -0.223 NA
ATOM      8  C   UNL     1       9.056   8.516  31.783  0.00  0.00    +0.220 A 
ATOM      9  N   UNL     1       8.449   9.643  32.314  0.00  0.00    -0.283 N 
ATOM     36  H   UNL     1       7.772  10.162  31.756  0.00  0.00    +0.155 HD
ATOM     37  N   UNL     1       8.709   8.137  30.535  0.00  0.00    -0.214 NA
BRANCH   4   3
ATOM      1  C   UNL     1       9.118   5.768  26.234  0.00  0.00    +0.020 A 
ATOM      2  C   UNL     1       9.623   6.052  27.557  0.00  0.00    +0.013 A 
ATOM      3  C   UNL     1       8.782   6.707  28.551  0.00  0.00    +0.019 A 
ATOM     38  C   UNL     1       7.424   7.064  28.172  0.00  0.00    +0.120 A 
ATOM     39  N   UNL     1       6.965   6.779  26.889  0.00  0.00    -0.263 NA
ATOM     40  C   UNL     1       7.765   6.150  25.924  0.00  0.00    +0.111 A 
ENDBRANCH   4   3
ENDBRANCH  10   9
BRANCH  12  13
ATOM     13  N   UNL     1      11.516  12.034  35.417  0.00  0.00    -0.281 N 
ATOM     14  C   UNL     1      12.830  11.605  35.330  0.00  0.00    +0.248 C 
ATOM     30  O   UNL     1      13.170  10.438  35.207  0.00  0.00    -0.270 OA
ATOM     31  H   UNL     1      11.379  13.001  35.711  0.00  0.00    +0.155 HD
BRANCH  14  15
ATOM     15  C   UNL     1      13.927  12.619  35.403  0.00  0.00    +0.037 A 
ATOM     16  C   UNL     1      14.160  13.400  36.620  0.00  0.00    +0.013 A 
ATOM     17  C   UNL     1      15.213  14.383  36.658  0.00  0.00    +0.005 A 
ATOM     18  C   UNL     1      16.044  14.589  35.474  0.00  0.00    -0.033 A 
ATOM     28  C   UNL     1      15.794  13.797  34.281  0.00  0.00    +0.005 A 
ATOM     29  C   UNL     1      14.762  12.833  34.240  0.00  0.00    +0.013 A 
BRANCH  18  19
ATOM     19  C   UNL     1      17.176  15.631  35.418  0.00  0.00    +0.119 C 
BRANCH  19  20
ATOM     20  N   UNL     1      18.432  15.316  36.162  0.00  0.00    -0.302 NA
ATOM     21  C   UNL     1      19.052  16.564  36.797  0.00  0.00    +0.066 C 
ATOM     22  C   UNL     1      20.352  16.214  37.591  0.00  0.00    -0.064 C 
ATOM     23  N   UNL     1      21.350  15.531  36.653  0.00  0.00    +0.379 N 
ATOM     24  C   UNL     1      22.596  15.253  37.382  0.00  0.00    -0.096 C 
ATOM     25  H   UNL     1      21.590  16.249  35.835  0.00  0.00    -0.082 HD
ATOM     26  C   UNL     1      20.741  14.291  36.015  0.00  0.00    -0.064 C 
ATOM     27  C   UNL     1      19.433  14.646  35.254  0.00  0.00    +0.066 C 
ENDBRANCH  19  20
ENDBRANCH  18  19
ENDBRANCH  14  15
ENDBRANCH  12  13
TORSDOF 6
ENDMDL
MODEL 5
REMARK VINA RESULT:      -9.5      8.129     10.483
REMARK  Name = C:\Users\Docking\Desktop\test protocol\1iep_ligandH.pdb
REMARK  8 active torsions:
REMARK  status: ('A' for Active; 'I' for Inactive)
REMARK    1  A    between atoms: _5  and  _11
REMARK    2  A    between atoms: _19  and  _21
REMARK    3  A    between atoms: _22  and  _66
REMARK    4  A    between atoms: _27  and  _30
REMARK    5  A    between atoms: _32  and  _33
REMARK    6  A    between atoms: _38  and  _43
REMARK    7  A    between atoms: _43  and  _46
REMARK    8  A    between atoms: _53  and  _55
REMARK                            x       y       z     vdW  Elec       q    Type
REMARK                         _______ _______ _______ _____ _____    ______ ____
ROOT
ATOM     10  C   UNL     1       6.384   9.780  36.719  0.00  0.00    +0.038 A 
ATOM     11  C   UNL     1       6.933  10.042  38.000  0.00  0.00    +0.047 A 
ATOM     12  C   UNL     1       6.254  10.913  38.946  0.00  0.00    +0.035 A 
ATOM     32  C   UNL     1       5.015  11.500  38.555  0.00  0.00    +0.024 A 
ATOM     33  C   UNL     1       4.443  11.246  37.256  0.00  0.00    +0.007 A 
ATOM     34  C   UNL     1       5.110  10.389  36.318  0.00  0.00    -0.029 A 
ATOM     35  C   UNL     1       4.453  10.157  34.937  0.00  0.00    +0.045 C 
ENDROOT
BRANCH  10   9
ATOM      4  C   UNL     1       9.593   9.004  33.235  0.00  0.00    +0.077 A 
ATOM      5  C   UNL     1       9.892  10.402  33.117  0.00  0.00    +0.048 A 
ATOM      6  C   UNL     1       9.192  11.289  33.966  0.00  0.00    +0.116 A 
ATOM      7  N   UNL     1       8.266  10.802  34.863  0.00  0.00    -0.223 NA
ATOM      8  C   UNL     1       8.000   9.448  34.950  0.00  0.00    +0.220 A 
ATOM      9  N   UNL     1       7.079   8.936  35.850  0.00  0.00    -0.283 N 
ATOM     36  H   UNL     1       6.906   7.931  35.878  0.00  0.00    +0.155 HD
ATOM     37  N   UNL     1       8.654   8.581  34.149  0.00  0.00    -0.214 NA
BRANCH   4   3
ATOM      1  C   UNL     1      12.188   6.426  31.848  0.00  0.00    +0.020 A 
ATOM      2  C   UNL     1      11.599   7.454  32.675  0.00  0.00    +0.013 A 
ATOM      3  C   UNL     1      10.251   7.942  32.410  0.00  0.00    +0.019 A 
ATOM     38  C   UNL     1       9.521   7.365  31.291  0.00  0.00    +0.120 A 
ATOM     39  N   UNL     1      10.115   6.379  30.510  0.00  0.00    -0.263 NA
ATOM     40  C   UNL     1      11.412   5.902  30.755  0.00  0.00    +0.111 A 
ENDBRANCH   4   3
ENDBRANCH  10   9
BRANCH  12  13
ATOM     13  N   UNL     1       6.767  11.222  40.258  0.00  0.00    -0.281 N 
ATOM     14  C   UNL     1       7.357  12.400  40.686  0.00  0.00    +0.248 C 
ATOM     30  O   UNL     1       7.728  13.297  39.943  0.00  0.00    -0.270 OA
ATOM     31  H   UNL     1       6.685  10.483  40.955  0.00  0.00    +0.155 HD
BRANCH  14  15
ATOM     15  C   UNL     1       7.580  12.606  42.149  0.00  0.00    +0.037 A 
ATOM     16  C   UNL     1       8.884  12.344  42.763  0.00  0.00    +0.013 A 
ATOM     17  C   UNL     1       9.067  12.535  44.181  0.00  0.00    +0.005 A 
ATOM     18  C   UNL     1       7.942  12.991  44.993  0.00  0.00    -0.033 A 
ATOM     28  C   UNL     1       6.661  13.248  44.357  0.00  0.00    +0.005 A 
ATOM     29  C   UNL     1       6.477  13.062  42.969  0.00  0.00    +0.013 A 
BRANCH  18  19
ATOM     19  C   UNL     1       8.041  13.201  46.516  0.00  0.00    +0.119 C 
BRANCH  19  20
ATOM     20  N   UNL     1       7.291  12.248  47.387  0.00  0.00    -0.302 NA
ATOM     21  C   UNL     1       6.172  12.942  48.168  0.00  0.00    +0.066 C 
ATOM     22  C   UNL     1       5.383  11.926  49.057  0.00  0.00    -0.064 C 
ATOM     23  N   UNL     1       6.354  11.226  50.010  0.00  0.00    +0.379 N 
ATOM     24  C   UNL     1       5.608  10.313  50.887  0.00  0.00    -0.096 C 
ATOM     25  H   UNL     1       6.819  12.009  50.653  0.00  0.00    -0.082 HD
ATOM     26  C   UNL     1       7.472  10.536  49.243  0.00  0.00    -0.064 C 
ATOM     27  C   UNL     1       8.230  11.549  48.339  0.00  0.00    +0.066 C 
ENDBRANCH  19  20
ENDBRANCH  18  19
ENDBRANCH  14  15
ENDBRANCH  12  13
TORSDOF 6
ENDMDL
