MODEL 1
REMARK VINA RESULT:      -8.6      0.000      0.000
REMARK  Name = C:\Users\Docking\Desktop\test protocol\1iep_ligandH.pdb
REMARK  8 active torsions:
REMARK  status: ('A' for Active; 'I' for Inactive)
REMARK    1  A    between atoms: _5  and  _11
REMARK    2  A    between atoms: _19  and  _21
REMARK    3  A    between atoms: _22  and  _66
REMARK    4  A    between atoms: _27  and  _30
REMARK    5  A    between atoms: _32  and  _33
REMARK    6  A    between atoms: _38  and  _43
REMARK    7  A    between atoms: _43  and  _46
REMARK    8  A    between atoms: _53  and  _55
REMARK                            x       y       z     vdW  Elec       q    Type
REMARK                         _______ _______ _______ _____ _____    ______ ____
ROOT
ATOM     10  C   UNL     1      -8.648  20.607  27.863  0.00  0.00    +0.038 A 
ATOM     11  C   UNL     1      -7.864  21.729  27.490  0.00  0.00    +0.047 A 
ATOM     12  C   UNL     1      -7.212  22.557  28.493  0.00  0.00    +0.035 A 
ATOM     32  C   UNL     1      -7.377  22.212  29.866  0.00  0.00    +0.024 A 
ATOM     33  C   UNL     1      -8.171  21.076  30.262  0.00  0.00    +0.007 A 
ATOM     34  C   UNL     1      -8.819  20.257  29.278  0.00  0.00    -0.029 A 
ATOM     35  C   UNL     1      -9.664  19.054  29.760  0.00  0.00    +0.045 C 
ENDROOT
BRANCH  10   9
ATOM      4  C   UNL     1     -12.207  19.762  24.754  0.00  0.00    +0.077 A 
ATOM      5  C   UNL     1     -12.938  20.919  25.186  0.00  0.00    +0.048 A 
ATOM      6  C   UNL     1     -12.367  21.700  26.215  0.00  0.00    +0.116 A 
ATOM      7  N   UNL     1     -11.154  21.343  26.764  0.00  0.00    -0.223 NA
ATOM      8  C   UNL     1     -10.476  20.220  26.326  0.00  0.00    +0.220 A 
ATOM      9  N   UNL     1      -9.252  19.847  26.859  0.00  0.00    -0.283 N 
ATOM     36  H   UNL     1      -8.787  19.007  26.513  0.00  0.00    +0.155 HD
ATOM     37  N   UNL     1     -11.001  19.457  25.346  0.00  0.00    -0.214 NA
BRANCH   4   3
ATOM      1  C   UNL     1     -12.313  17.467  21.589  0.00  0.00    +0.020 A 
ATOM      2  C   UNL     1     -11.808  18.359  22.607  0.00  0.00    +0.013 A 
ATOM      3  C   UNL     1     -12.677  18.838  23.675  0.00  0.00    +0.019 A 
ATOM     38  C   UNL     1     -14.063  18.393  23.683  0.00  0.00    +0.120 A 
ATOM     39  N   UNL     1     -14.521  17.535  22.687  0.00  0.00    -0.263 NA
ATOM     40  C   UNL     1     -13.694  17.068  21.655  0.00  0.00    +0.111 A 
ENDBRANCH   4   3
ENDBRANCH  10   9
BRANCH  12  13
ATOM     13  N   UNL     1      -6.410  23.713  28.175  0.00  0.00    -0.281 N 
ATOM     14  C   UNL     1      -5.084  23.746  27.775  0.00  0.00    +0.248 C 
ATOM     30  O   UNL     1      -4.320  22.794  27.836  0.00  0.00    -0.270 OA
ATOM     31  H   UNL     1      -6.877  24.616  28.255  0.00  0.00    +0.155 HD
BRANCH  14  15
ATOM     15  C   UNL     1      -4.522  25.025  27.244  0.00  0.00    +0.037 A 
ATOM     16  C   UNL     1      -5.391  26.153  26.902  0.00  0.00    +0.013 A 
ATOM     17  C   UNL     1      -4.825  27.369  26.376  0.00  0.00    +0.005 A 
ATOM     18  C   UNL     1      -3.379  27.463  26.189  0.00  0.00    -0.033 A 
ATOM     28  C   UNL     1      -2.539  26.331  26.541  0.00  0.00    +0.005 A 
ATOM     29  C   UNL     1      -3.091  25.137  27.057  0.00  0.00    +0.013 A 
BRANCH  18  19
ATOM     19  C   UNL     1      -2.689  28.715  25.614  0.00  0.00    +0.119 C 
BRANCH  19  20
ATOM     20  N   UNL     1      -1.423  28.507  24.850  0.00  0.00    -0.302 NA
ATOM     21  C   UNL     1      -0.354  29.540  25.219  0.00  0.00    +0.066 C 
ATOM     22  C   UNL     1       0.972  29.295  24.428  0.00  0.00    -0.064 C 
ATOM     23  N   UNL     1       0.681  29.330  22.927  0.00  0.00    +0.379 N 
ATOM     24  C   UNL     1       1.935  29.157  22.180  0.00  0.00    -0.096 C 
ATOM     25  H   UNL     1       0.278  30.341  22.684  0.00  0.00    -0.082 HD
ATOM     26  C   UNL     1      -0.383  28.308  22.552  0.00  0.00    -0.064 C 
ATOM     27  C   UNL     1      -1.687  28.542  23.365  0.00  0.00    +0.066 C 
ENDBRANCH  19  20
ENDBRANCH  18  19
ENDBRANCH  14  15
ENDBRANCH  12  13
TORSDOF 6
ENDMDL
MODEL 2
REMARK VINA RESULT:      -8.3      5.449     10.799
REMARK  Name = C:\Users\Docking\Desktop\test protocol\1iep_ligandH.pdb
REMARK  8 active torsions:
REMARK  status: ('A' for Active; 'I' for Inactive)
REMARK    1  A    between atoms: _5  and  _11
REMARK    2  A    between atoms: _19  and  _21
REMARK    3  A    between atoms: _22  and  _66
REMARK    4  A    between atoms: _27  and  _30
REMARK    5  A    between atoms: _32  and  _33
REMARK    6  A    between atoms: _38  and  _43
REMARK    7  A    between atoms: _43  and  _46
REMARK    8  A    between atoms: _53  and  _55
REMARK                            x       y       z     vdW  Elec       q    Type
REMARK                         _______ _______ _______ _____ _____    ______ ____
ROOT
ATOM     10  C   UNL     1      -1.621  29.122  25.860  0.00  0.00    +0.038 A 
ATOM     11  C   UNL     1      -0.467  28.895  25.067  0.00  0.00    +0.047 A 
ATOM     12  C   UNL     1       0.195  29.988  24.372  0.00  0.00    +0.035 A 
ATOM     32  C   UNL     1      -0.343  31.300  24.508  0.00  0.00    +0.024 A 
ATOM     33  C   UNL     1      -1.516  31.549  25.309  0.00  0.00    +0.007 A 
ATOM     34  C   UNL     1      -2.175  30.474  25.995  0.00  0.00    -0.029 A 
ATOM     35  C   UNL     1      -3.432  30.798  26.835  0.00  0.00    +0.045 C 
ENDROOT
BRANCH  10   9
ATOM      4  C   UNL     1      -4.922  25.648  26.129  0.00  0.00    +0.077 A 
ATOM      5  C   UNL     1      -5.528  26.048  24.892  0.00  0.00    +0.048 A 
ATOM      6  C   UNL     1      -4.965  27.156  24.221  0.00  0.00    +0.116 A 
ATOM      7  N   UNL     1      -3.876  27.809  24.756  0.00  0.00    -0.223 NA
ATOM      8  C   UNL     1      -3.316  27.399  25.953  0.00  0.00    +0.220 A 
ATOM      9  N   UNL     1      -2.216  28.036  26.506  0.00  0.00    -0.283 N 
ATOM     36  H   UNL     1      -1.837  27.708  27.394  0.00  0.00    +0.155 HD
ATOM     37  N   UNL     1      -3.837  26.344  26.613  0.00  0.00    -0.214 NA
BRANCH   4   3
ATOM      1  C   UNL     1      -7.095  23.357  28.437  0.00  0.00    +0.020 A 
ATOM      2  C   UNL     1      -6.679  24.498  27.654  0.00  0.00    +0.013 A 
ATOM      3  C   UNL     1      -5.401  24.494  26.953  0.00  0.00    +0.019 A 
ATOM     38  C   UNL     1      -4.562  23.311  27.065  0.00  0.00    +0.120 A 
ATOM     39  N   UNL     1      -4.988  22.228  27.827  0.00  0.00    -0.263 NA
ATOM     40  C   UNL     1      -6.215  22.220  28.508  0.00  0.00    +0.111 A 
ENDBRANCH   4   3
ENDBRANCH  10   9
BRANCH  12  13
ATOM     13  N   UNL     1       1.365  29.816  23.546  0.00  0.00    -0.281 N 
ATOM     14  C   UNL     1       1.422  29.401  22.226  0.00  0.00    +0.248 C 
ATOM     30  O   UNL     1       0.486  28.905  21.616  0.00  0.00    -0.270 OA
ATOM     31  H   UNL     1       2.260  30.027  23.989  0.00  0.00    +0.155 HD
BRANCH  14  15
ATOM     15  C   UNL     1       2.709  29.543  21.479  0.00  0.00    +0.037 A 
ATOM     16  C   UNL     1       3.078  28.605  20.416  0.00  0.00    +0.013 A 
ATOM     17  C   UNL     1       4.333  28.754  19.723  0.00  0.00    +0.005 A 
ATOM     18  C   UNL     1       5.229  29.848  20.091  0.00  0.00    -0.033 A 
ATOM     28  C   UNL     1       4.835  30.767  21.146  0.00  0.00    +0.005 A 
ATOM     29  C   UNL     1       3.606  30.623  21.828  0.00  0.00    +0.013 A 
BRANCH  18  19
ATOM     19  C   UNL     1       6.597  30.071  19.420  0.00  0.00    +0.119 C 
BRANCH  19  20
ATOM     20  N   UNL     1       7.369  31.283  19.828  0.00  0.00    -0.302 NA
ATOM     21  C   UNL     1       7.742  32.157  18.627  0.00  0.00    +0.066 C 
ATOM     22  C   UNL     1       8.530  33.431  19.074  0.00  0.00    -0.064 C 
ATOM     23  N   UNL     1       9.781  33.009  19.846  0.00  0.00    +0.379 N 
ATOM     24  C   UNL     1      10.554  34.203  20.217  0.00  0.00    -0.096 C 
ATOM     25  H   UNL     1      10.412  32.398  19.160  0.00  0.00    -0.082 HD
ATOM     26  C   UNL     1       9.419  32.137  21.040  0.00  0.00    -0.064 C 
ATOM     27  C   UNL     1       8.611  30.889  20.588  0.00  0.00    +0.066 C 
ENDBRANCH  19  20
ENDBRANCH  18  19
ENDBRANCH  14  15
ENDBRANCH  12  13
TORSDOF 6
ENDMDL
MODEL 3
REMARK VINA RESULT:      -8.3      4.148      6.873
REMARK  Name = C:\Users\Docking\Desktop\test protocol\1iep_ligandH.pdb
REMARK  8 active torsions:
REMARK  status: ('A' for Active; 'I' for Inactive)
REMARK    1  A    between atoms: _5  and  _11
REMARK    2  A    between atoms: _19  and  _21
REMARK    3  A    between atoms: _22  and  _66
REMARK    4  A    between atoms: _27  and  _30
REMARK    5  A    between atoms: _32  and  _33
REMARK    6  A    between atoms: _38  and  _43
REMARK    7  A    between atoms: _43  and  _46
REMARK    8  A    between atoms: _53  and  _55
REMARK                            x       y       z     vdW  Elec       q    Type
REMARK                         _______ _______ _______ _____ _____    ______ ____
ROOT
ATOM     10  C   UNL     1     -12.132  20.152  28.868  0.00  0.00    +0.038 A 
ATOM     11  C   UNL     1     -10.930  20.888  28.709  0.00  0.00    +0.047 A 
ATOM     12  C   UNL     1     -10.270  20.981  27.416  0.00  0.00    +0.035 A 
ATOM     32  C   UNL     1     -10.865  20.315  26.305  0.00  0.00    +0.024 A 
ATOM     33  C   UNL     1     -12.086  19.562  26.449  0.00  0.00    +0.007 A 
ATOM     34  C   UNL     1     -12.739  19.465  27.723  0.00  0.00    -0.029 A 
ATOM     35  C   UNL     1     -14.043  18.638  27.820  0.00  0.00    +0.045 C 
ENDROOT
BRANCH  10   9
ATOM      4  C   UNL     1     -12.823  18.050  33.127  0.00  0.00    +0.077 A 
ATOM      5  C   UNL     1     -11.955  16.957  32.795  0.00  0.00    +0.048 A 
ATOM      6  C   UNL     1     -11.356  16.970  31.515  0.00  0.00    +0.116 A 
ATOM      7  N   UNL     1     -11.613  18.004  30.641  0.00  0.00    -0.223 NA
ATOM      8  C   UNL     1     -12.456  19.042  30.993  0.00  0.00    +0.220 A 
ATOM      9  N   UNL     1     -12.723  20.096  30.133  0.00  0.00    -0.283 N 
ATOM     36  H   UNL     1     -13.356  20.839  30.426  0.00  0.00    +0.155 HD
ATOM     37  N   UNL     1     -13.042  19.052  32.208  0.00  0.00    -0.214 NA
BRANCH   4   3
ATOM      1  C   UNL     1     -13.951  17.486  36.830  0.00  0.00    +0.020 A 
ATOM      2  C   UNL     1     -13.242  17.318  35.582  0.00  0.00    +0.013 A 
ATOM      3  C   UNL     1     -13.528  18.179  34.442  0.00  0.00    +0.019 A 
ATOM     38  C   UNL     1     -14.544  19.209  34.598  0.00  0.00    +0.120 A 
ATOM     39  N   UNL     1     -15.211  19.346  35.811  0.00  0.00    -0.263 NA
ATOM     40  C   UNL     1     -14.946  18.522  36.915  0.00  0.00    +0.111 A 
ENDBRANCH   4   3
ENDBRANCH  10   9
BRANCH  12  13
ATOM     13  N   UNL     1      -9.044  21.707  27.196  0.00  0.00    -0.281 N 
ATOM     14  C   UNL     1      -8.814  23.063  27.364  0.00  0.00    +0.248 C 
ATOM     30  O   UNL     1      -9.692  23.897  27.527  0.00  0.00    -0.270 OA
ATOM     31  H   UNL     1      -8.248  21.154  26.877  0.00  0.00    +0.155 HD
BRANCH  14  15
ATOM     15  C   UNL     1      -7.407  23.566  27.334  0.00  0.00    +0.037 A 
ATOM     16  C   UNL     1      -7.102  24.982  27.555  0.00  0.00    +0.013 A 
ATOM     17  C   UNL     1      -5.737  25.444  27.503  0.00  0.00    +0.005 A 
ATOM     18  C   UNL     1      -4.667  24.488  27.230  0.00  0.00    -0.033 A 
ATOM     28  C   UNL     1      -4.998  23.088  27.020  0.00  0.00    +0.005 A 
ATOM     29  C   UNL     1      -6.334  22.632  27.069  0.00  0.00    +0.013 A 
BRANCH  18  19
ATOM     19  C   UNL     1      -3.185  24.896  27.135  0.00  0.00    +0.119 C 
BRANCH  19  20
ATOM     20  N   UNL     1      -2.795  25.799  26.012  0.00  0.00    -0.302 NA
ATOM     21  C   UNL     1      -1.567  25.281  25.258  0.00  0.00    +0.066 C 
ATOM     22  C   UNL     1      -1.186  26.226  24.073  0.00  0.00    -0.064 C 
ATOM     23  N   UNL     1      -0.937  27.637  24.608  0.00  0.00    +0.379 N 
ATOM     24  C   UNL     1      -0.522  28.515  23.504  0.00  0.00    -0.096 C 
ATOM     25  H   UNL     1      -0.091  27.579  25.331  0.00  0.00    -0.082 HD
ATOM     26  C   UNL     1      -2.153  28.159  25.361  0.00  0.00    -0.064 C 
ATOM     27  C   UNL     1      -2.540  27.197  26.519  0.00  0.00    +0.066 C 
ENDBRANCH  19  20
ENDBRANCH  18  19
ENDBRANCH  14  15
ENDBRANCH  12  13
TORSDOF 6
ENDMDL
MODEL 4
REMARK VINA RESULT:      -8.3     15.906     20.253
REMARK  Name = C:\Users\Docking\Desktop\test protocol\1iep_ligandH.pdb
REMARK  8 active torsions:
REMARK  status: ('A' for Active; 'I' for Inactive)
REMARK    1  A    between atoms: _5  and  _11
REMARK    2  A    between atoms: _19  and  _21
REMARK    3  A    between atoms: _22  and  _66
REMARK    4  A    between atoms: _27  and  _30
REMARK    5  A    between atoms: _32  and  _33
REMARK    6  A    between atoms: _38  and  _43
REMARK    7  A    between atoms: _43  and  _46
REMARK    8  A    between atoms: _53  and  _55
REMARK                            x       y       z     vdW  Elec       q    Type
REMARK                         _______ _______ _______ _____ _____    ______ ____
ROOT
ATOM     10  C   UNL     1      -3.074   7.469  30.263  0.00  0.00    +0.038 A 
ATOM     11  C   UNL     1      -4.196   7.525  31.128  0.00  0.00    +0.047 A 
ATOM     12  C   UNL     1      -4.983   8.741  31.262  0.00  0.00    +0.035 A 
ATOM     32  C   UNL     1      -4.600   9.881  30.498  0.00  0.00    +0.024 A 
ATOM     33  C   UNL     1      -3.461   9.842  29.614  0.00  0.00    +0.007 A 
ATOM     34  C   UNL     1      -2.680   8.646  29.479  0.00  0.00    -0.029 A 
ATOM     35  C   UNL     1      -1.466   8.664  28.522  0.00  0.00    +0.045 C 
ENDROOT
BRANCH  10   9
ATOM      4  C   UNL     1      -2.231   3.173  28.295  0.00  0.00    +0.077 A 
ATOM      5  C   UNL     1      -3.334   3.306  27.388  0.00  0.00    +0.048 A 
ATOM      6  C   UNL     1      -4.098   4.493  27.465  0.00  0.00    +0.116 A 
ATOM      7  N   UNL     1      -3.773   5.466  28.384  0.00  0.00    -0.223 NA
ATOM      8  C   UNL     1      -2.703   5.306  29.246  0.00  0.00    +0.220 A 
ATOM      9  N   UNL     1      -2.354   6.276  30.173  0.00  0.00    -0.283 N 
ATOM     36  H   UNL     1      -1.562   6.116  30.795  0.00  0.00    +0.155 HD
ATOM     37  N   UNL     1      -1.959   4.181  29.193  0.00  0.00    -0.214 NA
BRANCH   4   3
ATOM      1  C   UNL     1       0.461   0.496  27.351  0.00  0.00    +0.020 A 
ATOM      2  C   UNL     1      -0.390   1.661  27.265  0.00  0.00    +0.013 A 
ATOM      3  C   UNL     1      -1.328   1.980  28.334  0.00  0.00    +0.019 A 
ATOM     38  C   UNL     1      -1.380   1.093  29.486  0.00  0.00    +0.120 A 
ATOM     39  N   UNL     1      -0.550  -0.023  29.541  0.00  0.00    -0.263 NA
ATOM     40  C   UNL     1       0.355  -0.340  28.518  0.00  0.00    +0.111 A 
ENDBRANCH   4   3
ENDBRANCH  10   9
BRANCH  12  13
ATOM     13  N   UNL     1      -6.127   8.860  32.131  0.00  0.00    -0.281 N 
ATOM     14  C   UNL     1      -7.460   8.654  31.817  0.00  0.00    +0.248 C 
ATOM     30  O   UNL     1      -7.893   8.543  30.679  0.00  0.00    -0.270 OA
ATOM     31  H   UNL     1      -5.931   9.129  33.096  0.00  0.00    +0.155 HD
BRANCH  14  15
ATOM     15  C   UNL     1      -8.460   8.574  32.925  0.00  0.00    +0.037 A 
ATOM     16  C   UNL     1      -9.882   8.349  32.652  0.00  0.00    +0.013 A 
ATOM     17  C   UNL     1     -10.827   8.293  33.738  0.00  0.00    +0.005 A 
ATOM     18  C   UNL     1     -10.353   8.460  35.110  0.00  0.00    -0.033 A 
ATOM     28  C   UNL     1      -8.936   8.677  35.353  0.00  0.00    +0.005 A 
ATOM     29  C   UNL     1      -8.007   8.734  34.290  0.00  0.00    +0.013 A 
BRANCH  18  19
ATOM     19  C   UNL     1     -11.293   8.436  36.329  0.00  0.00    +0.119 C 
BRANCH  19  20
ATOM     20  N   UNL     1     -12.321   9.516  36.421  0.00  0.00    -0.302 NA
ATOM     21  C   UNL     1     -11.705  10.863  36.810  0.00  0.00    +0.066 C 
ATOM     22  C   UNL     1     -12.790  11.986  36.880  0.00  0.00    -0.064 C 
ATOM     23  N   UNL     1     -13.877  11.580  37.877  0.00  0.00    +0.379 N 
ATOM     24  C   UNL     1     -14.869  12.659  37.988  0.00  0.00    -0.096 C 
ATOM     25  H   UNL     1     -13.393  11.461  38.874  0.00  0.00    -0.082 HD
ATOM     26  C   UNL     1     -14.493  10.240  37.500  0.00  0.00    -0.064 C 
ATOM     27  C   UNL     1     -13.402   9.138  37.404  0.00  0.00    +0.066 C 
ENDBRANCH  19  20
ENDBRANCH  18  19
ENDBRANCH  14  15
ENDBRANCH  12  13
TORSDOF 6
ENDMDL
MODEL 5
REMARK VINA RESULT:      -8.2      5.444      8.254
REMARK  Name = C:\Users\Docking\Desktop\test protocol\1iep_ligandH.pdb
REMARK  8 active torsions:
REMARK  status: ('A' for Active; 'I' for Inactive)
REMARK    1  A    between atoms: _5  and  _11
REMARK    2  A    between atoms: _19  and  _21
REMARK    3  A    between atoms: _22  and  _66
REMARK    4  A    between atoms: _27  and  _30
REMARK    5  A    between atoms: _32  and  _33
REMARK    6  A    between atoms: _38  and  _43
REMARK    7  A    between atoms: _43  and  _46
REMARK    8  A    between atoms: _53  and  _55
REMARK                            x       y       z     vdW  Elec       q    Type
REMARK                         _______ _______ _______ _____ _____    ______ ____
ROOT
ATOM     10  C   UNL     1     -12.504  18.197  30.740  0.00  0.00    +0.038 A 
ATOM     11  C   UNL     1     -11.474  19.078  30.324  0.00  0.00    +0.047 A 
ATOM     12  C   UNL     1     -10.377  18.612  29.490  0.00  0.00    +0.035 A 
ATOM     32  C   UNL     1     -10.362  17.242  29.096  0.00  0.00    +0.024 A 
ATOM     33  C   UNL     1     -11.400  16.333  29.511  0.00  0.00    +0.007 A 
ATOM     34  C   UNL     1     -12.484  16.786  30.336  0.00  0.00    -0.029 A 
ATOM     35  C   UNL     1     -13.566  15.765  30.756  0.00  0.00    +0.045 C 
ENDROOT
BRANCH  10   9
ATOM      4  C   UNL     1     -14.512  19.043  35.017  0.00  0.00    +0.077 A 
ATOM      5  C   UNL     1     -13.431  18.410  35.716  0.00  0.00    +0.048 A 
ATOM      6  C   UNL     1     -12.381  17.873  34.937  0.00  0.00    +0.116 A 
ATOM      7  N   UNL     1     -12.420  17.968  33.563  0.00  0.00    -0.223 NA
ATOM      8  C   UNL     1     -13.478  18.583  32.920  0.00  0.00    +0.220 A 
ATOM      9  N   UNL     1     -13.534  18.697  31.540  0.00  0.00    -0.283 N 
ATOM     36  H   UNL     1     -14.336  19.152  31.103  0.00  0.00    +0.155 HD
ATOM     37  N   UNL     1     -14.494  19.103  33.641  0.00  0.00    -0.214 NA
BRANCH   4   3
ATOM      1  C   UNL     1     -16.843  20.656  37.711  0.00  0.00    +0.020 A 
ATOM      2  C   UNL     1     -15.676  20.064  37.100  0.00  0.00    +0.013 A 
ATOM      3  C   UNL     1     -15.693  19.660  35.700  0.00  0.00    +0.019 A 
ATOM     38  C   UNL     1     -16.915  19.873  34.939  0.00  0.00    +0.120 A 
ATOM     39  N   UNL     1     -18.024  20.445  35.555  0.00  0.00    -0.263 NA
ATOM     40  C   UNL     1     -18.021  20.835  36.903  0.00  0.00    +0.111 A 
ENDBRANCH   4   3
ENDBRANCH  10   9
BRANCH  12  13
ATOM     13  N   UNL     1      -9.298  19.459  29.043  0.00  0.00    -0.281 N 
ATOM     14  C   UNL     1      -9.369  20.552  28.195  0.00  0.00    +0.248 C 
ATOM     30  O   UNL     1     -10.345  20.840  27.519  0.00  0.00    -0.270 OA
ATOM     31  H   UNL     1      -8.370  19.224  29.395  0.00  0.00    +0.155 HD
BRANCH  14  15
ATOM     15  C   UNL     1      -8.178  21.446  28.069  0.00  0.00    +0.037 A 
ATOM     16  C   UNL     1      -6.891  20.936  27.590  0.00  0.00    +0.013 A 
ATOM     17  C   UNL     1      -5.754  21.816  27.494  0.00  0.00    +0.005 A 
ATOM     18  C   UNL     1      -5.900  23.218  27.878  0.00  0.00    -0.033 A 
ATOM     28  C   UNL     1      -7.189  23.700  28.345  0.00  0.00    +0.005 A 
ATOM     29  C   UNL     1      -8.306  22.839  28.441  0.00  0.00    +0.013 A 
BRANCH  18  19
ATOM     19  C   UNL     1      -4.735  24.224  27.828  0.00  0.00    +0.119 C 
BRANCH  19  20
ATOM     20  N   UNL     1      -3.951  24.300  26.559  0.00  0.00    -0.302 NA
ATOM     21  C   UNL     1      -2.734  25.220  26.690  0.00  0.00    +0.066 C 
ATOM     22  C   UNL     1      -1.912  25.270  25.361  0.00  0.00    -0.064 C 
ATOM     23  N   UNL     1      -2.821  25.733  24.220  0.00  0.00    +0.379 N 
ATOM     24  C   UNL     1      -2.037  25.837  22.980  0.00  0.00    -0.096 C 
ATOM     25  H   UNL     1      -3.189  26.754  24.474  0.00  0.00    -0.082 HD
ATOM     26  C   UNL     1      -4.035  24.825  24.085  0.00  0.00    -0.064 C 
ATOM     27  C   UNL     1      -4.828  24.759  25.420  0.00  0.00    +0.066 C 
ENDBRANCH  19  20
ENDBRANCH  18  19
ENDBRANCH  14  15
ENDBRANCH  12  13
TORSDOF 6
ENDMDL
