MODEL 1
REMARK VINA RESULT:      -8.7      0.000      0.000
REMARK  Name = C:\Users\Docking\Desktop\test protocol\1iep_ligandH.pdb
REMARK  8 active torsions:
REMARK  status: ('A' for Active; 'I' for Inactive)
REMARK    1  A    between atoms: _5  and  _11
REMARK    2  A    between atoms: _19  and  _21
REMARK    3  A    between atoms: _22  and  _66
REMARK    4  A    between atoms: _27  and  _30
REMARK    5  A    between atoms: _32  and  _33
REMARK    6  A    between atoms: _38  and  _43
REMARK    7  A    between atoms: _43  and  _46
REMARK    8  A    between atoms: _53  and  _55
REMARK                            x       y       z     vdW  Elec       q    Type
REMARK                         _______ _______ _______ _____ _____    ______ ____
ROOT
ATOM     10  C   UNL     1      -0.500   1.605  20.434  0.00  0.00    +0.038 A 
ATOM     11  C   UNL     1      -0.606   0.736  19.318  0.00  0.00    +0.047 A 
ATOM     12  C   UNL     1      -0.502  -0.706  19.475  0.00  0.00    +0.035 A 
ATOM     32  C   UNL     1      -0.293  -1.230  20.784  0.00  0.00    +0.024 A 
ATOM     33  C   UNL     1      -0.182  -0.362  21.929  0.00  0.00    +0.007 A 
ATOM     34  C   UNL     1      -0.281   1.062  21.780  0.00  0.00    -0.029 A 
ATOM     35  C   UNL     1      -0.149   1.946  23.042  0.00  0.00    +0.045 C 
ENDROOT
BRANCH  10   9
ATOM      4  C   UNL     1      -3.032   5.680  20.298  0.00  0.00    +0.077 A 
ATOM      5  C   UNL     1      -4.250   5.005  20.645  0.00  0.00    +0.048 A 
ATOM      6  C   UNL     1      -4.183   3.607  20.843  0.00  0.00    +0.116 A 
ATOM      7  N   UNL     1      -2.982   2.945  20.702  0.00  0.00    -0.223 NA
ATOM      8  C   UNL     1      -1.827   3.626  20.365  0.00  0.00    +0.220 A 
ATOM      9  N   UNL     1      -0.608   2.982  20.226  0.00  0.00    -0.283 N 
ATOM     36  H   UNL     1       0.220   3.519  19.969  0.00  0.00    +0.155 HD
ATOM     37  N   UNL     1      -1.865   4.961  20.169  0.00  0.00    -0.214 NA
BRANCH   4   3
ATOM      1  C   UNL     1      -3.952   9.461  19.895  0.00  0.00    +0.020 A 
ATOM      2  C   UNL     1      -4.095   8.043  20.134  0.00  0.00    +0.013 A 
ATOM      3  C   UNL     1      -2.941   7.155  20.060  0.00  0.00    +0.019 A 
ATOM     38  C   UNL     1      -1.647   7.739  19.741  0.00  0.00    +0.120 A 
ATOM     39  N   UNL     1      -1.540   9.108  19.515  0.00  0.00    -0.263 NA
ATOM     40  C   UNL     1      -2.644   9.971  19.582  0.00  0.00    +0.111 A 
ENDBRANCH   4   3
ENDBRANCH  10   9
BRANCH  12  13
ATOM     13  N   UNL     1      -0.593  -1.638  18.378  0.00  0.00    -0.281 N 
ATOM     14  C   UNL     1      -1.674  -1.867  17.543  0.00  0.00    +0.248 C 
ATOM     30  O   UNL     1      -2.806  -1.455  17.749  0.00  0.00    -0.270 OA
ATOM     31  H   UNL     1       0.241  -2.196  18.194  0.00  0.00    +0.155 HD
BRANCH  14  15
ATOM     15  C   UNL     1      -1.472  -2.684  16.307  0.00  0.00    +0.037 A 
ATOM     16  C   UNL     1      -0.129  -2.991  15.811  0.00  0.00    +0.013 A 
ATOM     17  C   UNL     1       0.038  -3.767  14.608  0.00  0.00    +0.005 A 
ATOM     18  C   UNL     1      -1.144  -4.242  13.893  0.00  0.00    -0.033 A 
ATOM     28  C   UNL     1      -2.466  -3.927  14.410  0.00  0.00    +0.005 A 
ATOM     29  C   UNL     1      -2.633  -3.166  15.589  0.00  0.00    +0.013 A 
BRANCH  18  19
ATOM     19  C   UNL     1      -1.062  -5.058  12.589  0.00  0.00    +0.119 C 
BRANCH  19  20
ATOM     20  N   UNL     1      -0.683  -4.323  11.345  0.00  0.00    -0.302 NA
ATOM     21  C   UNL     1      -1.321  -2.933  11.283  0.00  0.00    +0.066 C 
ATOM     22  C   UNL     1      -0.896  -2.169   9.986  0.00  0.00    -0.064 C 
ATOM     23  N   UNL     1      -1.282  -2.998   8.760  0.00  0.00    +0.379 N 
ATOM     24  C   UNL     1      -0.937  -2.257   7.538  0.00  0.00    -0.096 C 
ATOM     25  H   UNL     1      -2.390  -3.128   8.775  0.00  0.00    -0.082 HD
ATOM     26  C   UNL     1      -0.654  -4.384   8.815  0.00  0.00    -0.064 C 
ATOM     27  C   UNL     1      -1.059  -5.122  10.122  0.00  0.00    +0.066 C 
ENDBRANCH  19  20
ENDBRANCH  18  19
ENDBRANCH  14  15
ENDBRANCH  12  13
TORSDOF 6
ENDMDL
MODEL 2
REMARK VINA RESULT:      -8.6      2.594      4.874
REMARK  Name = C:\Users\Docking\Desktop\test protocol\1iep_ligandH.pdb
REMARK  8 active torsions:
REMARK  status: ('A' for Active; 'I' for Inactive)
REMARK    1  A    between atoms: _5  and  _11
REMARK    2  A    between atoms: _19  and  _21
REMARK    3  A    between atoms: _22  and  _66
REMARK    4  A    between atoms: _27  and  _30
REMARK    5  A    between atoms: _32  and  _33
REMARK    6  A    between atoms: _38  and  _43
REMARK    7  A    between atoms: _43  and  _46
REMARK    8  A    between atoms: _53  and  _55
REMARK                            x       y       z     vdW  Elec       q    Type
REMARK                         _______ _______ _______ _____ _____    ______ ____
ROOT
ATOM     10  C   UNL     1       0.349  -1.055  17.553  0.00  0.00    +0.038 A 
ATOM     11  C   UNL     1       0.057  -1.177  16.170  0.00  0.00    +0.047 A 
ATOM     12  C   UNL     1       0.336  -2.408  15.448  0.00  0.00    +0.035 A 
ATOM     32  C   UNL     1       0.911  -3.497  16.166  0.00  0.00    +0.024 A 
ATOM     33  C   UNL     1       1.215  -3.390  17.572  0.00  0.00    +0.007 A 
ATOM     34  C   UNL     1       0.944  -2.177  18.289  0.00  0.00    -0.029 A 
ATOM     35  C   UNL     1       1.296  -2.116  19.793  0.00  0.00    +0.045 C 
ENDROOT
BRANCH  10   9
ATOM      4  C   UNL     1      -2.375   1.666  20.419  0.00  0.00    +0.077 A 
ATOM      5  C   UNL     1      -3.316   0.604  20.632  0.00  0.00    +0.048 A 
ATOM      6  C   UNL     1      -3.067  -0.624  19.979  0.00  0.00    +0.116 A 
ATOM      7  N   UNL     1      -1.956  -0.768  19.177  0.00  0.00    -0.223 NA
ATOM      8  C   UNL     1      -1.069   0.276  18.992  0.00  0.00    +0.220 A 
ATOM      9  N   UNL     1       0.059   0.151  18.196  0.00  0.00    -0.283 N 
ATOM     36  H   UNL     1       0.685   0.947  18.080  0.00  0.00    +0.155 HD
ATOM     37  N   UNL     1      -1.286   1.460  19.603  0.00  0.00    -0.214 NA
BRANCH   4   3
ATOM      1  C   UNL     1      -1.840   5.445  21.273  0.00  0.00    +0.020 A 
ATOM      2  C   UNL     1      -1.679   4.157  20.640  0.00  0.00    +0.013 A 
ATOM      3  C   UNL     1      -2.500   3.022  21.043  0.00  0.00    +0.019 A 
ATOM     38  C   UNL     1      -3.481   3.225  22.097  0.00  0.00    +0.120 A 
ATOM     39  N   UNL     1      -3.612   4.477  22.690  0.00  0.00    -0.263 NA
ATOM     40  C   UNL     1      -2.827   5.577  22.312  0.00  0.00    +0.111 A 
ENDBRANCH   4   3
ENDBRANCH  10   9
BRANCH  12  13
ATOM     13  N   UNL     1       0.069  -2.588  14.043  0.00  0.00    -0.281 N 
ATOM     14  C   UNL     1      -1.157  -2.781  13.427  0.00  0.00    +0.248 C 
ATOM     30  O   UNL     1      -2.194  -3.043  14.018  0.00  0.00    -0.270 OA
ATOM     31  H   UNL     1       0.882  -2.571  13.427  0.00  0.00    +0.155 HD
BRANCH  14  15
ATOM     15  C   UNL     1      -1.240  -2.683  11.938  0.00  0.00    +0.037 A 
ATOM     16  C   UNL     1      -2.042  -3.629  11.158  0.00  0.00    +0.013 A 
ATOM     17  C   UNL     1      -2.091  -3.522   9.721  0.00  0.00    +0.005 A 
ATOM     18  C   UNL     1      -1.336  -2.464   9.055  0.00  0.00    -0.033 A 
ATOM     28  C   UNL     1      -0.553  -1.536   9.854  0.00  0.00    +0.005 A 
ATOM     29  C   UNL     1      -0.501  -1.638  11.262  0.00  0.00    +0.013 A 
BRANCH  18  19
ATOM     19  C   UNL     1      -1.314  -2.288   7.525  0.00  0.00    +0.119 C 
BRANCH  19  20
ATOM     20  N   UNL     1      -2.162  -3.215   6.718  0.00  0.00    -0.302 NA
ATOM     21  C   UNL     1      -1.346  -4.360   6.113  0.00  0.00    +0.066 C 
ATOM     22  C   UNL     1      -2.252  -5.333   5.290  0.00  0.00    -0.064 C 
ATOM     23  N   UNL     1      -2.977  -4.547   4.196  0.00  0.00    +0.379 N 
ATOM     24  C   UNL     1      -3.785  -5.469   3.384  0.00  0.00    -0.096 C 
ATOM     25  H   UNL     1      -2.202  -4.101   3.530  0.00  0.00    -0.082 HD
ATOM     26  C   UNL     1      -3.789  -3.405   4.789  0.00  0.00    -0.064 C 
ATOM     27  C   UNL     1      -2.884  -2.461   5.628  0.00  0.00    +0.066 C 
ENDBRANCH  19  20
ENDBRANCH  18  19
ENDBRANCH  14  15
ENDBRANCH  12  13
TORSDOF 6
ENDMDL
MODEL 3
REMARK VINA RESULT:      -8.6      2.515      4.541
REMARK  Name = C:\Users\Docking\Desktop\test protocol\1iep_ligandH.pdb
REMARK  8 active torsions:
REMARK  status: ('A' for Active; 'I' for Inactive)
REMARK    1  A    between atoms: _5  and  _11
REMARK    2  A    between atoms: _19  and  _21
REMARK    3  A    between atoms: _22  and  _66
REMARK    4  A    between atoms: _27  and  _30
REMARK    5  A    between atoms: _32  and  _33
REMARK    6  A    between atoms: _38  and  _43
REMARK    7  A    between atoms: _43  and  _46
REMARK    8  A    between atoms: _53  and  _55
REMARK                            x       y       z     vdW  Elec       q    Type
REMARK                         _______ _______ _______ _____ _____    ______ ____
ROOT
ATOM     10  C   UNL     1       0.432  -1.009  17.712  0.00  0.00    +0.038 A 
ATOM     11  C   UNL     1       0.061  -1.225  16.360  0.00  0.00    +0.047 A 
ATOM     12  C   UNL     1       0.381  -2.471  15.682  0.00  0.00    +0.035 A 
ATOM     32  C   UNL     1       1.079  -3.478  16.411  0.00  0.00    +0.024 A 
ATOM     33  C   UNL     1       1.466  -3.274  17.785  0.00  0.00    +0.007 A 
ATOM     34  C   UNL     1       1.154  -2.046  18.459  0.00  0.00    -0.029 A 
ATOM     35  C   UNL     1       1.599  -1.880  19.931  0.00  0.00    +0.045 C 
ENDROOT
BRANCH  10   9
ATOM      4  C   UNL     1      -2.386   1.705  20.492  0.00  0.00    +0.077 A 
ATOM      5  C   UNL     1      -3.285   0.616  20.745  0.00  0.00    +0.048 A 
ATOM      6  C   UNL     1      -2.991  -0.624  20.135  0.00  0.00    +0.116 A 
ATOM      7  N   UNL     1      -1.877  -0.754  19.334  0.00  0.00    -0.223 NA
ATOM      8  C   UNL     1      -1.031   0.317  19.109  0.00  0.00    +0.220 A 
ATOM      9  N   UNL     1       0.099   0.206  18.314  0.00  0.00    -0.283 N 
ATOM     36  H   UNL     1       0.694   1.021  18.167  0.00  0.00    +0.155 HD
ATOM     37  N   UNL     1      -1.291   1.512  19.679  0.00  0.00    -0.214 NA
BRANCH   4   3
ATOM      1  C   UNL     1      -2.046   5.544  21.161  0.00  0.00    +0.020 A 
ATOM      2  C   UNL     1      -1.841   4.241  20.570  0.00  0.00    +0.013 A 
ATOM      3  C   UNL     1      -2.560   3.076  21.068  0.00  0.00    +0.019 A 
ATOM     38  C   UNL     1      -3.488   3.263  22.173  0.00  0.00    +0.120 A 
ATOM     39  N   UNL     1      -3.664   4.529  22.723  0.00  0.00    -0.263 NA
ATOM     40  C   UNL     1      -2.976   5.658  22.254  0.00  0.00    +0.111 A 
ENDBRANCH   4   3
ENDBRANCH  10   9
BRANCH  12  13
ATOM     13  N   UNL     1       0.037  -2.744  14.309  0.00  0.00    -0.281 N 
ATOM     14  C   UNL     1      -1.226  -2.905  13.763  0.00  0.00    +0.248 C 
ATOM     30  O   UNL     1      -2.248  -3.051  14.418  0.00  0.00    -0.270 OA
ATOM     31  H   UNL     1       0.819  -2.830  13.660  0.00  0.00    +0.155 HD
BRANCH  14  15
ATOM     15  C   UNL     1      -1.374  -2.921  12.276  0.00  0.00    +0.037 A 
ATOM     16  C   UNL     1      -2.258  -3.881  11.610  0.00  0.00    +0.013 A 
ATOM     17  C   UNL     1      -2.369  -3.886  10.173  0.00  0.00    +0.005 A 
ATOM     18  C   UNL     1      -1.594  -2.925   9.392  0.00  0.00    -0.033 A 
ATOM     28  C   UNL     1      -0.729  -1.980  10.078  0.00  0.00    +0.005 A 
ATOM     29  C   UNL     1      -0.617  -1.973  11.487  0.00  0.00    +0.013 A 
BRANCH  18  19
ATOM     19  C   UNL     1      -1.635  -2.872   7.853  0.00  0.00    +0.119 C 
BRANCH  19  20
ATOM     20  N   UNL     1      -0.685  -3.756   7.113  0.00  0.00    -0.302 NA
ATOM     21  C   UNL     1      -1.065  -5.234   7.233  0.00  0.00    +0.066 C 
ATOM     22  C   UNL     1      -0.074  -6.143   6.434  0.00  0.00    -0.064 C 
ATOM     23  N   UNL     1       1.350  -5.906   6.940  0.00  0.00    +0.379 N 
ATOM     24  C   UNL     1       2.277  -6.801   6.231  0.00  0.00    -0.096 C 
ATOM     25  H   UNL     1       1.375  -6.180   8.020  0.00  0.00    -0.082 HD
ATOM     26  C   UNL     1       1.735  -4.438   6.827  0.00  0.00    -0.064 C 
ATOM     27  C   UNL     1       0.727  -3.542   7.599  0.00  0.00    +0.066 C 
ENDBRANCH  19  20
ENDBRANCH  18  19
ENDBRANCH  14  15
ENDBRANCH  12  13
TORSDOF 6
ENDMDL
MODEL 4
REMARK VINA RESULT:      -8.5      4.385     14.930
REMARK  Name = C:\Users\Docking\Desktop\test protocol\1iep_ligandH.pdb
REMARK  8 active torsions:
REMARK  status: ('A' for Active; 'I' for Inactive)
REMARK    1  A    between atoms: _5  and  _11
REMARK    2  A    between atoms: _19  and  _21
REMARK    3  A    between atoms: _22  and  _66
REMARK    4  A    between atoms: _27  and  _30
REMARK    5  A    between atoms: _32  and  _33
REMARK    6  A    between atoms: _38  and  _43
REMARK    7  A    between atoms: _43  and  _46
REMARK    8  A    between atoms: _53  and  _55
REMARK                            x       y       z     vdW  Elec       q    Type
REMARK                         _______ _______ _______ _____ _____    ______ ____
ROOT
ATOM     10  C   UNL     1      -0.220  -4.973   8.061  0.00  0.00    +0.038 A 
ATOM     11  C   UNL     1       0.048  -4.511   9.376  0.00  0.00    +0.047 A 
ATOM     12  C   UNL     1      -0.806  -3.522  10.015  0.00  0.00    +0.035 A 
ATOM     32  C   UNL     1      -1.926  -3.026   9.287  0.00  0.00    +0.024 A 
ATOM     33  C   UNL     1      -2.213  -3.483   7.950  0.00  0.00    +0.007 A 
ATOM     34  C   UNL     1      -1.373  -4.457   7.313  0.00  0.00    -0.029 A 
ATOM     35  C   UNL     1      -1.724  -4.906   5.876  0.00  0.00    +0.045 C 
ENDROOT
BRANCH  10   9
ATOM      4  C   UNL     1       3.810  -6.212   5.768  0.00  0.00    +0.077 A 
ATOM      5  C   UNL     1       4.240  -4.847   5.662  0.00  0.00    +0.048 A 
ATOM      6  C   UNL     1       3.392  -3.856   6.205  0.00  0.00    +0.116 A 
ATOM      7  N   UNL     1       2.205  -4.214   6.806  0.00  0.00    -0.223 NA
ATOM      8  C   UNL     1       1.819  -5.540   6.889  0.00  0.00    +0.220 A 
ATOM      9  N   UNL     1       0.633  -5.923   7.496  0.00  0.00    -0.283 N 
ATOM     36  H   UNL     1       0.381  -6.911   7.531  0.00  0.00    +0.155 HD
ATOM     37  N   UNL     1       2.611  -6.505   6.377  0.00  0.00    -0.214 NA
BRANCH   4   3
ATOM      1  C   UNL     1       4.989  -9.258   3.616  0.00  0.00    +0.020 A 
ATOM      2  C   UNL     1       4.191  -8.146   4.079  0.00  0.00    +0.013 A 
ATOM      3  C   UNL     1       4.598  -7.373   5.245  0.00  0.00    +0.019 A 
ATOM     38  C   UNL     1       5.828  -7.752   5.925  0.00  0.00    +0.120 A 
ATOM     39  N   UNL     1       6.575  -8.829   5.456  0.00  0.00    -0.263 NA
ATOM     40  C   UNL     1       6.192  -9.582   4.336  0.00  0.00    +0.111 A 
ENDBRANCH   4   3
ENDBRANCH  10   9
BRANCH  12  13
ATOM     13  N   UNL     1      -0.579  -3.011  11.343  0.00  0.00    -0.281 N 
ATOM     14  C   UNL     1      -1.293  -3.291  12.497  0.00  0.00    +0.248 C 
ATOM     30  O   UNL     1      -2.373  -3.862  12.520  0.00  0.00    -0.270 OA
ATOM     31  H   UNL     1       0.203  -2.363  11.446  0.00  0.00    +0.155 HD
BRANCH  14  15
ATOM     15  C   UNL     1      -0.733  -2.861  13.815  0.00  0.00    +0.037 A 
ATOM     16  C   UNL     1      -0.783  -1.461  14.242  0.00  0.00    +0.013 A 
ATOM     17  C   UNL     1      -0.220  -1.071  15.510  0.00  0.00    +0.005 A 
ATOM     18  C   UNL     1       0.397  -2.085  16.362  0.00  0.00    -0.033 A 
ATOM     28  C   UNL     1       0.429  -3.468  15.916  0.00  0.00    +0.005 A 
ATOM     29  C   UNL     1      -0.121  -3.854  14.673  0.00  0.00    +0.013 A 
BRANCH  18  19
ATOM     19  C   UNL     1       1.041  -1.756  17.722  0.00  0.00    +0.119 C 
BRANCH  19  20
ATOM     20  N   UNL     1       0.333  -0.771  18.593  0.00  0.00    -0.302 NA
ATOM     21  C   UNL     1       0.770   0.668  18.306  0.00  0.00    +0.066 C 
ATOM     22  C   UNL     1       0.003   1.687  19.211  0.00  0.00    -0.064 C 
ATOM     23  N   UNL     1       0.235   1.333  20.681  0.00  0.00    +0.379 N 
ATOM     24  C   UNL     1      -0.437   2.323  21.536  0.00  0.00    -0.096 C 
ATOM     25  H   UNL     1       1.330   1.405  20.877  0.00  0.00    -0.082 HD
ATOM     26  C   UNL     1      -0.194  -0.097  20.975  0.00  0.00    -0.064 C 
ATOM     27  C   UNL     1       0.552  -1.099  20.050  0.00  0.00    +0.066 C 
ENDBRANCH  19  20
ENDBRANCH  18  19
ENDBRANCH  14  15
ENDBRANCH  12  13
TORSDOF 6
ENDMDL
MODEL 5
REMARK VINA RESULT:      -8.5      5.517      9.217
REMARK  Name = C:\Users\Docking\Desktop\test protocol\1iep_ligandH.pdb
REMARK  8 active torsions:
REMARK  status: ('A' for Active; 'I' for Inactive)
REMARK    1  A    between atoms: _5  and  _11
REMARK    2  A    between atoms: _19  and  _21
REMARK    3  A    between atoms: _22  and  _66
REMARK    4  A    between atoms: _27  and  _30
REMARK    5  A    between atoms: _32  and  _33
REMARK    6  A    between atoms: _38  and  _43
REMARK    7  A    between atoms: _43  and  _46
REMARK    8  A    between atoms: _53  and  _55
REMARK                            x       y       z     vdW  Elec       q    Type
REMARK                         _______ _______ _______ _____ _____    ______ ____
ROOT
ATOM     10  C   UNL     1       0.182  -2.673  17.290  0.00  0.00    +0.038 A 
ATOM     11  C   UNL     1       0.221  -2.891  15.889  0.00  0.00    +0.047 A 
ATOM     12  C   UNL     1      -0.382  -1.945  14.963  0.00  0.00    +0.035 A 
ATOM     32  C   UNL     1      -1.013  -0.784  15.499  0.00  0.00    +0.024 A 
ATOM     33  C   UNL     1      -1.062  -0.547  16.920  0.00  0.00    +0.007 A 
ATOM     34  C   UNL     1      -0.471  -1.479  17.839  0.00  0.00    -0.029 A 
ATOM     35  C   UNL     1      -0.559  -1.177  19.353  0.00  0.00    +0.045 C 
ENDROOT
BRANCH  10   9
ATOM      4  C   UNL     1       3.796  -4.189  20.062  0.00  0.00    +0.077 A 
ATOM      5  C   UNL     1       4.577  -3.017  19.786  0.00  0.00    +0.048 A 
ATOM      6  C   UNL     1       4.016  -2.052  18.920  0.00  0.00    +0.116 A 
ATOM      7  N   UNL     1       2.766  -2.254  18.377  0.00  0.00    -0.223 NA
ATOM      8  C   UNL     1       2.039  -3.395  18.662  0.00  0.00    +0.220 A 
ATOM      9  N   UNL     1       0.777  -3.615  18.133  0.00  0.00    -0.283 N 
ATOM     36  H   UNL     1       0.276  -4.473  18.362  0.00  0.00    +0.155 HD
ATOM     37  N   UNL     1       2.554  -4.332  19.485  0.00  0.00    -0.214 NA
BRANCH   4   3
ATOM      1  C   UNL     1       5.759  -6.255  22.741  0.00  0.00    +0.020 A 
ATOM      2  C   UNL     1       5.360  -5.154  21.895  0.00  0.00    +0.013 A 
ATOM      3  C   UNL     1       4.251  -5.297  20.960  0.00  0.00    +0.019 A 
ATOM     38  C   UNL     1       3.561  -6.577  20.906  0.00  0.00    +0.120 A 
ATOM     39  N   UNL     1       3.968  -7.620  21.731  0.00  0.00    -0.263 NA
ATOM     40  C   UNL     1       5.035  -7.495  22.634  0.00  0.00    +0.111 A 
ENDBRANCH   4   3
ENDBRANCH  10   9
BRANCH  12  13
ATOM     13  N   UNL     1      -0.381  -2.118  13.532  0.00  0.00    -0.281 N 
ATOM     14  C   UNL     1      -1.318  -2.777  12.753  0.00  0.00    +0.248 C 
ATOM     30  O   UNL     1      -2.194  -3.505  13.195  0.00  0.00    -0.270 OA
ATOM     31  H   UNL     1       0.406  -1.704  13.032  0.00  0.00    +0.155 HD
BRANCH  14  15
ATOM     15  C   UNL     1      -1.266  -2.614  11.268  0.00  0.00    +0.037 A 
ATOM     16  C   UNL     1      -0.446  -1.571  10.646  0.00  0.00    +0.013 A 
ATOM     17  C   UNL     1      -0.427  -1.425   9.213  0.00  0.00    +0.005 A 
ATOM     18  C   UNL     1      -1.231  -2.326   8.390  0.00  0.00    -0.033 A 
ATOM     28  C   UNL     1      -2.031  -3.355   9.033  0.00  0.00    +0.005 A 
ATOM     29  C   UNL     1      -2.053  -3.501  10.438  0.00  0.00    +0.013 A 
BRANCH  18  19
ATOM     19  C   UNL     1      -1.288  -2.230   6.854  0.00  0.00    +0.119 C 
BRANCH  19  20
ATOM     20  N   UNL     1      -2.353  -3.013   6.159  0.00  0.00    -0.302 NA
ATOM     21  C   UNL     1      -1.829  -4.349   5.627  0.00  0.00    +0.066 C 
ATOM     22  C   UNL     1      -2.961  -5.165   4.922  0.00  0.00    -0.064 C 
ATOM     23  N   UNL     1      -3.559  -4.328   3.790  0.00  0.00    +0.379 N 
ATOM     24  C   UNL     1      -4.585  -5.114   3.088  0.00  0.00    -0.096 C 
ATOM     25  H   UNL     1      -2.743  -4.111   3.062  0.00  0.00    -0.082 HD
ATOM     26  C   UNL     1      -4.081  -2.996   4.310  0.00  0.00    -0.064 C 
ATOM     27  C   UNL     1      -2.955  -2.207   5.034  0.00  0.00    +0.066 C 
ENDBRANCH  19  20
ENDBRANCH  18  19
ENDBRANCH  14  15
ENDBRANCH  12  13
TORSDOF 6
ENDMDL
